data_image0
_cell_length_a       23.121
_cell_length_b       23.121
_cell_length_c       51.666
_cell_angle_alpha    90
_cell_angle_beta     90
_cell_angle_gamma    120

_symmetry_space_group_name_H-M    "P 1"
_symmetry_int_tables_number       1

loop_
  _symmetry_equiv_pos_as_xyz
  'x, y, z'

loop_
  _atom_site_label
  _atom_site_occupancy
  _atom_site_fract_x
  _atom_site_fract_y
  _atom_site_fract_z
  _atom_site_thermal_displace_type
  _atom_site_B_iso_or_equiv
  _atom_site_type_symbol
  C1       1.0000 0.44393  0.70318  0.48616  Biso   1.000  C
  C2       1.0000 0.43455  0.66427  0.45966  Biso   1.000  C
  H1       1.0000 0.48674  0.71536  0.49346  Biso   1.000  H
  H2       1.0000 0.40944  0.67486  0.49806  Biso   1.000  H
  H3       1.0000 0.44145  0.74268  0.48297  Biso   1.000  H
  C3       1.0000 0.43731  0.60205  0.46309  Biso   1.000  C
  H4       1.0000 0.39183  0.65339  0.45217  Biso   1.000  H
  H5       1.0000 0.46922  0.69339  0.44766  Biso   1.000  H
  C4       1.0000 0.42734  0.56204  0.43921  Biso   1.000  C
  H6       1.0000 0.40343  0.57418  0.47557  Biso   1.000  H
  H7       1.0000 0.48046  0.61378  0.47046  Biso   1.000  H
  C5       1.0000 0.43892  0.50286  0.44118  Biso   1.000  C
  H8       1.0000 0.45682  0.59186  0.42597  Biso   1.000  H
  H9       1.0000 0.38194  0.54546  0.43326  Biso   1.000  H
  C6       1.0000 0.43071  0.46576  0.41573  Biso   1.000  C
  C7       1.0000 0.50904  0.52648  0.45183  Biso   1.000  C
  C8       1.0000 0.39475  0.45397  0.46294  Biso   1.000  C
  C9       1.0000 0.44152  0.40727  0.41726  Biso   1.000  C
  H10      1.0000 0.38604  0.45037  0.40917  Biso   1.000  H
  H11      1.0000 0.46194  0.49717  0.40326  Biso   1.000  H
  C10      1.0000 0.56753  0.56908  0.44012  Biso   1.000  C
  C11      1.0000 0.50461  0.50276  0.47749  Biso   1.000  C
  C12      1.0000 0.32724  0.41107  0.46336  Biso   1.000  C
  C13      1.0000 0.43565  0.45497  0.48434  Biso   1.000  C
  C14      1.0000 0.43563  0.37266  0.39163  Biso   1.000  C
  H12      1.0000 0.40914  0.37496  0.42926  Biso   1.000  H
  H13      1.0000 0.48564  0.42226  0.42436  Biso   1.000  H
  C15      1.0000 0.62793  0.59066  0.45285  Biso   1.000  C
  H14      1.0000 0.56724  0.58407  0.42347  Biso   1.000  H
  C16      1.0000 0.56625  0.52309  0.49005  Biso   1.000  C
  C17      1.0000 0.27186  0.39649  0.44505  Biso   1.000  C
  C18      1.0000 0.29705  0.36417  0.48471  Biso   1.000  C
  C19      1.0000 0.40582  0.41287  0.50542  Biso   1.000  C
  H15      1.0000 0.39023  0.35419  0.38526  Biso   1.000  H
  H16      1.0000 0.46503  0.40578  0.37917  Biso   1.000  H
  C20      1.0000 0.45194  0.31878  0.39264  Biso   1.000  C
  C21      1.0000 0.69234  0.63376  0.44050  Biso   1.000  C
  C22      1.0000 0.62443  0.56679  0.47834  Biso   1.000  C
  H17      1.0000 0.56683  0.50636  0.50637  Biso   1.000  H
  C23      1.0000 0.21283  0.33925  0.45388  Biso   1.000  C
  C24      1.0000 0.26860  0.42735  0.42221  Biso   1.000  C
  C25      1.0000 0.33683  0.36667  0.50536  Biso   1.000  C
  C26      1.0000 0.22386  0.31528  0.47968  Biso   1.000  C
  C27      1.0000 0.43935  0.40528  0.52988  Biso   1.000  C
  H18      1.0000 0.49801  0.33706  0.39736  Biso   1.000  H
  H19      1.0000 0.44433  0.29785  0.37597  Biso   1.000  H
  H20      1.0000 0.42413  0.28617  0.40528  Biso   1.000  H
  N1       1.0000 0.69933  0.64704  0.41648  Biso   1.000  N
  H21      1.0000 0.73034  0.65259  0.45086  Biso   1.000  H
  H22      1.0000 0.66402  0.58187  0.48757  Biso   1.000  H
  C28      1.0000 0.15385  0.31418  0.44064  Biso   1.000  C
  C29      1.0000 0.20802  0.40038  0.40903  Biso   1.000  C
  H23      1.0000 0.30624  0.46526  0.41596  Biso   1.000  H
  C30      1.0000 0.32035  0.32877  0.53033  Biso   1.000  C
  C31      1.0000 0.20894  0.24307  0.47619  Biso   1.000  C
  C32      1.0000 0.17602  0.31978  0.49888  Biso   1.000  C
  C33      1.0000 0.37953  0.35059  0.54384  Biso   1.000  C
  C34      1.0000 0.46763  0.47325  0.54643  Biso   1.000  C
  C35      1.0000 0.48942  0.38285  0.52450  Biso   1.000  C
  C36      1.0000 0.76563  0.69124  0.40746  Biso   1.000  C
  C37      1.0000 0.15102  0.34425  0.41733  Biso   1.000  C
  H24      1.0000 0.11562  0.27718  0.44706  Biso   1.000  H
  H25      1.0000 0.20604  0.42116  0.39397  Biso   1.000  H
  C38      1.0000 0.26303  0.27598  0.53985  Biso   1.000  C
  H26      1.0000 0.21476  0.22718  0.49286  Biso   1.000  H
  H27      1.0000 0.16233  0.21575  0.47137  Biso   1.000  H
  C39      1.0000 0.24932  0.23178  0.45697  Biso   1.000  C
  H28      1.0000 0.13085  0.29206  0.49257  Biso   1.000  H
  H29      1.0000 0.17942  0.30115  0.51527  Biso   1.000  H
  C40      1.0000 0.18702  0.38685  0.50362  Biso   1.000  C
  C41      1.0000 0.37986  0.32487  0.56854  Biso   1.000  C
  H30      1.0000 0.48183  0.46576  0.56318  Biso   1.000  H
  H31      1.0000 0.50722  0.50746  0.53767  Biso   1.000  H
  C42      1.0000 0.41835  0.50246  0.55133  Biso   1.000  C
  H32      1.0000 0.53032  0.42096  0.51837  Biso   1.000  H
  H33      1.0000 0.49963  0.36867  0.54067  Biso   1.000  H
  C43      1.0000 0.46872  0.32917  0.50596  Biso   1.000  C
  H34      1.0000 0.79543  0.71167  0.42237  Biso   1.000  H
  C44      1.0000 0.76466  0.74648  0.39091  Biso   1.000  C
  C45      1.0000 0.79114  0.65299  0.39086  Biso   1.000  C
  C46      1.0000 0.08944  0.31598  0.40253  Biso   1.000  C
  C47      1.0000 0.26272  0.25295  0.56532  Biso   1.000  C
  H35      1.0000 0.22474  0.25545  0.52977  Biso   1.000  H
  H36      1.0000 0.29597  0.26539  0.45937  Biso   1.000  H
  H37      1.0000 0.23633  0.23797  0.43977  Biso   1.000  H
  C48      1.0000 0.24314  0.16406  0.45827  Biso   1.000  C
  H38      1.0000 0.19184  0.40867  0.48707  Biso   1.000  H
  H39      1.0000 0.22884  0.41227  0.51297  Biso   1.000  H
  C49      1.0000 0.13064  0.38905  0.51928  Biso   1.000  C
  H40      1.0000 0.41984  0.34005  0.57746  Biso   1.000  H
  C50      1.0000 0.32166  0.27768  0.57926  Biso   1.000  C
  H41      1.0000 0.37674  0.46396  0.55677  Biso   1.000  H
  H42      1.0000 0.40993  0.51355  0.53416  Biso   1.000  H
  C51      1.0000 0.42523  0.56379  0.56987  Biso   1.000  C
  H43      1.0000 0.45305  0.33985  0.49026  Biso   1.000  H
  H44      1.0000 0.43264  0.28806  0.51306  Biso   1.000  H
  C52      1.0000 0.53025  0.32048  0.49986  Biso   1.000  C
  N2       1.0000 0.74224  0.78398  0.40708  Biso   1.000  N
  H45      1.0000 0.73422  0.72635  0.37626  Biso   1.000  H
  C53      1.0000 0.83595  0.79347  0.38099  Biso   1.000  C
  H46      1.0000 0.79245  0.61868  0.40127  Biso   1.000  H
  H47      1.0000 0.76095  0.63136  0.37648  Biso   1.000  H
  C54      1.0000 0.85996  0.70058  0.38077  Biso   1.000  C
  N3       1.0000 0.04172  0.25775  0.40708  Biso   1.000  N
  H48      1.0000 0.08494  0.34115  0.38946  Biso   1.000  H
  H49      1.0000 0.22271  0.22094  0.57278  Biso   1.000  H
  H50      1.0000 0.25854  0.15507  0.44207  Biso   1.000  H
  H51      1.0000 0.19653  0.13035  0.46036  Biso   1.000  H
  C55      1.0000 0.28422  0.15886  0.48097  Biso   1.000  C
  H52      1.0000 0.11865  0.35988  0.53416  Biso   1.000  H
  H53      1.0000 0.14592  0.43414  0.52537  Biso   1.000  H
  C56      1.0000 0.07075  0.36657  0.50166  Biso   1.000  C
  C57      1.0000 0.31921  0.25435  0.60605  Biso   1.000  C
  H54      1.0000 0.47064  0.59475  0.56438  Biso   1.000  H
  H55      1.0000 0.39853  0.57458  0.55847  Biso   1.000  H
  C58      1.0000 0.42644  0.61129  0.59306  Biso   1.000  C
  H56      1.0000 0.56982  0.36407  0.49777  Biso   1.000  H
  H57      1.0000 0.53784  0.29795  0.51417  Biso   1.000  H
  C59      1.0000 0.51812  0.27917  0.47466  Biso   1.000  C
  C60      1.0000 0.68403  0.77345  0.40253  Biso   1.000  C
  H58      1.0000 0.83606  0.82838  0.37048  Biso   1.000  H
  H59      1.0000 0.86543  0.81455  0.39556  Biso   1.000  H
  C61      1.0000 0.86133  0.75557  0.36502  Biso   1.000  C
  H60      1.0000 0.89044  0.71976  0.39527  Biso   1.000  H
  H61      1.0000 0.87521  0.67616  0.37017  Biso   1.000  H
  C62      1.0000 0.98184  0.23537  0.39091  Biso   1.000  C
  H62      1.0000 0.33104  0.18598  0.47726  Biso   1.000  H
  H63      1.0000 0.27314  0.11317  0.48306  Biso   1.000  H
  H64      1.0000 0.27392  0.17425  0.49657  Biso   1.000  H
  H65      1.0000 0.08441  0.39174  0.48587  Biso   1.000  H
  H66      1.0000 0.03784  0.37376  0.51016  Biso   1.000  H
  H67      1.0000 0.05182  0.31998  0.49787  Biso   1.000  H
  N4       1.0000 0.37342  0.27308  0.61880  Biso   1.000  N
  H68      1.0000 0.27825  0.22599  0.61377  Biso   1.000  H
  H69      1.0000 0.43253  0.59466  0.60938  Biso   1.000  H
  H70      1.0000 0.38483  0.61119  0.59337  Biso   1.000  H
  H71      1.0000 0.46246  0.65598  0.59047  Biso   1.000  H
  H72      1.0000 0.51084  0.30155  0.46057  Biso   1.000  H
  H73      1.0000 0.47963  0.23567  0.47687  Biso   1.000  H
  H74      1.0000 0.55644  0.27468  0.47116  Biso   1.000  H
  C63      1.0000 0.65575  0.80676  0.41733  Biso   1.000  C
  H75      1.0000 0.65886  0.74378  0.38946  Biso   1.000  H
  H76      1.0000 0.83374  0.73699  0.34977  Biso   1.000  H
  H77      1.0000 0.90672  0.78598  0.35937  Biso   1.000  H
  C64      1.0000 0.92563  0.23438  0.40746  Biso   1.000  C
  H78      1.0000 0.99216  0.26579  0.37626  Biso   1.000  H
  C65      1.0000 0.95751  0.16406  0.38099  Biso   1.000  C
  C66      1.0000 0.36542  0.24756  0.64555  Biso   1.000  C
  C67      1.0000 0.68583  0.83967  0.44064  Biso   1.000  C
  C68      1.0000 0.59962  0.80766  0.40903  Biso   1.000  C
  N5       1.0000 0.94774  0.30065  0.41648  Biso   1.000  N
  H79      1.0000 0.91622  0.20456  0.42237  Biso   1.000  H
  C69      1.0000 0.86183  0.20886  0.39086  Biso   1.000  C
  H80      1.0000 0.99232  0.16396  0.37048  Biso   1.000  H
  H81      1.0000 0.94911  0.13454  0.39556  Biso   1.000  H
  C70      1.0000 0.89427  0.13869  0.36502  Biso   1.000  C
  C71      1.0000 0.40373  0.30809  0.66272  Biso   1.000  C
  H82      1.0000 0.31804  0.22529  0.65027  Biso   1.000  H
  C72      1.0000 0.38942  0.19997  0.64809  Biso   1.000  C
  C73      1.0000 0.66074  0.87358  0.45388  Biso   1.000  C
  H83      1.0000 0.72286  0.83847  0.44706  Biso   1.000  H
  H84      1.0000 0.57885  0.78488  0.39397  Biso   1.000  H
  C74      1.0000 0.57262  0.84127  0.42221  Biso   1.000  C
  C75      1.0000 0.94144  0.30769  0.44050  Biso   1.000  C
  H85      1.0000 0.82624  0.20756  0.40127  Biso   1.000  H
  H86      1.0000 0.87045  0.23907  0.37648  Biso   1.000  H
  C76      1.0000 0.84064  0.14009  0.38077  Biso   1.000  C
  H87      1.0000 0.90325  0.16626  0.34977  Biso   1.000  H
  H88      1.0000 0.87927  0.09329  0.35937  Biso   1.000  H
  N6       1.0000 0.37685  0.35259  0.66117  Biso   1.000  N
  H89      1.0000 0.45054  0.33216  0.65716  Biso   1.000  H
  C77      1.0000 0.40042  0.28417  0.69076  Biso   1.000  C
  C78      1.0000 0.38924  0.17859  0.67569  Biso   1.000  C
  H90      1.0000 0.43454  0.22014  0.64127  Biso   1.000  H
  H91      1.0000 0.36142  0.16076  0.63767  Biso   1.000  H
  C79      1.0000 0.60356  0.87538  0.44505  Biso   1.000  C
  C80      1.0000 0.68473  0.90859  0.47968  Biso   1.000  C
  H92      1.0000 0.53475  0.84097  0.41596  Biso   1.000  H
  C81      1.0000 0.96273  0.37207  0.45285  Biso   1.000  C
  H93      1.0000 0.92222  0.26968  0.45086  Biso   1.000  H
  H94      1.0000 0.82932  0.10957  0.39527  Biso   1.000  H
  H95      1.0000 0.80093  0.12475  0.37017  Biso   1.000  H
  C82      1.0000 0.41781  0.41307  0.65500  Biso   1.000  C
  H96      1.0000 0.42494  0.32257  0.70197  Biso   1.000  H
  H97      1.0000 0.35423  0.26065  0.69647  Biso   1.000  H
  C83      1.0000 0.42844  0.23977  0.69326  Biso   1.000  C
  H98      1.0000 0.40926  0.15037  0.67646  Biso   1.000  H
  H99      1.0000 0.34363  0.15267  0.68176  Biso   1.000  H
  C84      1.0000 0.58892  0.91618  0.46336  Biso   1.000  C
  C85      1.0000 0.63584  0.93286  0.48471  Biso   1.000  C
  C86      1.0000 0.75693  0.96587  0.47619  Biso   1.000  C
  C87      1.0000 0.68023  0.85625  0.49888  Biso   1.000  C
  C88      1.0000 0.00153  0.43244  0.44012  Biso   1.000  C
  C89      1.0000 0.94233  0.37556  0.47834  Biso   1.000  C
  H100     1.0000 0.46162  0.42336  0.65198  Biso   1.000  H
  C90      1.0000 0.40403  0.46905  0.65201  Biso   1.000  C
  H101     1.0000 0.42553  0.22549  0.71107  Biso   1.000  H
  H102     1.0000 0.47513  0.26334  0.68827  Biso   1.000  H
  C91      1.0000 0.54602  0.94075  0.46294  Biso   1.000  C
  C92      1.0000 0.63335  0.97017  0.50536  Biso   1.000  C
  H103     1.0000 0.77283  0.98755  0.49286  Biso   1.000  H
  H104     1.0000 0.78420  0.94654  0.47137  Biso   1.000  H
  C93      1.0000 0.76820  0.01756  0.45697  Biso   1.000  C
  H105     1.0000 0.70795  0.83877  0.49257  Biso   1.000  H
  H106     1.0000 0.69886  0.87827  0.51527  Biso   1.000  H
  C94      1.0000 0.61314  0.80016  0.50362  Biso   1.000  C
  H107     1.0000 0.01681  0.43274  0.42347  Biso   1.000  H
  C95      1.0000 0.01743  0.49098  0.45183  Biso   1.000  C
  H108     1.0000 0.91782  0.33596  0.48757  Biso   1.000  H
  C96      1.0000 0.95680  0.43374  0.49005  Biso   1.000  C
  C97      1.0000 0.34192  0.46456  0.65349  Biso   1.000  C
  C98      1.0000 0.46128  0.53088  0.64872  Biso   1.000  C
  C99      1.0000 0.49714  0.93606  0.44118  Biso   1.000  C
  C100     1.0000 0.54504  0.98065  0.48434  Biso   1.000  C
  C101     1.0000 0.67126  0.99159  0.53033  Biso   1.000  C
  C102     1.0000 0.58715  0.99299  0.50542  Biso   1.000  C
  H109     1.0000 0.76203  0.99838  0.43977  Biso   1.000  H
  H110     1.0000 0.73464  0.03055  0.45937  Biso   1.000  H
  C103     1.0000 0.83596  0.07904  0.45827  Biso   1.000  C
  H111     1.0000 0.59132  0.78318  0.48707  Biso   1.000  H
  H112     1.0000 0.58772  0.81655  0.51297  Biso   1.000  H
  C104     1.0000 0.61096  0.74158  0.51928  Biso   1.000  C
  C105     1.0000 0.06392  0.56104  0.44118  Biso   1.000  C
  C106     1.0000 0.99813  0.49537  0.47749  Biso   1.000  C
  H113     1.0000 0.93951  0.43314  0.50637  Biso   1.000  H
  H114     1.0000 0.30362  0.42326  0.65567  Biso   1.000  H
  C107     1.0000 0.33704  0.52209  0.65169  Biso   1.000  C
  C108     1.0000 0.45645  0.58826  0.64692  Biso   1.000  C
  H115     1.0000 0.50282  0.53378  0.64778  Biso   1.000  H
  C109     1.0000 0.47354  0.98255  0.45183  Biso   1.000  C
  C110     1.0000 0.53426  0.96497  0.41573  Biso   1.000  C
  C111     1.0000 0.43796  0.86529  0.43921  Biso   1.000  C
  C112     1.0000 0.49720  0.00183  0.47749  Biso   1.000  C
  C113     1.0000 0.72401  0.98705  0.53985  Biso   1.000  C
  C114     1.0000 0.64942  0.02895  0.54384  Biso   1.000  C
  C115     1.0000 0.59470  0.03404  0.52988  Biso   1.000  C
  H116     1.0000 0.84493  0.10346  0.44207  Biso   1.000  H
  H117     1.0000 0.86965  0.06615  0.46036  Biso   1.000  H
  C116     1.0000 0.84116  0.12533  0.48097  Biso   1.000  C
  H118     1.0000 0.64014  0.75876  0.53416  Biso   1.000  H
  H119     1.0000 0.56582  0.71177  0.52537  Biso   1.000  H
  C117     1.0000 0.63343  0.70418  0.50166  Biso   1.000  C
  C118     1.0000 0.05921  0.60524  0.46294  Biso   1.000  C
  C119     1.0000 0.03504  0.56928  0.41573  Biso   1.000  C
  C120     1.0000 0.13475  0.57268  0.43921  Biso   1.000  C
  C121     1.0000 0.01936  0.56439  0.48434  Biso   1.000  C
  C122     1.0000 0.27445  0.52199  0.64973  Biso   1.000  C
  C123     1.0000 0.39435  0.58387  0.64840  Biso   1.000  C
  H120     1.0000 0.49471  0.62966  0.64478  Biso   1.000  H
  C124     1.0000 0.43095  0.99848  0.44012  Biso   1.000  C
  H121     1.0000 0.54962  0.93566  0.40917  Biso   1.000  H
  H122     1.0000 0.50284  0.96477  0.40326  Biso   1.000  H
  C125     1.0000 0.59272  0.03424  0.41726  Biso   1.000  C
  H123     1.0000 0.40814  0.86499  0.42597  Biso   1.000  H
  H124     1.0000 0.45452  0.83647  0.43326  Biso   1.000  H
  C126     1.0000 0.39796  0.83527  0.46309  Biso   1.000  C
  C127     1.0000 0.47693  0.04313  0.49005  Biso   1.000  C
  H125     1.0000 0.74453  0.96927  0.52977  Biso   1.000  H
  C128     1.0000 0.74700  0.00977  0.56532  Biso   1.000  C
  C129     1.0000 0.67510  0.05497  0.56854  Biso   1.000  C
  C130     1.0000 0.52673  0.99439  0.54643  Biso   1.000  C
  C131     1.0000 0.61712  0.10656  0.52450  Biso   1.000  C
  H126     1.0000 0.81400  0.14506  0.47726  Biso   1.000  H
  H127     1.0000 0.88684  0.15994  0.48306  Biso   1.000  H
  H128     1.0000 0.82577  0.09966  0.49657  Biso   1.000  H
  H129     1.0000 0.60823  0.69269  0.48587  Biso   1.000  H
  H130     1.0000 0.62623  0.66407  0.51016  Biso   1.000  H
  H131     1.0000 0.68001  0.73184  0.49787  Biso   1.000  H
  C132     1.0000 0.08384  0.67276  0.46336  Biso   1.000  C
  H132     1.0000 0.06435  0.61398  0.40917  Biso   1.000  H
  H133     1.0000 0.03522  0.53807  0.40326  Biso   1.000  H
  C133     1.0000 0.96574  0.55845  0.41726  Biso   1.000  C
  H134     1.0000 0.13504  0.54317  0.42597  Biso   1.000  H
  H135     1.0000 0.16354  0.61808  0.43326  Biso   1.000  H
  C134     1.0000 0.16472  0.56264  0.46309  Biso   1.000  C
  C135     1.0000 0.00704  0.59416  0.50542  Biso   1.000  C
  C136     1.0000 0.30664  0.59875  0.64855  Biso   1.000  C
  C137     1.0000 0.23833  0.48358  0.62478  Biso   1.000  C
  C138     1.0000 0.22285  0.48878  0.67317  Biso   1.000  C
  C139     1.0000 0.37524  0.64115  0.64880  Biso   1.000  C
  H136     1.0000 0.41593  0.98315  0.42347  Biso   1.000  H
  C140     1.0000 0.40932  0.03724  0.45285  Biso   1.000  C
  C141     1.0000 0.62732  0.06296  0.39163  Biso   1.000  C
  H137     1.0000 0.62498  0.03414  0.42926  Biso   1.000  H
  H138     1.0000 0.57774  0.06336  0.42436  Biso   1.000  H
  H139     1.0000 0.42584  0.82928  0.47557  Biso   1.000  H
  H140     1.0000 0.38624  0.86669  0.47046  Biso   1.000  H
  C142     1.0000 0.33573  0.77025  0.45966  Biso   1.000  C
  C143     1.0000 0.43320  0.05766  0.47834  Biso   1.000  C
  H141     1.0000 0.49360  0.06046  0.50637  Biso   1.000  H
  H142     1.0000 0.77901  0.00173  0.57278  Biso   1.000  H
  C144     1.0000 0.72235  0.04393  0.57926  Biso   1.000  C
  H143     1.0000 0.65993  0.07974  0.57746  Biso   1.000  H
  H144     1.0000 0.49254  0.99978  0.53767  Biso   1.000  H
  C145     1.0000 0.49756  0.91588  0.55133  Biso   1.000  C
  H145     1.0000 0.53424  0.01606  0.56318  Biso   1.000  H
  H146     1.0000 0.57898  0.10935  0.51837  Biso   1.000  H
  H147     1.0000 0.63129  0.13093  0.54067  Biso   1.000  H
  C146     1.0000 0.67086  0.13957  0.50596  Biso   1.000  C
  C147     1.0000 0.12464  0.72815  0.44505  Biso   1.000  C
  C148     1.0000 0.06716  0.70298  0.48471  Biso   1.000  C
  C149     1.0000 0.93705  0.56439  0.39163  Biso   1.000  C
  H148     1.0000 0.96582  0.59086  0.42926  Biso   1.000  H
  H149     1.0000 0.93664  0.51435  0.42436  Biso   1.000  H
  H150     1.0000 0.17073  0.59655  0.47557  Biso   1.000  H
  H151     1.0000 0.13331  0.51954  0.47046  Biso   1.000  H
  C150     1.0000 0.22976  0.56549  0.45966  Biso   1.000  C
  C151     1.0000 0.02983  0.66317  0.50536  Biso   1.000  C
  C152     1.0000 0.96593  0.56064  0.52988  Biso   1.000  C
  C153     1.0000 0.26593  0.62477  0.64880  Biso   1.000  C
  H152     1.0000 0.22555  0.43709  0.62716  Biso   1.000  H
  H153     1.0000 0.19754  0.48548  0.62306  Biso   1.000  H
  C154     1.0000 0.27573  0.50656  0.59997  Biso   1.000  C
  H154     1.0000 0.20105  0.49138  0.62296  Biso   1.000  H
  H155     1.0000 0.26904  0.50876  0.61096  Biso   1.000  H
  C155     1.0000 0.21252  0.41726  0.61756  Biso   1.000  C
  H156     1.0000 0.21992  0.44668  0.67756  Biso   1.000  H
  H157     1.0000 0.17904  0.47909  0.66736  Biso   1.000  H
  C156     1.0000 0.24186  0.53458  0.69945  Biso   1.000  C
  C157     1.0000 0.40125  0.70787  0.64855  Biso   1.000  C
  C158     1.0000 0.36627  0.05856  0.44050  Biso   1.000  C
  H158     1.0000 0.64578  0.03604  0.38526  Biso   1.000  H
  H159     1.0000 0.59425  0.05926  0.37917  Biso   1.000  H
  C159     1.0000 0.68122  0.13313  0.39264  Biso   1.000  C
  H160     1.0000 0.34662  0.73849  0.45217  Biso   1.000  H
  H161     1.0000 0.30661  0.77584  0.44766  Biso   1.000  H
  C160     1.0000 0.29682  0.74078  0.48616  Biso   1.000  C
  H162     1.0000 0.41815  0.08214  0.48757  Biso   1.000  H
  C161     1.0000 0.74561  0.06486  0.60605  Biso   1.000  C
  H163     1.0000 0.53606  0.91278  0.55677  Biso   1.000  H
  H164     1.0000 0.48641  0.89635  0.53416  Biso   1.000  H
  C162     1.0000 0.43621  0.86144  0.56987  Biso   1.000  C
  H165     1.0000 0.66012  0.11315  0.49026  Biso   1.000  H
  H166     1.0000 0.71189  0.14456  0.51306  Biso   1.000  H
  C163     1.0000 0.67952  0.20974  0.49986  Biso   1.000  C
  C164     1.0000 0.12643  0.78718  0.45388  Biso   1.000  C
  C165     1.0000 0.15872  0.73135  0.42221  Biso   1.000  C
  C166     1.0000 0.09141  0.77614  0.47968  Biso   1.000  C
  H167     1.0000 0.96395  0.60979  0.38526  Biso   1.000  H
  H168     1.0000 0.94073  0.53497  0.37917  Biso   1.000  H
  C167     1.0000 0.86682  0.54806  0.39264  Biso   1.000  C
  H169     1.0000 0.26154  0.60819  0.45217  Biso   1.000  H
  H170     1.0000 0.22413  0.53078  0.44766  Biso   1.000  H
  C168     1.0000 0.25921  0.55605  0.48616  Biso   1.000  C
  C169     1.0000 0.00844  0.67966  0.53033  Biso   1.000  C
  C170     1.0000 0.00565  0.53238  0.54643  Biso   1.000  C
  C171     1.0000 0.97102  0.62047  0.54384  Biso   1.000  C
  C172     1.0000 0.89344  0.51055  0.52450  Biso   1.000  C
  C173     1.0000 0.29216  0.69339  0.64855  Biso   1.000  C
  C174     1.0000 0.18950  0.60564  0.64840  Biso   1.000  C
  C175     1.0000 0.23814  0.45647  0.57887  Biso   1.000  C
  H171     1.0000 0.31971  0.51175  0.60196  Biso   1.000  H
  H172     1.0000 0.28114  0.54966  0.59527  Biso   1.000  H
  H173     1.0000 0.18034  0.39034  0.63067  Biso   1.000  H
  H174     1.0000 0.24883  0.40787  0.61867  Biso   1.000  H
  C176     1.0000 0.18033  0.39214  0.59258  Biso   1.000  C
  C177     1.0000 0.20093  0.49467  0.72276  Biso   1.000  C
  H175     1.0000 0.28893  0.55295  0.70327  Biso   1.000  H
  H176     1.0000 0.23416  0.57168  0.69647  Biso   1.000  H
  C178     1.0000 0.35880  0.73404  0.64880  Biso   1.000  C
  C179     1.0000 0.47805  0.75247  0.64973  Biso   1.000  C
  N7       1.0000 0.35292  0.05227  0.41648  Biso   1.000  N
  H177     1.0000 0.34744  0.07774  0.45086  Biso   1.000  H
  H178     1.0000 0.66295  0.16094  0.39736  Biso   1.000  H
  H179     1.0000 0.70216  0.14646  0.37597  Biso   1.000  H
  H180     1.0000 0.71383  0.13797  0.40528  Biso   1.000  H
  H181     1.0000 0.28464  0.77135  0.49346  Biso   1.000  H
  H182     1.0000 0.32513  0.73459  0.49806  Biso   1.000  H
  H183     1.0000 0.25735  0.69878  0.48297  Biso   1.000  H
  N8       1.0000 0.72695  0.10036  0.61880  Biso   1.000  N
  H184     1.0000 0.77401  0.05227  0.61377  Biso   1.000  H
  H185     1.0000 0.40524  0.87588  0.56438  Biso   1.000  H
  H186     1.0000 0.42544  0.82399  0.55847  Biso   1.000  H
  C180     1.0000 0.38872  0.81515  0.59306  Biso   1.000  C
  H187     1.0000 0.63591  0.20574  0.49777  Biso   1.000  H
  H188     1.0000 0.70206  0.23985  0.51417  Biso   1.000  H
  C181     1.0000 0.72086  0.23895  0.47466  Biso   1.000  C
  C182     1.0000 0.16033  0.84616  0.44064  Biso   1.000  C
  C183     1.0000 0.19232  0.79197  0.40903  Biso   1.000  C
  H189     1.0000 0.15906  0.69379  0.41596  Biso   1.000  H
  C184     1.0000 0.03413  0.79108  0.47619  Biso   1.000  C
  C185     1.0000 0.14375  0.82399  0.49888  Biso   1.000  C
  H190     1.0000 0.83902  0.50196  0.39736  Biso   1.000  H
  H191     1.0000 0.85354  0.55565  0.37597  Biso   1.000  H
  H192     1.0000 0.86205  0.57588  0.40528  Biso   1.000  H
  H193     1.0000 0.22864  0.51325  0.49346  Biso   1.000  H
  H194     1.0000 0.26544  0.59056  0.49806  Biso   1.000  H
  H195     1.0000 0.30124  0.55855  0.48297  Biso   1.000  H
  C186     1.0000 0.01293  0.73699  0.53985  Biso   1.000  C
  H196     1.0000 0.00025  0.49277  0.53767  Biso   1.000  H
  C187     1.0000 0.08414  0.58167  0.55133  Biso   1.000  C
  H197     1.0000 0.98391  0.51814  0.56318  Biso   1.000  H
  C188     1.0000 0.94505  0.62018  0.56854  Biso   1.000  C
  H198     1.0000 0.89064  0.46965  0.51837  Biso   1.000  H
  H199     1.0000 0.86901  0.50037  0.54067  Biso   1.000  H
  C189     1.0000 0.86042  0.53128  0.50596  Biso   1.000  C
  C190     1.0000 0.24751  0.72555  0.64973  Biso   1.000  C
  C191     1.0000 0.18504  0.66298  0.65169  Biso   1.000  C
  C192     1.0000 0.13182  0.54356  0.64692  Biso   1.000  C
  H200     1.0000 0.26183  0.47435  0.56267  Biso   1.000  H
  H201     1.0000 0.19465  0.45287  0.57707  Biso   1.000  H
  C193     1.0000 0.22714  0.38455  0.58226  Biso   1.000  C
  H202     1.0000 0.21283  0.41596  0.57907  Biso   1.000  H
  H203     1.0000 0.20516  0.36637  0.59846  Biso   1.000  H
  H204     1.0000 0.14485  0.40268  0.59078  Biso   1.000  H
  C194     1.0000 0.15044  0.31628  0.58807  Biso   1.000  C
  H205     1.0000 0.15400  0.47754  0.71896  Biso   1.000  H
  H206     1.0000 0.20723  0.45667  0.72506  Biso   1.000  H
  C195     1.0000 0.21734  0.53268  0.74757  Biso   1.000  C
  C196     1.0000 0.41613  0.81045  0.64840  Biso   1.000  C
  C197     1.0000 0.51644  0.75477  0.62478  Biso   1.000  C
  C198     1.0000 0.51122  0.73404  0.67317  Biso   1.000  C
  C199     1.0000 0.47793  0.81495  0.65169  Biso   1.000  C
  C200     1.0000 0.30872  0.07434  0.40746  Biso   1.000  C
  C201     1.0000 0.75238  0.11784  0.64555  Biso   1.000  C
  H207     1.0000 0.40535  0.83787  0.60938  Biso   1.000  H
  H208     1.0000 0.38881  0.77365  0.59337  Biso   1.000  H
  H209     1.0000 0.34402  0.80646  0.59047  Biso   1.000  H
  H210     1.0000 0.69839  0.20924  0.46057  Biso   1.000  H
  H211     1.0000 0.76435  0.24395  0.47687  Biso   1.000  H
  H212     1.0000 0.72530  0.28175  0.47116  Biso   1.000  H
  C202     1.0000 0.19322  0.84896  0.41733  Biso   1.000  C
  H213     1.0000 0.16153  0.88437  0.44706  Biso   1.000  H
  H214     1.0000 0.21512  0.79397  0.39397  Biso   1.000  H
  H215     1.0000 0.01242  0.78528  0.49286  Biso   1.000  H
  H216     1.0000 0.05345  0.83767  0.47137  Biso   1.000  H
  C203     1.0000 0.98245  0.75067  0.45697  Biso   1.000  C
  H217     1.0000 0.16125  0.86918  0.49257  Biso   1.000  H
  H218     1.0000 0.12173  0.82059  0.51527  Biso   1.000  H
  C204     1.0000 0.19982  0.81295  0.50362  Biso   1.000  C
  H219     1.0000 0.03072  0.77524  0.52977  Biso   1.000  H
  C205     1.0000 0.99024  0.73729  0.56532  Biso   1.000  C
  H220     1.0000 0.08725  0.62327  0.55677  Biso   1.000  H
  H221     1.0000 0.10365  0.59006  0.53416  Biso   1.000  H
  C206     1.0000 0.13852  0.57478  0.56987  Biso   1.000  C
  H222     1.0000 0.92025  0.58017  0.57746  Biso   1.000  H
  C207     1.0000 0.95602  0.67836  0.57926  Biso   1.000  C
  H223     1.0000 0.88682  0.54696  0.49026  Biso   1.000  H
  H224     1.0000 0.85542  0.56739  0.51306  Biso   1.000  H
  C208     1.0000 0.79021  0.46975  0.49986  Biso   1.000  C
  C209     1.0000 0.24524  0.76166  0.62478  Biso   1.000  C
  C210     1.0000 0.26591  0.77714  0.67317  Biso   1.000  C
  C211     1.0000 0.12265  0.65808  0.65349  Biso   1.000  C
  H225     1.0000 0.13494  0.50526  0.64478  Biso   1.000  H
  C212     1.0000 0.06959  0.53872  0.64872  Biso   1.000  C
  H226     1.0000 0.26951  0.38635  0.58216  Biso   1.000  H
  H227     1.0000 0.20005  0.35668  0.56836  Biso   1.000  H
  H228     1.0000 0.18561  0.30574  0.58797  Biso   1.000  H
  H229     1.0000 0.12764  0.30414  0.57167  Biso   1.000  H
  H230     1.0000 0.11942  0.29186  0.60167  Biso   1.000  H
  H231     1.0000 0.19184  0.50296  0.76137  Biso   1.000  H
  H232     1.0000 0.20655  0.56759  0.74616  Biso   1.000  H
  H233     1.0000 0.26411  0.55176  0.75117  Biso   1.000  H
  C213     1.0000 0.41173  0.86819  0.64692  Biso   1.000  C
  H234     1.0000 0.56296  0.78848  0.62716  Biso   1.000  H
  H235     1.0000 0.51455  0.71207  0.62306  Biso   1.000  H
  C214     1.0000 0.49344  0.76915  0.59997  Biso   1.000  C
  H236     1.0000 0.50863  0.70967  0.62296  Biso   1.000  H
  H237     1.0000 0.49124  0.76026  0.61096  Biso   1.000  H
  C215     1.0000 0.58275  0.79527  0.61756  Biso   1.000  C
  H238     1.0000 0.55331  0.77325  0.67756  Biso   1.000  H
  H239     1.0000 0.52096  0.69998  0.66736  Biso   1.000  H
  C216     1.0000 0.46544  0.70727  0.69945  Biso   1.000  C
  C217     1.0000 0.53544  0.87737  0.65349  Biso   1.000  C
  H240     1.0000 0.28833  0.08373  0.42237  Biso   1.000  H
  C218     1.0000 0.25351  0.01816  0.39091  Biso   1.000  C
  C219     1.0000 0.34699  0.13817  0.39086  Biso   1.000  C
  C220     1.0000 0.69195  0.09567  0.66272  Biso   1.000  C
  H241     1.0000 0.77471  0.09277  0.65027  Biso   1.000  H
  C221     1.0000 0.80004  0.18946  0.64809  Biso   1.000  C
  C222     1.0000 0.22654  0.91059  0.40253  Biso   1.000  C
  H242     1.0000 0.00161  0.76366  0.43977  Biso   1.000  H
  H243     1.0000 0.96944  0.70408  0.45937  Biso   1.000  H
  C223     1.0000 0.92093  0.75687  0.45827  Biso   1.000  C
  H244     1.0000 0.21685  0.80816  0.48707  Biso   1.000  H
  H245     1.0000 0.18342  0.77115  0.51297  Biso   1.000  H
  C224     1.0000 0.25845  0.86938  0.51928  Biso   1.000  C
  H246     1.0000 0.99826  0.77729  0.57278  Biso   1.000  H
  H247     1.0000 0.12413  0.52938  0.56438  Biso   1.000  H
  H248     1.0000 0.17603  0.60145  0.55847  Biso   1.000  H
  C225     1.0000 0.18485  0.57358  0.59306  Biso   1.000  C
  C226     1.0000 0.93512  0.68075  0.60605  Biso   1.000  C
  H249     1.0000 0.79424  0.43015  0.49777  Biso   1.000  H
  H250     1.0000 0.76012  0.46216  0.51417  Biso   1.000  H
  C227     1.0000 0.76103  0.48189  0.47466  Biso   1.000  C
  H251     1.0000 0.21154  0.77444  0.62716  Biso   1.000  H
  H252     1.0000 0.28791  0.80246  0.62306  Biso   1.000  H
  C228     1.0000 0.23082  0.72425  0.59997  Biso   1.000  C
  H253     1.0000 0.29032  0.79897  0.62296  Biso   1.000  H
  H254     1.0000 0.23974  0.73095  0.61096  Biso   1.000  H
  C229     1.0000 0.20473  0.78748  0.61756  Biso   1.000  C
  H255     1.0000 0.22673  0.78009  0.67756  Biso   1.000  H
  H256     1.0000 0.30003  0.82099  0.66736  Biso   1.000  H
  C230     1.0000 0.29275  0.75816  0.69945  Biso   1.000  C
  H257     1.0000 0.11966  0.69639  0.65567  Biso   1.000  H
  C231     1.0000 0.06503  0.59595  0.65201  Biso   1.000  C
  H258     1.0000 0.03095  0.49717  0.64778  Biso   1.000  H
  H259     1.0000 0.37035  0.86509  0.64478  Biso   1.000  H
  C232     1.0000 0.46914  0.93041  0.64872  Biso   1.000  C
  C233     1.0000 0.54356  0.78169  0.57887  Biso   1.000  C
  H260     1.0000 0.48823  0.80796  0.60196  Biso   1.000  H
  H261     1.0000 0.45032  0.73145  0.59527  Biso   1.000  H
  H262     1.0000 0.60964  0.78998  0.63067  Biso   1.000  H
  H263     1.0000 0.59215  0.84097  0.61867  Biso   1.000  H
  C234     1.0000 0.60783  0.78818  0.59258  Biso   1.000  C
  C235     1.0000 0.50534  0.70627  0.72276  Biso   1.000  C
  H264     1.0000 0.44706  0.73599  0.70327  Biso   1.000  H
  H265     1.0000 0.42834  0.66248  0.69647  Biso   1.000  H
  H266     1.0000 0.57673  0.88037  0.65567  Biso   1.000  H
  C236     1.0000 0.53093  0.93496  0.65201  Biso   1.000  C
  N9       1.0000 0.21605  0.95828  0.40708  Biso   1.000  N
  H267     1.0000 0.27367  0.00787  0.37626  Biso   1.000  H
  C237     1.0000 0.20648  0.04243  0.38099  Biso   1.000  C
  H268     1.0000 0.38129  0.17373  0.40127  Biso   1.000  H
  H269     1.0000 0.36862  0.12953  0.37648  Biso   1.000  H
  C238     1.0000 0.29945  0.15935  0.38077  Biso   1.000  C
  N10      1.0000 0.64741  0.02425  0.66117  Biso   1.000  N
  H270     1.0000 0.66786  0.11834  0.65716  Biso   1.000  H
  C239     1.0000 0.71586  0.11625  0.69076  Biso   1.000  C
  C240     1.0000 0.82144  0.21064  0.67569  Biso   1.000  C
  H271     1.0000 0.77978  0.21433  0.64127  Biso   1.000  H
  H272     1.0000 0.83924  0.20065  0.63767  Biso   1.000  H
  H273     1.0000 0.25625  0.91508  0.38946  Biso   1.000  H
  H274     1.0000 0.89654  0.74148  0.44207  Biso   1.000  H
  H275     1.0000 0.93384  0.80346  0.46036  Biso   1.000  H
  C241     1.0000 0.87464  0.71576  0.48097  Biso   1.000  C
  H276     1.0000 0.24126  0.88137  0.53416  Biso   1.000  H
  H277     1.0000 0.28823  0.85405  0.52537  Biso   1.000  H
  C242     1.0000 0.29582  0.92926  0.50166  Biso   1.000  C
  H278     1.0000 0.16212  0.56749  0.60938  Biso   1.000  H
  H279     1.0000 0.22632  0.61518  0.59337  Biso   1.000  H
  H280     1.0000 0.19353  0.53757  0.59047  Biso   1.000  H
  N11      1.0000 0.89963  0.62657  0.61880  Biso   1.000  N
  H281     1.0000 0.94775  0.72176  0.61377  Biso   1.000  H
  H282     1.0000 0.79076  0.48918  0.46057  Biso   1.000  H
  H283     1.0000 0.75604  0.52034  0.47687  Biso   1.000  H
  H284     1.0000 0.71822  0.44358  0.47116  Biso   1.000  H
  C243     1.0000 0.21835  0.76186  0.57887  Biso   1.000  C
  H285     1.0000 0.19204  0.68026  0.60196  Biso   1.000  H
  H286     1.0000 0.26852  0.71886  0.59527  Biso   1.000  H
  H287     1.0000 0.21000  0.81964  0.63067  Biso   1.000  H
  H288     1.0000 0.15903  0.75117  0.61867  Biso   1.000  H
  C244     1.0000 0.21182  0.81964  0.59258  Biso   1.000  C
  C245     1.0000 0.29374  0.79907  0.72276  Biso   1.000  C
  H289     1.0000 0.26402  0.71107  0.70327  Biso   1.000  H
  H290     1.0000 0.33751  0.76585  0.69647  Biso   1.000  H
  C246     1.0000 0.99525  0.58217  0.65500  Biso   1.000  C
  H291     1.0000 0.46624  0.96907  0.64778  Biso   1.000  H
  H292     1.0000 0.52565  0.78748  0.56267  Biso   1.000  H
  H293     1.0000 0.54714  0.74178  0.57707  Biso   1.000  H
  C247     1.0000 0.61544  0.84257  0.58226  Biso   1.000  C
  H294     1.0000 0.58402  0.79687  0.57907  Biso   1.000  H
  H295     1.0000 0.63365  0.83877  0.59846  Biso   1.000  H
  H296     1.0000 0.59734  0.74218  0.59078  Biso   1.000  H
  C248     1.0000 0.68373  0.83418  0.58807  Biso   1.000  C
  H297     1.0000 0.52243  0.67646  0.71896  Biso   1.000  H
  H298     1.0000 0.54332  0.75057  0.72506  Biso   1.000  H
  C249     1.0000 0.46732  0.68465  0.74757  Biso   1.000  C
  C250     1.0000 0.58687  0.00473  0.65500  Biso   1.000  C
  H299     1.0000 0.17163  0.00767  0.37048  Biso   1.000  H
  H300     1.0000 0.18540  0.05087  0.39556  Biso   1.000  H
  C251     1.0000 0.24446  0.10576  0.36502  Biso   1.000  C
  H301     1.0000 0.28023  0.17063  0.39527  Biso   1.000  H
  H302     1.0000 0.32380  0.19905  0.37017  Biso   1.000  H
  H303     1.0000 0.67747  0.10236  0.70197  Biso   1.000  H
  H304     1.0000 0.73934  0.09357  0.69647  Biso   1.000  H
  C252     1.0000 0.76024  0.18866  0.69326  Biso   1.000  C
  H305     1.0000 0.84960  0.25883  0.67646  Biso   1.000  H
  H306     1.0000 0.84737  0.19096  0.68176  Biso   1.000  H
  H307     1.0000 0.85492  0.66897  0.47726  Biso   1.000  H
  H308     1.0000 0.84001  0.72685  0.48306  Biso   1.000  H
  H309     1.0000 0.90033  0.72605  0.49657  Biso   1.000  H
  H310     1.0000 0.30732  0.91558  0.48587  Biso   1.000  H
  H311     1.0000 0.33594  0.96218  0.51016  Biso   1.000  H
  H312     1.0000 0.26811  0.94814  0.49787  Biso   1.000  H
  C253     1.0000 0.88213  0.63456  0.64555  Biso   1.000  C
  H313     1.0000 0.21253  0.73819  0.56267  Biso   1.000  H
  H314     1.0000 0.25822  0.80536  0.57707  Biso   1.000  H
  C254     1.0000 0.15741  0.77285  0.58226  Biso   1.000  C
  H315     1.0000 0.20316  0.78718  0.57907  Biso   1.000  H
  H316     1.0000 0.16124  0.79487  0.59846  Biso   1.000  H
  H317     1.0000 0.25782  0.85515  0.59078  Biso   1.000  H
  C255     1.0000 0.16584  0.84956  0.58807  Biso   1.000  C
  H318     1.0000 0.32355  0.84596  0.71896  Biso   1.000  H
  H319     1.0000 0.24942  0.79277  0.72506  Biso   1.000  H
  C256     1.0000 0.31535  0.78269  0.74757  Biso   1.000  C
  N12      1.0000 0.97574  0.62317  0.66117  Biso   1.000  N
  H320     1.0000 0.96172  0.53837  0.65198  Biso   1.000  H
  H321     1.0000 0.61364  0.88317  0.58216  Biso   1.000  H
  H322     1.0000 0.64334  0.84336  0.56836  Biso   1.000  H
  H323     1.0000 0.69425  0.87987  0.58797  Biso   1.000  H
  H324     1.0000 0.69586  0.82349  0.57167  Biso   1.000  H
  H325     1.0000 0.70816  0.82758  0.60167  Biso   1.000  H
  H326     1.0000 0.49701  0.68884  0.76137  Biso   1.000  H
  H327     1.0000 0.43245  0.63895  0.74616  Biso   1.000  H
  H328     1.0000 0.44822  0.71237  0.75117  Biso   1.000  H
  H329     1.0000 0.57660  0.03824  0.65198  Biso   1.000  H
  H330     1.0000 0.26302  0.09677  0.34977  Biso   1.000  H
  H331     1.0000 0.21402  0.12074  0.35937  Biso   1.000  H
  H332     1.0000 0.77454  0.20005  0.71107  Biso   1.000  H
  H333     1.0000 0.73661  0.21173  0.68827  Biso   1.000  H
  C257     1.0000 0.90433  0.59625  0.66272  Biso   1.000  C
  H334     1.0000 0.90721  0.68195  0.65027  Biso   1.000  H
  C258     1.0000 0.81055  0.61059  0.64809  Biso   1.000  C
  H335     1.0000 0.11683  0.73045  0.58216  Biso   1.000  H
  H336     1.0000 0.15665  0.79997  0.56836  Biso   1.000  H
  H337     1.0000 0.12012  0.81435  0.58797  Biso   1.000  H
  H338     1.0000 0.17656  0.87238  0.57167  Biso   1.000  H
  H339     1.0000 0.17243  0.88057  0.60167  Biso   1.000  H
  H340     1.0000 0.31113  0.80816  0.76137  Biso   1.000  H
  H341     1.0000 0.36105  0.79347  0.74616  Biso   1.000  H
  H342     1.0000 0.28763  0.73589  0.75117  Biso   1.000  H
  H343     1.0000 0.88162  0.54946  0.65716  Biso   1.000  H
  C259     1.0000 0.88375  0.59955  0.69076  Biso   1.000  C
  C260     1.0000 0.78933  0.61079  0.67569  Biso   1.000  C
  H344     1.0000 0.78566  0.56549  0.64127  Biso   1.000  H
  H345     1.0000 0.79932  0.63855  0.63767  Biso   1.000  H
  H346     1.0000 0.89763  0.57508  0.70197  Biso   1.000  H
  H347     1.0000 0.90641  0.64575  0.69647  Biso   1.000  H
  C261     1.0000 0.81133  0.57158  0.69326  Biso   1.000  C
  H348     1.0000 0.74112  0.59076  0.67646  Biso   1.000  H
  H349     1.0000 0.80905  0.65638  0.68176  Biso   1.000  H
  H350     1.0000 0.79993  0.57448  0.71107  Biso   1.000  H
  H351     1.0000 0.78824  0.52489  0.68827  Biso   1.000  H
  C262     1.0000 0.11861  0.65209  0.72597  Biso   1.000  C
  C263     1.0000 0.10233  0.70602  0.72496  Biso   1.000  C
  H352     1.0000 0.16471  0.67042  0.73069  Biso   1.000  H
  H353     1.0000 0.11099  0.63121  0.70931  Biso   1.000  H
  H354     1.0000 0.09080  0.61948  0.73861  Biso   1.000  H
  H355     1.0000 0.05691  0.68750  0.71860  Biso   1.000  H
  H356     1.0000 0.13171  0.73909  0.71250  Biso   1.000  H
  C264     1.0000 0.10819  0.74058  0.75059  Biso   1.000  C
  C265     1.0000 0.09741  0.79912  0.74906  Biso   1.000  C
  H357     1.0000 0.07580  0.70832  0.76259  Biso   1.000  H
  H358     1.0000 0.15230  0.75562  0.75769  Biso   1.000  H
  C266     1.0000 0.10562  0.83622  0.77451  Biso   1.000  C
  H359     1.0000 0.05271  0.78368  0.74250  Biso   1.000  H
  H360     1.0000 0.12857  0.83048  0.73660  Biso   1.000  H
  C267     1.0000 0.17571  0.85980  0.78516  Biso   1.000  C
  C268     1.0000 0.06139  0.78728  0.79627  Biso   1.000  C
  C269     1.0000 0.09400  0.89540  0.77254  Biso   1.000  C
  C270     1.0000 0.23421  0.90240  0.77345  Biso   1.000  C
  C271     1.0000 0.17132  0.83612  0.81082  Biso   1.000  C
  C272     1.0000 0.10228  0.78828  0.81768  Biso   1.000  C
  C273     1.0000 0.99388  0.74438  0.79669  Biso   1.000  C
  H361     1.0000 0.12352  0.92522  0.75930  Biso   1.000  H
  H362     1.0000 0.04860  0.87882  0.76660  Biso   1.000  H
  C274     1.0000 0.10401  0.93541  0.79642  Biso   1.000  C
  C275     1.0000 0.29463  0.92402  0.78618  Biso   1.000  C
  H363     1.0000 0.23387  0.91738  0.75680  Biso   1.000  H
  C276     1.0000 0.23288  0.85640  0.82338  Biso   1.000  C
  C277     1.0000 0.07250  0.74618  0.83875  Biso   1.000  C
  C278     1.0000 0.93849  0.72980  0.77838  Biso   1.000  C
  C279     1.0000 0.96368  0.69748  0.81804  Biso   1.000  C
  H364     1.0000 0.07011  0.90749  0.80891  Biso   1.000  H
  H365     1.0000 0.14709  0.94709  0.80380  Biso   1.000  H
  C280     1.0000 0.10119  0.99758  0.79300  Biso   1.000  C
  C281     1.0000 0.35900  0.96712  0.77384  Biso   1.000  C
  C282     1.0000 0.29110  0.90010  0.81167  Biso   1.000  C
  H366     1.0000 0.23349  0.83972  0.83970  Biso   1.000  H
  C283     1.0000 0.00351  0.69998  0.83869  Biso   1.000  C
  C284     1.0000 0.10598  0.73859  0.86322  Biso   1.000  C
  C285     1.0000 0.87949  0.67261  0.78721  Biso   1.000  C
  C286     1.0000 0.93531  0.76071  0.75555  Biso   1.000  C
  C287     1.0000 0.89049  0.64859  0.81301  Biso   1.000  C
  H367     1.0000 0.05851  0.98670  0.78551  Biso   1.000  H
  H368     1.0000 0.13590  0.02670  0.78100  Biso   1.000  H
  C288     1.0000 0.11061  0.03649  0.81949  Biso   1.000  C
  N13      1.0000 0.36599  0.98040  0.74982  Biso   1.000  N
  H369     1.0000 0.39702  0.98590  0.78419  Biso   1.000  H
  H370     1.0000 0.33069  0.91518  0.82091  Biso   1.000  H
  C289     1.0000 0.98698  0.66208  0.86366  Biso   1.000  C
  C290     1.0000 0.04620  0.68390  0.87717  Biso   1.000  C
  C291     1.0000 0.13428  0.80661  0.87977  Biso   1.000  C
  C292     1.0000 0.15613  0.71621  0.85784  Biso   1.000  C
  C293     1.0000 0.82048  0.64749  0.77397  Biso   1.000  C
  C294     1.0000 0.87470  0.73369  0.74236  Biso   1.000  C
  H371     1.0000 0.97290  0.79862  0.74929  Biso   1.000  H
  C295     1.0000 0.87558  0.57638  0.80953  Biso   1.000  C
  C296     1.0000 0.84270  0.65309  0.83221  Biso   1.000  C
  H372     1.0000 0.15342  0.04867  0.82679  Biso   1.000  H
  H373     1.0000 0.07608  0.00817  0.83140  Biso   1.000  H
  H374     1.0000 0.10808  0.07599  0.81630  Biso   1.000  H
  C297     1.0000 0.43233  0.02460  0.74080  Biso   1.000  C
  C298     1.0000 0.92970  0.60929  0.87319  Biso   1.000  C
  C299     1.0000 0.04649  0.65818  0.90187  Biso   1.000  C
  H375     1.0000 0.14849  0.79912  0.89651  Biso   1.000  H
  H376     1.0000 0.17392  0.84082  0.87100  Biso   1.000  H
  C300     1.0000 0.08501  0.83582  0.88466  Biso   1.000  C
  H377     1.0000 0.19702  0.75432  0.85170  Biso   1.000  H
  H378     1.0000 0.16631  0.70198  0.87400  Biso   1.000  H
  C301     1.0000 0.13540  0.66248  0.83929  Biso   1.000  C
  C302     1.0000 0.81772  0.67761  0.75067  Biso   1.000  C
  H379     1.0000 0.78230  0.61049  0.78040  Biso   1.000  H
  H380     1.0000 0.87270  0.75452  0.72731  Biso   1.000  H
  H381     1.0000 0.88139  0.56049  0.82619  Biso   1.000  H
  H382     1.0000 0.82899  0.54911  0.80471  Biso   1.000  H
  C303     1.0000 0.91599  0.56509  0.79031  Biso   1.000  C
  H383     1.0000 0.79751  0.62542  0.82590  Biso   1.000  H
  H384     1.0000 0.84612  0.63451  0.84860  Biso   1.000  H
  C304     1.0000 0.85372  0.72021  0.83695  Biso   1.000  C
  C305     1.0000 0.45781  0.98630  0.72419  Biso   1.000  C
  H385     1.0000 0.46207  0.04498  0.75570  Biso   1.000  H
  C306     1.0000 0.43133  0.07979  0.72425  Biso   1.000  C
  C307     1.0000 0.92942  0.58631  0.89866  Biso   1.000  C
  H386     1.0000 0.89140  0.58881  0.86310  Biso   1.000  H
  H387     1.0000 0.08650  0.67341  0.91079  Biso   1.000  H
  C308     1.0000 0.98829  0.61099  0.91259  Biso   1.000  C
  H388     1.0000 0.04340  0.79732  0.89010  Biso   1.000  H
  H389     1.0000 0.07658  0.84691  0.86750  Biso   1.000  H
  C309     1.0000 0.09191  0.89710  0.90321  Biso   1.000  C
  H390     1.0000 0.11970  0.67321  0.82360  Biso   1.000  H
  H391     1.0000 0.09930  0.62142  0.84640  Biso   1.000  H
  C310     1.0000 0.19688  0.65379  0.83320  Biso   1.000  C
  C311     1.0000 0.75611  0.64929  0.73586  Biso   1.000  C
  H392     1.0000 0.96260  0.59870  0.79271  Biso   1.000  H
  H393     1.0000 0.90300  0.57128  0.77310  Biso   1.000  H
  C312     1.0000 0.90980  0.49742  0.79160  Biso   1.000  C
  H394     1.0000 0.85847  0.74198  0.82040  Biso   1.000  H
  H395     1.0000 0.89547  0.74558  0.84630  Biso   1.000  H
  C313     1.0000 0.79730  0.72241  0.85261  Biso   1.000  C
  H396     1.0000 0.45908  0.95199  0.73460  Biso   1.000  H
  H397     1.0000 0.42761  0.96472  0.70981  Biso   1.000  H
  C314     1.0000 0.52663  0.03389  0.71411  Biso   1.000  C
  N14      1.0000 0.40891  0.11729  0.74041  Biso   1.000  N
  H398     1.0000 0.40086  0.05966  0.70960  Biso   1.000  H
  C315     1.0000 0.50262  0.12678  0.71432  Biso   1.000  C
  H399     1.0000 0.88941  0.55430  0.90611  Biso   1.000  H
  C316     1.0000 0.98591  0.58771  0.93938  Biso   1.000  C
  H400     1.0000 0.13730  0.92812  0.89771  Biso   1.000  H
  H401     1.0000 0.06521  0.90789  0.89181  Biso   1.000  H
  C317     1.0000 0.09312  0.94460  0.92639  Biso   1.000  C
  H402     1.0000 0.23650  0.69738  0.83111  Biso   1.000  H
  H403     1.0000 0.20450  0.63131  0.84750  Biso   1.000  H
  C318     1.0000 0.18479  0.61248  0.80800  Biso   1.000  C
  N15      1.0000 0.70843  0.59111  0.74041  Biso   1.000  N
  H404     1.0000 0.75160  0.67451  0.72280  Biso   1.000  H
  H405     1.0000 0.92517  0.48838  0.77540  Biso   1.000  H
  H406     1.0000 0.86318  0.46371  0.79369  Biso   1.000  H
  C319     1.0000 0.95093  0.49222  0.81431  Biso   1.000  C
  H407     1.0000 0.78529  0.69319  0.86750  Biso   1.000  H
  H408     1.0000 0.81258  0.76750  0.85871  Biso   1.000  H
  C320     1.0000 0.73738  0.69988  0.83500  Biso   1.000  C
  H409     1.0000 0.55711  0.05307  0.72860  Biso   1.000  H
  H410     1.0000 0.54189  0.00947  0.70350  Biso   1.000  H
  C321     1.0000 0.52796  0.08888  0.69835  Biso   1.000  C
  C322     1.0000 0.35071  0.10676  0.73586  Biso   1.000  C
  H411     1.0000 0.50274  0.16169  0.70381  Biso   1.000  H
  H412     1.0000 0.53206  0.14786  0.72889  Biso   1.000  H
  N16      1.0000 0.04010  0.60639  0.95213  Biso   1.000  N
  H413     1.0000 0.94489  0.55930  0.94710  Biso   1.000  H
  H414     1.0000 0.09919  0.92802  0.94271  Biso   1.000  H
  H415     1.0000 0.05151  0.94450  0.92670  Biso   1.000  H
  H416     1.0000 0.12909  0.98929  0.92380  Biso   1.000  H
  H417     1.0000 0.17749  0.63491  0.79391  Biso   1.000  H
  H418     1.0000 0.14631  0.56899  0.81020  Biso   1.000  H
  H419     1.0000 0.22312  0.60799  0.80449  Biso   1.000  H
  C323     1.0000 0.64851  0.56869  0.72425  Biso   1.000  C
  H420     1.0000 0.99768  0.51929  0.81059  Biso   1.000  H
  H421     1.0000 0.93977  0.44648  0.81640  Biso   1.000  H
  H422     1.0000 0.94062  0.50761  0.82991  Biso   1.000  H
  H423     1.0000 0.75112  0.72510  0.81920  Biso   1.000  H
  H424     1.0000 0.70450  0.70712  0.84349  Biso   1.000  H
  H425     1.0000 0.71849  0.65329  0.83120  Biso   1.000  H
  H426     1.0000 0.50042  0.07030  0.68310  Biso   1.000  H
  H427     1.0000 0.57340  0.11929  0.69270  Biso   1.000  H
  C324     1.0000 0.32238  0.14007  0.75067  Biso   1.000  C
  H428     1.0000 0.32549  0.07709  0.72280  Biso   1.000  H
  C325     1.0000 0.03212  0.58092  0.97888  Biso   1.000  C
  C326     1.0000 0.59231  0.56769  0.74080  Biso   1.000  C
  H429     1.0000 0.65879  0.59910  0.70960  Biso   1.000  H
  C327     1.0000 0.62421  0.49742  0.71432  Biso   1.000  C
  C328     1.0000 0.35250  0.17298  0.77397  Biso   1.000  C
  C329     1.0000 0.26626  0.14097  0.74236  Biso   1.000  C
  C330     1.0000 0.07041  0.64140  0.99605  Biso   1.000  C
  C331     1.0000 0.05609  0.53328  0.98142  Biso   1.000  C
  H430     1.0000 0.98472  0.55860  0.98361  Biso   1.000  H
  N17      1.0000 0.61440  0.63401  0.74982  Biso   1.000  N
  H431     1.0000 0.58292  0.53792  0.75570  Biso   1.000  H
  C332     1.0000 0.52849  0.54222  0.72419  Biso   1.000  C
  H432     1.0000 0.65902  0.49732  0.70381  Biso   1.000  H
  H433     1.0000 0.61581  0.46790  0.72889  Biso   1.000  H
  C333     1.0000 0.56090  0.47200  0.69835  Biso   1.000  C
  C334     1.0000 0.32738  0.20689  0.78721  Biso   1.000  C
  H434     1.0000 0.38953  0.17178  0.78040  Biso   1.000  H
  H435     1.0000 0.24553  0.11819  0.72731  Biso   1.000  H
  C335     1.0000 0.23929  0.17458  0.75555  Biso   1.000  C
  N18      1.0000 0.04348  0.68590  0.99450  Biso   1.000  N
  H436     1.0000 0.11720  0.66552  0.99050  Biso   1.000  H
  C336     1.0000 0.06710  0.61748  0.02410  Biso   1.000  C
  H437     1.0000 0.10120  0.55350  0.97461  Biso   1.000  H
  H438     1.0000 0.02813  0.49412  0.97101  Biso   1.000  H
  C337     1.0000 0.05592  0.51190  0.00902  Biso   1.000  C
  C338     1.0000 0.60812  0.64100  0.77384  Biso   1.000  C
  H439     1.0000 0.49290  0.54092  0.73460  Biso   1.000  H
  H440     1.0000 0.53709  0.57238  0.70981  Biso   1.000  H
  C339     1.0000 0.50732  0.47340  0.71411  Biso   1.000  C
  H441     1.0000 0.56991  0.49962  0.68310  Biso   1.000  H
  H442     1.0000 0.54590  0.42660  0.69270  Biso   1.000  H
  C340     1.0000 0.27019  0.20869  0.77838  Biso   1.000  C
  C341     1.0000 0.35141  0.24190  0.81301  Biso   1.000  C
  H443     1.0000 0.20143  0.17428  0.74929  Biso   1.000  H
  C342     1.0000 0.08449  0.74638  0.98833  Biso   1.000  C
  H444     1.0000 0.09158  0.65588  0.03530  Biso   1.000  H
  H445     1.0000 0.02089  0.59401  0.02981  Biso   1.000  H
  C343     1.0000 0.09507  0.57308  0.02659  Biso   1.000  C
  H446     1.0000 0.07589  0.48368  0.00979  Biso   1.000  H
  H447     1.0000 0.01030  0.48598  0.01510  Biso   1.000  H
  C344     1.0000 0.62941  0.70538  0.78618  Biso   1.000  C
  H448     1.0000 0.58890  0.60300  0.78419  Biso   1.000  H
  H449     1.0000 0.49600  0.44288  0.72860  Biso   1.000  H
  H450     1.0000 0.46763  0.45811  0.70350  Biso   1.000  H
  C345     1.0000 0.25556  0.24949  0.79669  Biso   1.000  C
  C346     1.0000 0.30248  0.26617  0.81804  Biso   1.000  C
  C347     1.0000 0.42356  0.29918  0.80953  Biso   1.000  C
  C348     1.0000 0.34691  0.18956  0.83221  Biso   1.000  C
  H451     1.0000 0.12833  0.75672  0.98531  Biso   1.000  H
  C349     1.0000 0.07073  0.80241  0.98535  Biso   1.000  C
  H452     1.0000 0.09221  0.55880  0.04440  Biso   1.000  H
  H453     1.0000 0.14178  0.59670  0.02160  Biso   1.000  H
  C350     1.0000 0.66818  0.76581  0.77345  Biso   1.000  C
  C351     1.0000 0.60899  0.70892  0.81167  Biso   1.000  C
  C352     1.0000 0.21265  0.27406  0.79627  Biso   1.000  C
  C353     1.0000 0.29998  0.30348  0.83869  Biso   1.000  C
  H454     1.0000 0.43949  0.32091  0.82619  Biso   1.000  H
  H455     1.0000 0.45086  0.27990  0.80471  Biso   1.000  H
  C354     1.0000 0.43492  0.35087  0.79031  Biso   1.000  C
  H456     1.0000 0.37463  0.17208  0.82590  Biso   1.000  H
  H457     1.0000 0.36549  0.21158  0.84860  Biso   1.000  H
  C355     1.0000 0.27977  0.13348  0.83695  Biso   1.000  C
  C356     1.0000 0.00862  0.79792  0.98682  Biso   1.000  C
  C357     1.0000 0.12796  0.86419  0.98206  Biso   1.000  C
  H458     1.0000 0.68352  0.76610  0.75680  Biso   1.000  H
  C358     1.0000 0.68410  0.82429  0.78516  Biso   1.000  C
  H459     1.0000 0.58452  0.66932  0.82091  Biso   1.000  H
  C359     1.0000 0.62351  0.76710  0.82338  Biso   1.000  C
  C360     1.0000 0.16381  0.26937  0.77451  Biso   1.000  C
  C361     1.0000 0.21167  0.31396  0.81768  Biso   1.000  C
  C362     1.0000 0.33794  0.32490  0.86366  Biso   1.000  C
  C363     1.0000 0.25383  0.32630  0.83875  Biso   1.000  C
  H460     1.0000 0.40130  0.36391  0.79271  Biso   1.000  H
  H461     1.0000 0.42866  0.33169  0.77310  Biso   1.000  H
  C364     1.0000 0.50262  0.41240  0.79160  Biso   1.000  C
  H462     1.0000 0.25800  0.11650  0.82040  Biso   1.000  H
  H463     1.0000 0.25438  0.14991  0.84630  Biso   1.000  H
  C365     1.0000 0.27760  0.07489  0.85261  Biso   1.000  C
  C366     1.0000 0.00371  0.85540  0.98502  Biso   1.000  C
  H464     1.0000 0.97032  0.75662  0.98901  Biso   1.000  H
  C367     1.0000 0.12308  0.92157  0.98026  Biso   1.000  C
  H465     1.0000 0.16950  0.86709  0.98111  Biso   1.000  H
  C368     1.0000 0.66481  0.82868  0.81082  Biso   1.000  C
  C369     1.0000 0.73058  0.89440  0.77451  Biso   1.000  C
  H466     1.0000 0.60621  0.76650  0.83970  Biso   1.000  H
  C370     1.0000 0.14022  0.31586  0.78516  Biso   1.000  C
  C371     1.0000 0.20089  0.29828  0.74906  Biso   1.000  C
  C372     1.0000 0.10460  0.19860  0.77254  Biso   1.000  C
  C373     1.0000 0.16390  0.33519  0.81082  Biso   1.000  C
  C374     1.0000 0.31605  0.36226  0.87717  Biso   1.000  C
  C375     1.0000 0.39068  0.32036  0.87319  Biso   1.000  C
  C376     1.0000 0.26140  0.36740  0.86322  Biso   1.000  C
  H467     1.0000 0.51156  0.43677  0.77540  Biso   1.000  H
  H468     1.0000 0.53624  0.39946  0.79369  Biso   1.000  H
  C377     1.0000 0.50782  0.45870  0.81431  Biso   1.000  C
  H469     1.0000 0.30677  0.09207  0.86750  Biso   1.000  H
  H470     1.0000 0.23246  0.04508  0.85871  Biso   1.000  H
  C378     1.0000 0.30007  0.03749  0.83500  Biso   1.000  C
  C379     1.0000 0.06099  0.91718  0.98173  Biso   1.000  C
  C380     1.0000 0.94108  0.85530  0.98306  Biso   1.000  C
  H471     1.0000 0.16141  0.96302  0.97811  Biso   1.000  H
  C381     1.0000 0.68599  0.89770  0.81768  Biso   1.000  C
  C382     1.0000 0.72591  0.93860  0.79627  Biso   1.000  C
  C383     1.0000 0.70168  0.90260  0.74906  Biso   1.000  C
  C384     1.0000 0.80138  0.90599  0.77254  Biso   1.000  C
  C385     1.0000 0.09763  0.33179  0.77345  Biso   1.000  C
  H472     1.0000 0.21629  0.26897  0.74250  Biso   1.000  H
  H473     1.0000 0.16948  0.29808  0.73660  Biso   1.000  H
  C386     1.0000 0.25942  0.36760  0.75059  Biso   1.000  C
  H474     1.0000 0.07482  0.19830  0.75930  Biso   1.000  H
  H475     1.0000 0.12116  0.16978  0.76660  Biso   1.000  H
  C387     1.0000 0.06463  0.16858  0.79642  Biso   1.000  C
  C388     1.0000 0.14363  0.37649  0.82338  Biso   1.000  C
  C389     1.0000 0.34182  0.38828  0.90187  Biso   1.000  C
  C390     1.0000 0.41368  0.34308  0.89866  Biso   1.000  C
  H476     1.0000 0.41120  0.30258  0.86310  Biso   1.000  H
  C391     1.0000 0.19341  0.32770  0.87977  Biso   1.000  C
  C392     1.0000 0.28375  0.43987  0.85784  Biso   1.000  C
  H477     1.0000 0.48072  0.47837  0.81059  Biso   1.000  H
  H478     1.0000 0.55354  0.49330  0.81640  Biso   1.000  H
  H479     1.0000 0.49241  0.43298  0.82991  Biso   1.000  H
  H480     1.0000 0.29291  0.99738  0.84349  Biso   1.000  H
  H481     1.0000 0.27491  0.02600  0.81920  Biso   1.000  H
  H482     1.0000 0.34671  0.06521  0.83120  Biso   1.000  H
  C393     1.0000 0.04190  0.97451  0.98214  Biso   1.000  C
  C394     1.0000 0.97330  0.93211  0.98188  Biso   1.000  C
  C395     1.0000 0.90501  0.81690  0.95812  Biso   1.000  C
  C396     1.0000 0.88948  0.82209  0.00650  Biso   1.000  C
  C397     1.0000 0.67370  0.92752  0.83875  Biso   1.000  C
  C398     1.0000 0.75052  0.00607  0.79669  Biso   1.000  C
  H483     1.0000 0.73099  0.94729  0.74250  Biso   1.000  H
  H484     1.0000 0.70190  0.87138  0.73660  Biso   1.000  H
  C399     1.0000 0.63240  0.89181  0.75059  Biso   1.000  C
  H485     1.0000 0.80167  0.87648  0.75930  Biso   1.000  H
  H486     1.0000 0.83018  0.95139  0.76660  Biso   1.000  H
  C400     1.0000 0.83142  0.89600  0.79642  Biso   1.000  C
  C401     1.0000 0.07598  0.37060  0.78618  Biso   1.000  C
  H487     1.0000 0.08261  0.31646  0.75680  Biso   1.000  H
  C402     1.0000 0.29396  0.39627  0.72496  Biso   1.000  C
  H488     1.0000 0.29168  0.36750  0.76259  Biso   1.000  H
  H489     1.0000 0.24442  0.39667  0.75769  Biso   1.000  H
  H490     1.0000 0.09248  0.16259  0.80891  Biso   1.000  H
  H491     1.0000 0.05292  0.20000  0.80380  Biso   1.000  H
  C403     1.0000 0.00237  0.10356  0.79300  Biso   1.000  C
  C404     1.0000 0.09988  0.39097  0.81167  Biso   1.000  C
  H492     1.0000 0.16032  0.39377  0.83970  Biso   1.000  H
  H493     1.0000 0.32663  0.41310  0.91079  Biso   1.000  H
  C405     1.0000 0.38900  0.37729  0.91259  Biso   1.000  C
  H494     1.0000 0.44567  0.33509  0.90611  Biso   1.000  H
  H495     1.0000 0.20092  0.34937  0.89651  Biso   1.000  H
  H496     1.0000 0.15922  0.33309  0.87100  Biso   1.000  H
  C406     1.0000 0.16419  0.24919  0.88466  Biso   1.000  C
  H497     1.0000 0.24566  0.44266  0.85170  Biso   1.000  H
  H498     1.0000 0.29804  0.46429  0.87400  Biso   1.000  H
  C407     1.0000 0.33745  0.47288  0.83929  Biso   1.000  C
  C408     1.0000 0.06793  0.04118  0.98188  Biso   1.000  C
  C409     1.0000 0.93261  0.95808  0.98214  Biso   1.000  C
  H499     1.0000 0.89218  0.77040  0.96050  Biso   1.000  H
  H500     1.0000 0.86418  0.81879  0.95639  Biso   1.000  H
  C410     1.0000 0.94243  0.83992  0.93330  Biso   1.000  C
  H501     1.0000 0.86769  0.82469  0.95630  Biso   1.000  H
  H502     1.0000 0.93570  0.84212  0.94430  Biso   1.000  H
  C411     1.0000 0.87923  0.75062  0.95090  Biso   1.000  C
  H503     1.0000 0.88660  0.77999  0.01090  Biso   1.000  H
  H504     1.0000 0.84571  0.81240  0.00070  Biso   1.000  H
  C412     1.0000 0.90849  0.86789  0.03279  Biso   1.000  C
  C413     1.0000 0.69650  0.99649  0.83869  Biso   1.000  C
  C414     1.0000 0.63259  0.89401  0.86322  Biso   1.000  C
  C415     1.0000 0.79132  0.06146  0.77838  Biso   1.000  C
  C416     1.0000 0.73384  0.03629  0.81804  Biso   1.000  C
  C417     1.0000 0.60369  0.89770  0.72496  Biso   1.000  C
  H505     1.0000 0.63252  0.92422  0.76259  Biso   1.000  H
  H506     1.0000 0.60330  0.84771  0.75769  Biso   1.000  H
  H507     1.0000 0.83739  0.92991  0.80891  Biso   1.000  H
  H508     1.0000 0.80001  0.85290  0.80380  Biso   1.000  H
  C418     1.0000 0.89640  0.89880  0.79300  Biso   1.000  C
  C419     1.0000 0.03286  0.39187  0.77384  Biso   1.000  C
  H509     1.0000 0.31253  0.36940  0.71860  Biso   1.000  H
  H510     1.0000 0.26092  0.39257  0.71250  Biso   1.000  H
  C420     1.0000 0.34792  0.46649  0.72597  Biso   1.000  C
  H511     1.0000 0.97327  0.10920  0.78100  Biso   1.000  H
  C421     1.0000 0.96350  0.07409  0.81949  Biso   1.000  C
  H512     1.0000 0.01326  0.07180  0.78551  Biso   1.000  H
  H513     1.0000 0.08481  0.41550  0.82091  Biso   1.000  H
  C422     1.0000 0.41229  0.39817  0.93938  Biso   1.000  C
  H514     1.0000 0.20269  0.24609  0.89010  Biso   1.000  H
  H515     1.0000 0.15304  0.22966  0.86750  Biso   1.000  H
  C423     1.0000 0.10287  0.19480  0.90321  Biso   1.000  C
  H516     1.0000 0.32679  0.44646  0.82360  Biso   1.000  H
  H517     1.0000 0.37857  0.47787  0.84640  Biso   1.000  H
  C424     1.0000 0.34618  0.54310  0.83320  Biso   1.000  C
  C425     1.0000 0.02546  0.06740  0.98214  Biso   1.000  C
  C426     1.0000 0.14468  0.08578  0.98306  Biso   1.000  C
  C427     1.0000 0.85621  0.93900  0.98173  Biso   1.000  C
  C428     1.0000 0.95879  0.02670  0.98188  Biso   1.000  C
  C429     1.0000 0.90477  0.78978  0.91221  Biso   1.000  C
  H518     1.0000 0.98642  0.84511  0.93530  Biso   1.000  H
  H519     1.0000 0.94780  0.88302  0.92860  Biso   1.000  H
  H520     1.0000 0.84700  0.72370  0.96400  Biso   1.000  H
  H521     1.0000 0.91551  0.74118  0.95200  Biso   1.000  H
  C430     1.0000 0.84699  0.72550  0.92591  Biso   1.000  C
  C431     1.0000 0.86760  0.82798  0.05609  Biso   1.000  C
  H522     1.0000 0.95559  0.88631  0.03660  Biso   1.000  H
  H523     1.0000 0.90079  0.90499  0.02981  Biso   1.000  H
  C432     1.0000 0.67507  0.01297  0.86366  Biso   1.000  C
  C433     1.0000 0.63770  0.95379  0.87717  Biso   1.000  C
  C434     1.0000 0.67228  0.86569  0.87977  Biso   1.000  C
  C435     1.0000 0.56010  0.84391  0.85784  Biso   1.000  C
  C436     1.0000 0.79306  0.12049  0.78721  Biso   1.000  C
  C437     1.0000 0.82538  0.06471  0.75555  Biso   1.000  C
  C438     1.0000 0.75812  0.10950  0.81301  Biso   1.000  C
  H524     1.0000 0.63058  0.94310  0.71860  Biso   1.000  H
  H525     1.0000 0.60741  0.86829  0.71250  Biso   1.000  H
  C439     1.0000 0.53353  0.88142  0.72597  Biso   1.000  C
  H526     1.0000 0.92821  0.94150  0.78551  Biso   1.000  H
  H527     1.0000 0.89081  0.86409  0.78100  Biso   1.000  H
  C440     1.0000 0.92591  0.88941  0.81949  Biso   1.000  C
  N19      1.0000 0.01955  0.38558  0.74982  Biso   1.000  N
  H528     1.0000 0.01406  0.41110  0.78419  Biso   1.000  H
  H529     1.0000 0.32957  0.49430  0.73069  Biso   1.000  H
  H530     1.0000 0.36875  0.47977  0.70931  Biso   1.000  H
  H531     1.0000 0.38051  0.47128  0.73861  Biso   1.000  H
  H532     1.0000 0.95132  0.10466  0.82679  Biso   1.000  H
  H533     1.0000 0.99176  0.06790  0.83140  Biso   1.000  H
  H534     1.0000 0.92403  0.03209  0.81630  Biso   1.000  H
  N20      1.0000 0.39362  0.43367  0.95213  Biso   1.000  N
  H535     1.0000 0.44068  0.38558  0.94710  Biso   1.000  H
  H536     1.0000 0.07192  0.20919  0.89771  Biso   1.000  H
  H537     1.0000 0.09212  0.15730  0.89181  Biso   1.000  H
  C441     1.0000 0.05539  0.14846  0.92639  Biso   1.000  C
  H538     1.0000 0.30262  0.53910  0.83111  Biso   1.000  H
  H539     1.0000 0.36869  0.57316  0.84750  Biso   1.000  H
  C442     1.0000 0.38749  0.57226  0.80800  Biso   1.000  C
  C443     1.0000 0.08276  0.14376  0.98173  Biso   1.000  C
  C444     1.0000 0.18311  0.08808  0.95812  Biso   1.000  C
  C445     1.0000 0.14461  0.14826  0.98502  Biso   1.000  C
  C446     1.0000 0.17792  0.06740  0.00650  Biso   1.000  C
  C447     1.0000 0.85167  0.99629  0.98502  Biso   1.000  C
  C448     1.0000 0.79846  0.87688  0.98026  Biso   1.000  C
  C449     1.0000 0.91415  0.05886  0.98306  Biso   1.000  C
  H540     1.0000 0.92848  0.80771  0.89601  Biso   1.000  H
  H541     1.0000 0.86128  0.78618  0.91041  Biso   1.000  H
  C450     1.0000 0.89379  0.71791  0.91559  Biso   1.000  C
  H542     1.0000 0.87953  0.74932  0.91240  Biso   1.000  H
  H543     1.0000 0.87179  0.69968  0.93179  Biso   1.000  H
  H544     1.0000 0.81149  0.73599  0.92411  Biso   1.000  H
  C451     1.0000 0.81708  0.64959  0.92140  Biso   1.000  C
  H545     1.0000 0.82070  0.81090  0.05230  Biso   1.000  H
  H546     1.0000 0.87390  0.78998  0.05839  Biso   1.000  H
  C452     1.0000 0.88401  0.86599  0.08090  Biso   1.000  C
  C453     1.0000 0.67956  0.07030  0.87319  Biso   1.000  C
  C454     1.0000 0.61169  0.95349  0.90187  Biso   1.000  C
  H547     1.0000 0.65061  0.85150  0.89651  Biso   1.000  H
  H548     1.0000 0.66688  0.82608  0.87100  Biso   1.000  H
  C455     1.0000 0.75077  0.91498  0.88466  Biso   1.000  C
  H549     1.0000 0.55729  0.80301  0.85170  Biso   1.000  H
  H550     1.0000 0.53569  0.83368  0.87400  Biso   1.000  H
  C456     1.0000 0.52710  0.86459  0.83929  Biso   1.000  C
  C457     1.0000 0.82697  0.17947  0.77397  Biso   1.000  C
  C458     1.0000 0.85895  0.12528  0.74236  Biso   1.000  C
  H551     1.0000 0.82573  0.02710  0.74929  Biso   1.000  H
  C459     1.0000 0.70081  0.12439  0.80953  Biso   1.000  C
  C460     1.0000 0.81043  0.15730  0.83221  Biso   1.000  C
  H552     1.0000 0.50572  0.83532  0.73069  Biso   1.000  H
  H553     1.0000 0.52019  0.88901  0.70931  Biso   1.000  H
  H554     1.0000 0.52868  0.90919  0.73861  Biso   1.000  H
  H555     1.0000 0.89530  0.84661  0.82679  Biso   1.000  H
  H556     1.0000 0.93210  0.92392  0.83140  Biso   1.000  H
  H557     1.0000 0.96790  0.89191  0.81630  Biso   1.000  H
  C461     1.0000 0.97538  0.40770  0.74080  Biso   1.000  C
  C462     1.0000 0.41908  0.45120  0.97888  Biso   1.000  C
  H558     1.0000 0.07203  0.17118  0.94271  Biso   1.000  H
  H559     1.0000 0.05551  0.10701  0.92670  Biso   1.000  H
  H560     1.0000 0.01065  0.13977  0.92380  Biso   1.000  H
  H561     1.0000 0.36509  0.54260  0.79391  Biso   1.000  H
  H562     1.0000 0.43094  0.57726  0.81020  Biso   1.000  H
  H563     1.0000 0.39202  0.61506  0.80449  Biso   1.000  H
  C463     1.0000 0.07837  0.20150  0.98026  Biso   1.000  C
  H564     1.0000 0.22959  0.12179  0.96050  Biso   1.000  H
  H565     1.0000 0.18118  0.04538  0.95639  Biso   1.000  H
  C464     1.0000 0.16011  0.10246  0.93330  Biso   1.000  C
  H566     1.0000 0.17527  0.04298  0.95630  Biso   1.000  H
  H567     1.0000 0.15788  0.09357  0.94430  Biso   1.000  H
  C465     1.0000 0.24943  0.12858  0.95090  Biso   1.000  C
  C466     1.0000 0.20212  0.21069  0.98682  Biso   1.000  C
  H568     1.0000 0.21995  0.10656  0.01090  Biso   1.000  H
  H569     1.0000 0.18764  0.03329  0.00070  Biso   1.000  H
  C467     1.0000 0.13207  0.04058  0.03279  Biso   1.000  C
  C468     1.0000 0.78928  0.99139  0.98682  Biso   1.000  C
  H570     1.0000 0.80160  0.83862  0.97811  Biso   1.000  H
  C469     1.0000 0.73629  0.87208  0.98206  Biso   1.000  C
  C470     1.0000 0.91192  0.09497  0.95812  Biso   1.000  C
  C471     1.0000 0.93261  0.11050  0.00650  Biso   1.000  C
  H571     1.0000 0.93621  0.71971  0.91550  Biso   1.000  H
  H572     1.0000 0.86669  0.68999  0.90170  Biso   1.000  H
  H573     1.0000 0.85231  0.63910  0.92130  Biso   1.000  H
  H574     1.0000 0.79429  0.63750  0.90501  Biso   1.000  H
  H575     1.0000 0.78612  0.62522  0.93501  Biso   1.000  H
  H576     1.0000 0.85850  0.83632  0.09470  Biso   1.000  H
  H577     1.0000 0.87318  0.90090  0.07949  Biso   1.000  H
  H578     1.0000 0.93082  0.88512  0.08450  Biso   1.000  H
  C472     1.0000 0.65692  0.07060  0.89866  Biso   1.000  C
  H579     1.0000 0.69742  0.10860  0.86310  Biso   1.000  H
  H580     1.0000 0.58688  0.91348  0.91079  Biso   1.000  H
  C473     1.0000 0.62270  0.01167  0.91259  Biso   1.000  C
  H581     1.0000 0.75388  0.95658  0.89010  Biso   1.000  H
  H582     1.0000 0.77030  0.92342  0.86750  Biso   1.000  H
  C474     1.0000 0.80520  0.90809  0.90321  Biso   1.000  C
  H583     1.0000 0.55352  0.88032  0.82360  Biso   1.000  H
  H584     1.0000 0.52210  0.90070  0.84640  Biso   1.000  H
  C475     1.0000 0.45692  0.80311  0.83320  Biso   1.000  C
  C476     1.0000 0.85989  0.18227  0.75067  Biso   1.000  C
  H585     1.0000 0.82821  0.21768  0.78040  Biso   1.000  H
  H586     1.0000 0.88179  0.12728  0.72731  Biso   1.000  H
  H587     1.0000 0.67906  0.11859  0.82619  Biso   1.000  H
  H588     1.0000 0.72009  0.17098  0.80471  Biso   1.000  H
  C477     1.0000 0.64908  0.08398  0.79031  Biso   1.000  C
  H589     1.0000 0.82788  0.20249  0.82590  Biso   1.000  H
  H590     1.0000 0.78836  0.15390  0.84860  Biso   1.000  H
  C478     1.0000 0.86650  0.14626  0.83695  Biso   1.000  C
  H591     1.0000 0.95503  0.41709  0.75570  Biso   1.000  H
  C479     1.0000 0.92015  0.35147  0.72425  Biso   1.000  C
  C480     1.0000 0.01367  0.47148  0.72419  Biso   1.000  C
  C481     1.0000 0.35858  0.42898  0.99605  Biso   1.000  C
  H592     1.0000 0.44143  0.42608  0.98361  Biso   1.000  H
  C482     1.0000 0.46667  0.52277  0.98142  Biso   1.000  C
  H593     1.0000 0.03703  0.19840  0.97811  Biso   1.000  H
  C483     1.0000 0.13578  0.26372  0.98206  Biso   1.000  C
  C484     1.0000 0.21020  0.11500  0.91221  Biso   1.000  C
  H594     1.0000 0.15486  0.14127  0.93530  Biso   1.000  H
  H595     1.0000 0.11702  0.06481  0.92860  Biso   1.000  H
  H596     1.0000 0.27628  0.12329  0.96400  Biso   1.000  H
  H597     1.0000 0.25882  0.17428  0.95200  Biso   1.000  H
  C485     1.0000 0.27447  0.12149  0.92591  Biso   1.000  C
  H598     1.0000 0.24340  0.21368  0.98901  Biso   1.000  H
  C486     1.0000 0.19756  0.26827  0.98535  Biso   1.000  C
  H599     1.0000 0.09501  0.99579  0.02981  Biso   1.000  H
  C487     1.0000 0.17201  0.03959  0.05609  Biso   1.000  C
  H600     1.0000 0.11373  0.06930  0.03660  Biso   1.000  H
  C488     1.0000 0.73169  0.92931  0.98535  Biso   1.000  C
  H601     1.0000 0.78629  0.02970  0.98901  Biso   1.000  H
  H602     1.0000 0.69758  0.83048  0.98111  Biso   1.000  H
  H603     1.0000 0.87820  0.10781  0.96050  Biso   1.000  H
  H604     1.0000 0.95455  0.13577  0.95639  Biso   1.000  H
  C489     1.0000 0.89745  0.05756  0.93330  Biso   1.000  C
  H605     1.0000 0.95695  0.13228  0.95630  Biso   1.000  H
  H606     1.0000 0.90644  0.06431  0.94430  Biso   1.000  H
  C490     1.0000 0.87137  0.12079  0.95090  Biso   1.000  C
  H607     1.0000 0.89341  0.11340  0.01090  Biso   1.000  H
  H608     1.0000 0.96671  0.15430  0.00070  Biso   1.000  H
  C491     1.0000 0.95943  0.09147  0.03279  Biso   1.000  C
  H609     1.0000 0.66490  0.11060  0.90611  Biso   1.000  H
  C492     1.0000 0.60179  0.01406  0.93938  Biso   1.000  C
  H610     1.0000 0.79080  0.86269  0.89771  Biso   1.000  H
  H611     1.0000 0.84269  0.93481  0.89181  Biso   1.000  H
  C493     1.0000 0.85148  0.90689  0.92639  Biso   1.000  C
  H612     1.0000 0.46090  0.76351  0.83111  Biso   1.000  H
  H613     1.0000 0.42682  0.79552  0.84750  Biso   1.000  H
  C494     1.0000 0.42771  0.81520  0.80800  Biso   1.000  C
  C495     1.0000 0.89322  0.24390  0.73586  Biso   1.000  C
  H614     1.0000 0.63608  0.03739  0.79271  Biso   1.000  H
  H615     1.0000 0.66825  0.09697  0.77310  Biso   1.000  H
  C496     1.0000 0.58756  0.09018  0.79160  Biso   1.000  C
  H616     1.0000 0.88352  0.14147  0.82040  Biso   1.000  H
  H617     1.0000 0.85005  0.10446  0.84630  Biso   1.000  H
  C497     1.0000 0.92508  0.20269  0.85261  Biso   1.000  C
  N21      1.0000 0.88272  0.29159  0.74041  Biso   1.000  N
  H618     1.0000 0.94026  0.34118  0.70960  Biso   1.000  H
  C498     1.0000 0.87318  0.37579  0.71432  Biso   1.000  C
  C499     1.0000 0.96607  0.49271  0.71411  Biso   1.000  C
  H619     1.0000 0.04795  0.50709  0.73460  Biso   1.000  H
  H620     1.0000 0.03528  0.46289  0.70981  Biso   1.000  H
  N22      1.0000 0.31409  0.35756  0.99450  Biso   1.000  N
  H621     1.0000 0.33448  0.45170  0.99050  Biso   1.000  H
  C500     1.0000 0.38247  0.44961  0.02410  Biso   1.000  C
  H622     1.0000 0.44648  0.54769  0.97461  Biso   1.000  H
  H623     1.0000 0.50587  0.53396  0.97101  Biso   1.000  H
  C501     1.0000 0.48810  0.54400  0.00902  Biso   1.000  C
  H624     1.0000 0.13292  0.30238  0.98111  Biso   1.000  H
  H625     1.0000 0.19229  0.12079  0.89601  Biso   1.000  H
  H626     1.0000 0.21377  0.07509  0.91041  Biso   1.000  H
  C502     1.0000 0.28207  0.17588  0.91559  Biso   1.000  C
  H627     1.0000 0.25070  0.13018  0.91240  Biso   1.000  H
  H628     1.0000 0.30033  0.17208  0.93179  Biso   1.000  H
  H629     1.0000 0.26397  0.07549  0.92411  Biso   1.000  H
  C503     1.0000 0.35036  0.16749  0.92140  Biso   1.000  C
  C504     1.0000 0.25362  0.33809  0.98833  Biso   1.000  C
  H630     1.0000 0.18911  0.00977  0.05230  Biso   1.000  H
  H631     1.0000 0.20995  0.08388  0.05839  Biso   1.000  H
  C505     1.0000 0.13395  0.01796  0.08090  Biso   1.000  C
  C506     1.0000 0.66188  0.91548  0.98833  Biso   1.000  C
  C507     1.0000 0.88503  0.09517  0.91221  Biso   1.000  C
  H632     1.0000 0.85867  0.01357  0.93530  Biso   1.000  H
  H633     1.0000 0.93519  0.05217  0.92860  Biso   1.000  H
  H634     1.0000 0.87670  0.15300  0.96400  Biso   1.000  H
  H635     1.0000 0.82571  0.08448  0.95200  Biso   1.000  H
  C508     1.0000 0.87848  0.15300  0.92591  Biso   1.000  C
  C509     1.0000 0.96038  0.13238  0.05609  Biso   1.000  C
  H636     1.0000 0.93065  0.04438  0.03660  Biso   1.000  H
  H637     1.0000 0.00415  0.09917  0.02981  Biso   1.000  H
  N23      1.0000 0.56627  0.95988  0.95213  Biso   1.000  N
  H638     1.0000 0.61438  0.05507  0.94710  Biso   1.000  H
  H639     1.0000 0.82880  0.90080  0.94271  Biso   1.000  H
  H640     1.0000 0.89300  0.94849  0.92670  Biso   1.000  H
  H641     1.0000 0.86021  0.87088  0.92380  Biso   1.000  H
  H642     1.0000 0.45739  0.82249  0.79391  Biso   1.000  H
  H643     1.0000 0.42270  0.85370  0.81020  Biso   1.000  H
  H644     1.0000 0.38490  0.77689  0.80449  Biso   1.000  H
  H645     1.0000 0.92289  0.24839  0.72280  Biso   1.000  H
  H646     1.0000 0.56322  0.07479  0.77540  Biso   1.000  H
  H647     1.0000 0.60052  0.13677  0.79369  Biso   1.000  H
  C510     1.0000 0.54132  0.04907  0.81431  Biso   1.000  C
  H648     1.0000 0.90789  0.21468  0.86750  Biso   1.000  H
  H649     1.0000 0.95487  0.18736  0.85871  Biso   1.000  H
  C511     1.0000 0.96250  0.26257  0.83500  Biso   1.000  C
  H650     1.0000 0.83830  0.34098  0.70381  Biso   1.000  H
  H651     1.0000 0.85208  0.38418  0.72889  Biso   1.000  H
  C512     1.0000 0.91109  0.43907  0.69835  Biso   1.000  C
  H652     1.0000 0.94693  0.50399  0.72860  Biso   1.000  H
  H653     1.0000 0.99052  0.53236  0.70350  Biso   1.000  H
  H654     1.0000 0.34406  0.43567  0.03530  Biso   1.000  H
  H655     1.0000 0.40597  0.42688  0.02981  Biso   1.000  H
  C513     1.0000 0.42692  0.52197  0.02659  Biso   1.000  C
  H656     1.0000 0.51626  0.59219  0.00979  Biso   1.000  H
  H657     1.0000 0.51400  0.52427  0.01510  Biso   1.000  H
  H658     1.0000 0.28031  0.21648  0.91550  Biso   1.000  H
  H659     1.0000 0.30998  0.17667  0.90170  Biso   1.000  H
  H660     1.0000 0.36088  0.21318  0.92130  Biso   1.000  H
  H661     1.0000 0.36249  0.15680  0.90501  Biso   1.000  H
  H662     1.0000 0.37479  0.16089  0.93501  Biso   1.000  H
  H663     1.0000 0.24326  0.37160  0.98531  Biso   1.000  H
  H664     1.0000 0.09911  0.97231  0.07949  Biso   1.000  H
  H665     1.0000 0.16367  0.02221  0.09470  Biso   1.000  H
  H666     1.0000 0.11490  0.04568  0.08450  Biso   1.000  H
  N24      1.0000 0.64238  0.95648  0.99450  Biso   1.000  N
  H667     1.0000 0.62839  0.87168  0.98531  Biso   1.000  H
  H668     1.0000 0.87916  0.07150  0.89601  Biso   1.000  H
  H669     1.0000 0.92490  0.13867  0.91041  Biso   1.000  H
  C514     1.0000 0.82409  0.10616  0.91559  Biso   1.000  C
  H670     1.0000 0.86983  0.12049  0.91240  Biso   1.000  H
  H671     1.0000 0.82792  0.12818  0.93179  Biso   1.000  H
  H672     1.0000 0.92445  0.18846  0.92411  Biso   1.000  H
  C515     1.0000 0.83251  0.18287  0.92140  Biso   1.000  C
  H673     1.0000 0.99018  0.17927  0.05230  Biso   1.000  H
  H674     1.0000 0.91605  0.12608  0.05839  Biso   1.000  H
  C516     1.0000 0.98198  0.11600  0.08090  Biso   1.000  C
  C517     1.0000 0.54879  0.96792  0.97888  Biso   1.000  C
  H675     1.0000 0.52160  0.00228  0.81059  Biso   1.000  H
  H676     1.0000 0.50664  0.06016  0.81640  Biso   1.000  H
  H677     1.0000 0.56696  0.05936  0.82991  Biso   1.000  H
  H678     1.0000 0.97395  0.24889  0.81920  Biso   1.000  H
  H679     1.0000 0.93477  0.28150  0.83120  Biso   1.000  H
  H680     1.0000 0.00262  0.29549  0.84349  Biso   1.000  H
  H681     1.0000 0.92965  0.43008  0.68310  Biso   1.000  H
  H682     1.0000 0.88068  0.45410  0.69270  Biso   1.000  H
  H683     1.0000 0.44117  0.53336  0.04440  Biso   1.000  H
  H684     1.0000 0.40332  0.54509  0.02160  Biso   1.000  H
  C518     1.0000 0.57099  0.92961  0.99605  Biso   1.000  C
  H685     1.0000 0.78351  0.06376  0.91550  Biso   1.000  H
  H686     1.0000 0.82333  0.13328  0.90170  Biso   1.000  H
  H687     1.0000 0.78675  0.14766  0.92130  Biso   1.000  H
  H688     1.0000 0.84319  0.20569  0.90501  Biso   1.000  H
  H689     1.0000 0.83911  0.21388  0.93501  Biso   1.000  H
  H690     1.0000 0.97777  0.14147  0.09470  Biso   1.000  H
  H691     1.0000 0.95426  0.06920  0.08450  Biso   1.000  H
  H692     1.0000 0.02769  0.12678  0.07949  Biso   1.000  H
  C519     1.0000 0.47718  0.94390  0.98142  Biso   1.000  C
  H693     1.0000 0.57385  0.01526  0.98361  Biso   1.000  H
  H694     1.0000 0.54832  0.88282  0.99050  Biso   1.000  H
  C520     1.0000 0.55040  0.93291  0.02410  Biso   1.000  C
  H695     1.0000 0.45230  0.89880  0.97461  Biso   1.000  H
  H696     1.0000 0.46602  0.97191  0.97101  Biso   1.000  H
  C521     1.0000 0.45600  0.94410  0.00902  Biso   1.000  C
  H697     1.0000 0.56431  0.90839  0.03530  Biso   1.000  H
  H698     1.0000 0.57311  0.97911  0.02981  Biso   1.000  H
  C522     1.0000 0.47801  0.90489  0.02659  Biso   1.000  C
  H699     1.0000 0.40782  0.92412  0.00979  Biso   1.000  H
  H700     1.0000 0.47569  0.98969  0.01510  Biso   1.000  H
  H701     1.0000 0.46661  0.90779  0.04440  Biso   1.000  H
  H702     1.0000 0.45492  0.85820  0.02160  Biso   1.000  H
  C523     1.0000 0.21707  0.26624  0.35743  Biso   1.000  C
  C524     1.0000 0.23765  0.26294  0.32938  Biso   1.000  C
  H703     1.0000 0.23098  0.24172  0.36864  Biso   1.000  H
  H704     1.0000 0.23978  0.31243  0.36314  Biso   1.000  H
  C525     1.0000 0.14467  0.23822  0.35993  Biso   1.000  C
  C526     1.0000 0.21546  0.30125  0.31222  Biso   1.000  C
  N25      1.0000 0.30904  0.28981  0.32784  Biso   1.000  N
  H705     1.0000 0.21499  0.21615  0.32383  Biso   1.000  H
  C527     1.0000 0.12267  0.27743  0.34235  Biso   1.000  C
  H706     1.0000 0.13327  0.24112  0.37773  Biso   1.000  H
  H707     1.0000 0.12158  0.19153  0.35493  Biso   1.000  H
  N26      1.0000 0.23296  0.29326  0.28547  Biso   1.000  N
  H708     1.0000 0.24058  0.34864  0.31694  Biso   1.000  H
  C528     1.0000 0.14385  0.27723  0.31475  Biso   1.000  C
  C529     1.0000 0.32855  0.24881  0.32166  Biso   1.000  C
  H709     1.0000 0.07449  0.25745  0.34313  Biso   1.000  H
  H710     1.0000 0.14235  0.32302  0.34843  Biso   1.000  H
  C530     1.0000 0.26848  0.34744  0.27271  Biso   1.000  C
  H711     1.0000 0.11896  0.23213  0.30794  Biso   1.000  H
  H712     1.0000 0.13268  0.30524  0.30434  Biso   1.000  H
  H713     1.0000 0.29506  0.20501  0.31864  Biso   1.000  H
  C531     1.0000 0.39835  0.26264  0.31868  Biso   1.000  C
  C532     1.0000 0.28939  0.34505  0.24593  Biso   1.000  C
  H714     1.0000 0.28107  0.38845  0.28044  Biso   1.000  H
  C533     1.0000 0.45595  0.32472  0.32015  Biso   1.000  C
  C534     1.0000 0.40295  0.20541  0.31539  Biso   1.000  C
  C535     1.0000 0.27835  0.28681  0.23520  Biso   1.000  C
  C536     1.0000 0.32359  0.40393  0.23199  Biso   1.000  C
  H715     1.0000 0.45295  0.36303  0.32234  Biso   1.000  H
  C537     1.0000 0.51834  0.32961  0.31835  Biso   1.000  C
  C538     1.0000 0.46515  0.21025  0.31359  Biso   1.000  C
  H716     1.0000 0.36425  0.16381  0.31444  Biso   1.000  H
  C539     1.0000 0.30436  0.28711  0.21051  Biso   1.000  C
  H717     1.0000 0.25355  0.24681  0.24413  Biso   1.000  H
  C540     1.0000 0.34627  0.40363  0.20652  Biso   1.000  C
  H718     1.0000 0.33156  0.44393  0.23944  Biso   1.000  H
  C541     1.0000 0.58088  0.39224  0.31640  Biso   1.000  C
  C542     1.0000 0.52287  0.27233  0.31506  Biso   1.000  C
  H719     1.0000 0.46827  0.17195  0.31144  Biso   1.000  H
  C543     1.0000 0.29926  0.22733  0.19655  Biso   1.000  C
  C544     1.0000 0.34176  0.34635  0.19700  Biso   1.000  C
  H720     1.0000 0.36408  0.44193  0.19643  Biso   1.000  H
  C545     1.0000 0.62545  0.36003  0.31522  Biso   1.000  C
  C546     1.0000 0.57856  0.42835  0.29145  Biso   1.000  C
  C547     1.0000 0.59928  0.44383  0.33984  Biso   1.000  C
  C548     1.0000 0.59928  0.29141  0.31547  Biso   1.000  C
  C549     1.0000 0.34036  0.26085  0.17209  Biso   1.000  C
  C550     1.0000 0.33894  0.19902  0.21310  Biso   1.000  C
  C551     1.0000 0.22676  0.17724  0.19117  Biso   1.000  C
  C552     1.0000 0.36317  0.32981  0.17203  Biso   1.000  C
  C553     1.0000 0.69217  0.40073  0.31547  Biso   1.000  C
  H721     1.0000 0.54486  0.44113  0.29383  Biso   1.000  H
  H722     1.0000 0.62128  0.46915  0.28973  Biso   1.000  H
  C554     1.0000 0.56418  0.39094  0.26664  Biso   1.000  C
  H723     1.0000 0.62368  0.46566  0.28963  Biso   1.000  H
  H724     1.0000 0.57307  0.39764  0.27763  Biso   1.000  H
  C555     1.0000 0.53808  0.45412  0.28423  Biso   1.000  C
  H725     1.0000 0.56007  0.44673  0.34423  Biso   1.000  H
  H726     1.0000 0.63337  0.48763  0.33403  Biso   1.000  H
  C556     1.0000 0.62608  0.42485  0.36612  Biso   1.000  C
  C557     1.0000 0.63996  0.26544  0.31522  Biso   1.000  C
  C558     1.0000 0.35266  0.23103  0.15101  Biso   1.000  C
  H727     1.0000 0.31728  0.18483  0.22984  Biso   1.000  H
  H728     1.0000 0.33355  0.15941  0.20433  Biso   1.000  H
  C559     1.0000 0.41744  0.24831  0.21800  Biso   1.000  C
  H729     1.0000 0.22396  0.13634  0.18503  Biso   1.000  H
  H730     1.0000 0.20238  0.16705  0.20733  Biso   1.000  H
  C560     1.0000 0.19376  0.19792  0.17263  Biso   1.000  C
  C561     1.0000 0.40046  0.36962  0.15138  Biso   1.000  C
  C562     1.0000 0.73455  0.37451  0.31522  Biso   1.000  C
  C563     1.0000 0.74949  0.47714  0.31506  Biso   1.000  C
  C564     1.0000 0.55167  0.42855  0.24554  Biso   1.000  C
  H731     1.0000 0.52536  0.34694  0.26863  Biso   1.000  H
  H732     1.0000 0.60188  0.38555  0.26193  Biso   1.000  H
  H733     1.0000 0.54337  0.48633  0.29733  Biso   1.000  H
  H734     1.0000 0.49237  0.41781  0.28533  Biso   1.000  H
  C565     1.0000 0.54519  0.48633  0.25924  Biso   1.000  C
  C566     1.0000 0.62706  0.46576  0.38942  Biso   1.000  C
  H735     1.0000 0.59736  0.37771  0.36993  Biso   1.000  H
  H736     1.0000 0.67088  0.43254  0.36314  Biso   1.000  H
  C567     1.0000 0.70857  0.30784  0.31547  Biso   1.000  C
  C568     1.0000 0.60774  0.18863  0.31640  Biso   1.000  C
  C569     1.0000 0.33147  0.16201  0.14416  Biso   1.000  C
  C570     1.0000 0.39257  0.27193  0.12960  Biso   1.000  C
  H737     1.0000 0.42055  0.28991  0.22344  Biso   1.000  H
  H738     1.0000 0.43697  0.25675  0.20083  Biso   1.000  H
  C571     1.0000 0.47186  0.24142  0.23654  Biso   1.000  C
  H739     1.0000 0.22019  0.21365  0.15693  Biso   1.000  H
  H740     1.0000 0.18877  0.23403  0.17973  Biso   1.000  H
  C572     1.0000 0.12358  0.13644  0.16653  Biso   1.000  C
  C573     1.0000 0.41716  0.33945  0.13003  Biso   1.000  C
  C574     1.0000 0.42478  0.44283  0.14634  Biso   1.000  C
  C575     1.0000 0.81135  0.41911  0.31640  Biso   1.000  C
  C576     1.0000 0.81125  0.48164  0.31835  Biso   1.000  C
  C577     1.0000 0.74507  0.53482  0.31359  Biso   1.000  C
  H741     1.0000 0.54587  0.40483  0.22934  Biso   1.000  H
  H742     1.0000 0.59159  0.47205  0.24374  Biso   1.000  H
  C578     1.0000 0.49078  0.43954  0.24893  Biso   1.000  C
  H743     1.0000 0.53646  0.45382  0.24573  Biso   1.000  H
  H744     1.0000 0.49454  0.46151  0.26513  Biso   1.000  H
  H745     1.0000 0.59118  0.52184  0.25744  Biso   1.000  H
  C579     1.0000 0.49916  0.51625  0.25473  Biso   1.000  C
  H746     1.0000 0.65687  0.51265  0.38563  Biso   1.000  H
  H747     1.0000 0.58276  0.45941  0.39173  Biso   1.000  H
  C580     1.0000 0.64865  0.44932  0.41424  Biso   1.000  C
  C581     1.0000 0.72767  0.25056  0.31506  Biso   1.000  C
  C582     1.0000 0.57167  0.15022  0.29145  Biso   1.000  C
  C583     1.0000 0.55615  0.15542  0.33984  Biso   1.000  C
  C584     1.0000 0.67038  0.18873  0.31835  Biso   1.000  C
  C585     1.0000 0.35077  0.15762  0.11849  Biso   1.000  C
  C586     1.0000 0.29017  0.10043  0.15672  Biso   1.000  C
  C587     1.0000 0.39725  0.22773  0.10785  Biso   1.000  C
  H748     1.0000 0.45747  0.19602  0.23104  Biso   1.000  H
  H749     1.0000 0.50935  0.26814  0.22514  Biso   1.000  H
  C588     1.0000 0.51815  0.24022  0.25973  Biso   1.000  C
  H750     1.0000 0.12757  0.09684  0.16444  Biso   1.000  H
  H751     1.0000 0.09349  0.12885  0.18083  Biso   1.000  H
  C589     1.0000 0.09437  0.14853  0.14133  Biso   1.000  C
  C590     1.0000 0.45796  0.39484  0.11172  Biso   1.000  C
  C591     1.0000 0.45977  0.45382  0.12054  Biso   1.000  C
  C592     1.0000 0.36748  0.45772  0.14286  Biso   1.000  C
  C593     1.0000 0.47705  0.49063  0.16554  Biso   1.000  C
  C594     1.0000 0.84976  0.42146  0.29145  Biso   1.000  C
  C595     1.0000 0.84459  0.40073  0.33984  Biso   1.000  C
  C596     1.0000 0.86874  0.54401  0.32015  Biso   1.000  C
  H752     1.0000 0.70365  0.53173  0.31144  Biso   1.000  H
  C597     1.0000 0.80244  0.59705  0.31539  Biso   1.000  C
  H753     1.0000 0.45016  0.39714  0.24883  Biso   1.000  H
  H754     1.0000 0.48998  0.46665  0.23503  Biso   1.000  H
  H755     1.0000 0.45349  0.48104  0.25464  Biso   1.000  H
  H756     1.0000 0.50985  0.53902  0.23834  Biso   1.000  H
  H757     1.0000 0.50578  0.54721  0.26834  Biso   1.000  H
  H758     1.0000 0.64446  0.47485  0.42804  Biso   1.000  H
  H759     1.0000 0.69435  0.46011  0.41282  Biso   1.000  H
  H760     1.0000 0.62097  0.40253  0.41784  Biso   1.000  H
  C598     1.0000 0.78975  0.25490  0.31359  Biso   1.000  C
  H761     1.0000 0.55885  0.10373  0.29383  Biso   1.000  H
  H762     1.0000 0.53084  0.15212  0.28973  Biso   1.000  H
  C599     1.0000 0.60909  0.17325  0.26664  Biso   1.000  C
  H763     1.0000 0.53435  0.15802  0.28963  Biso   1.000  H
  H764     1.0000 0.60236  0.17544  0.27763  Biso   1.000  H
  C600     1.0000 0.54589  0.08395  0.28423  Biso   1.000  C
  H765     1.0000 0.55326  0.11332  0.34423  Biso   1.000  H
  H766     1.0000 0.51238  0.14573  0.33403  Biso   1.000  H
  C601     1.0000 0.57515  0.20121  0.36612  Biso   1.000  C
  C602     1.0000 0.67529  0.13125  0.32015  Biso   1.000  C
  C603     1.0000 0.33485  0.09913  0.10678  Biso   1.000  C
  C604     1.0000 0.27566  0.04225  0.14501  Biso   1.000  C
  H767     1.0000 0.27287  0.09983  0.17303  Biso   1.000  H
  C605     1.0000 0.36834  0.23592  0.08239  Biso   1.000  C
  C606     1.0000 0.46804  0.23932  0.10587  Biso   1.000  C
  H768     1.0000 0.49546  0.23413  0.27604  Biso   1.000  H
  H769     1.0000 0.55966  0.28182  0.26004  Biso   1.000  H
  H770     1.0000 0.52687  0.20421  0.25713  Biso   1.000  H
  H771     1.0000 0.12406  0.15582  0.12724  Biso   1.000  H
  H772     1.0000 0.08936  0.18703  0.14354  Biso   1.000  H
  H773     1.0000 0.05156  0.11022  0.13783  Biso   1.000  H
  C607     1.0000 0.49208  0.39803  0.08888  Biso   1.000  C
  C608     1.0000 0.49366  0.51285  0.10730  Biso   1.000  C
  H774     1.0000 0.34577  0.45192  0.15952  Biso   1.000  H
  H775     1.0000 0.38675  0.50431  0.13804  Biso   1.000  H
  C609     1.0000 0.31574  0.41731  0.12364  Biso   1.000  C
  H776     1.0000 0.49455  0.53582  0.15923  Biso   1.000  H
  H777     1.0000 0.45507  0.48723  0.18194  Biso   1.000  H
  C610     1.0000 0.53319  0.47964  0.17029  Biso   1.000  C
  H778     1.0000 0.89626  0.45512  0.29383  Biso   1.000  H
  H779     1.0000 0.84787  0.37876  0.28973  Biso   1.000  H
  C611     1.0000 0.82676  0.43584  0.26664  Biso   1.000  C
  H780     1.0000 0.84198  0.37631  0.28963  Biso   1.000  H
  H781     1.0000 0.82457  0.42695  0.27763  Biso   1.000  H
  C612     1.0000 0.91605  0.46191  0.28423  Biso   1.000  C
  H782     1.0000 0.88668  0.43994  0.34423  Biso   1.000  H
  H783     1.0000 0.85426  0.36662  0.33403  Biso   1.000  H
  C613     1.0000 0.79874  0.37391  0.36612  Biso   1.000  C
  H784     1.0000 0.91007  0.54701  0.32234  Biso   1.000  H
  C614     1.0000 0.86429  0.60165  0.31868  Biso   1.000  C
  H785     1.0000 0.79956  0.63576  0.31444  Biso   1.000  H
  H786     1.0000 0.82808  0.29635  0.31144  Biso   1.000  H
  C615     1.0000 0.79462  0.19752  0.31539  Biso   1.000  C
  C616     1.0000 0.57146  0.12316  0.24554  Biso   1.000  C
  H787     1.0000 0.65308  0.17844  0.26863  Biso   1.000  H
  H788     1.0000 0.61447  0.21635  0.26193  Biso   1.000  H
  H789     1.0000 0.51366  0.05703  0.29733  Biso   1.000  H
  H790     1.0000 0.58217  0.07451  0.28533  Biso   1.000  H
  C617     1.0000 0.51365  0.05883  0.25924  Biso   1.000  C
  C618     1.0000 0.53427  0.16131  0.38942  Biso   1.000  C
  H791     1.0000 0.62226  0.21964  0.36993  Biso   1.000  H
  H792     1.0000 0.56745  0.23832  0.36314  Biso   1.000  H
  H793     1.0000 0.63699  0.08994  0.32234  Biso   1.000  H
  C619     1.0000 0.73739  0.13574  0.31868  Biso   1.000  C
  C620     1.0000 0.29610  0.03875  0.11952  Biso   1.000  C
  H794     1.0000 0.35018  0.09943  0.09014  Biso   1.000  H
  H795     1.0000 0.25118  0.00265  0.15424  Biso   1.000  H
  H796     1.0000 0.39765  0.28062  0.07583  Biso   1.000  H
  H797     1.0000 0.36856  0.20471  0.06993  Biso   1.000  H
  C621     1.0000 0.29907  0.22514  0.08392  Biso   1.000  C
  H798     1.0000 0.46836  0.20985  0.09263  Biso   1.000  H
  H799     1.0000 0.49684  0.28472  0.09993  Biso   1.000  H
  C622     1.0000 0.49808  0.22933  0.12976  Biso   1.000  C
  C623     1.0000 0.52566  0.45861  0.07570  Biso   1.000  C
  H800     1.0000 0.49235  0.36043  0.08263  Biso   1.000  H
  C624     1.0000 0.52658  0.51565  0.08400  Biso   1.000  C
  H801     1.0000 0.49490  0.55106  0.11373  Biso   1.000  H
  H802     1.0000 0.30274  0.37072  0.12604  Biso   1.000  H
  H803     1.0000 0.33498  0.43035  0.10643  Biso   1.000  H
  C625     1.0000 0.25429  0.42356  0.12494  Biso   1.000  C
  H804     1.0000 0.55017  0.47485  0.15374  Biso   1.000  H
  H805     1.0000 0.51679  0.43784  0.17963  Biso   1.000  H
  C626     1.0000 0.59174  0.53602  0.18594  Biso   1.000  C
  C627     1.0000 0.87686  0.44833  0.24554  Biso   1.000  C
  H806     1.0000 0.82155  0.47465  0.26863  Biso   1.000  H
  H807     1.0000 0.78369  0.39813  0.26193  Biso   1.000  H
  H808     1.0000 0.94294  0.45662  0.29733  Biso   1.000  H
  H809     1.0000 0.92547  0.50766  0.28533  Biso   1.000  H
  C628     1.0000 0.94118  0.45482  0.25924  Biso   1.000  C
  C629     1.0000 0.83868  0.37291  0.38942  Biso   1.000  C
  H810     1.0000 0.78036  0.40263  0.36993  Biso   1.000  H
  H811     1.0000 0.76168  0.32912  0.36314  Biso   1.000  H
  C630     1.0000 0.92024  0.67142  0.32166  Biso   1.000  C
  H812     1.0000 0.83616  0.20042  0.31444  Biso   1.000  H
  H813     1.0000 0.59515  0.14104  0.22934  Biso   1.000  H
  H814     1.0000 0.52794  0.11951  0.24374  Biso   1.000  H
  C631     1.0000 0.56046  0.05124  0.24893  Biso   1.000  C
  H815     1.0000 0.54619  0.08265  0.24573  Biso   1.000  H
  H816     1.0000 0.53846  0.03301  0.26513  Biso   1.000  H
  H817     1.0000 0.47815  0.06932  0.25744  Biso   1.000  H
  C632     1.0000 0.48381  0.98297  0.25473  Biso   1.000  C
  H818     1.0000 0.48737  0.14423  0.38563  Biso   1.000  H
  H819     1.0000 0.54059  0.12336  0.39173  Biso   1.000  H
  C633     1.0000 0.55068  0.19932  0.41424  Biso   1.000  C
  C634     1.0000 0.75118  0.07976  0.32166  Biso   1.000  C
  C635     1.0000 0.27474  0.97433  0.10717  Biso   1.000  C
  C636     1.0000 0.27035  0.23103  0.05830  Biso   1.000  C
  H820     1.0000 0.29918  0.25755  0.09592  Biso   1.000  H
  H821     1.0000 0.26997  0.18104  0.09103  Biso   1.000  H
  H822     1.0000 0.50405  0.26324  0.14224  Biso   1.000  H
  H823     1.0000 0.46667  0.18623  0.13713  Biso   1.000  H
  C637     1.0000 0.56306  0.23213  0.12633  Biso   1.000  C
  H824     1.0000 0.54846  0.46061  0.06064  Biso   1.000  H
  C638     1.0000 0.55988  0.57723  0.06919  Biso   1.000  C
  H825     1.0000 0.22988  0.40812  0.10874  Biso   1.000  H
  H826     1.0000 0.26717  0.47015  0.12703  Biso   1.000  H
  C639     1.0000 0.20796  0.38245  0.14764  Biso   1.000  C
  H827     1.0000 0.57455  0.54801  0.20083  Biso   1.000  H
  H828     1.0000 0.62156  0.52074  0.19204  Biso   1.000  H
  C640     1.0000 0.62919  0.59595  0.16833  Biso   1.000  C
  H829     1.0000 0.85895  0.45412  0.22934  Biso   1.000  H
  H830     1.0000 0.88048  0.40842  0.24374  Biso   1.000  H
  C641     1.0000 0.94876  0.50925  0.24893  Biso   1.000  C
  H831     1.0000 0.91739  0.46356  0.24573  Biso   1.000  H
  H832     1.0000 0.96695  0.50541  0.26513  Biso   1.000  H
  H833     1.0000 0.93068  0.40882  0.25744  Biso   1.000  H
  C642     1.0000 0.01707  0.50081  0.25473  Biso   1.000  C
  H834     1.0000 0.85576  0.34315  0.38563  Biso   1.000  H
  H835     1.0000 0.87666  0.41721  0.39173  Biso   1.000  H
  C643     1.0000 0.80069  0.35134  0.41424  Biso   1.000  C
  N27      1.0000 0.98078  0.69094  0.32784  Biso   1.000  N
  H836     1.0000 0.90996  0.70493  0.31864  Biso   1.000  H
  H837     1.0000 0.60288  0.05304  0.24883  Biso   1.000  H
  H838     1.0000 0.53335  0.02332  0.23503  Biso   1.000  H
  H839     1.0000 0.51898  0.97243  0.25464  Biso   1.000  H
  H840     1.0000 0.46096  0.97083  0.23834  Biso   1.000  H
  H841     1.0000 0.45274  0.95855  0.26834  Biso   1.000  H
  H842     1.0000 0.52516  0.16965  0.42804  Biso   1.000  H
  H843     1.0000 0.53985  0.23423  0.41282  Biso   1.000  H
  H844     1.0000 0.59748  0.21844  0.41784  Biso   1.000  H
  N28      1.0000 0.71015  0.01923  0.32784  Biso   1.000  N
  H845     1.0000 0.79499  0.09004  0.31864  Biso   1.000  H
  N29      1.0000 0.28110  0.96734  0.08315  Biso   1.000  N
  H846     1.0000 0.25554  0.93637  0.11752  Biso   1.000  H
  H847     1.0000 0.29725  0.27643  0.05193  Biso   1.000  H
  H848     1.0000 0.27407  0.20161  0.04583  Biso   1.000  H
  C644     1.0000 0.20019  0.21475  0.05930  Biso   1.000  C
  H849     1.0000 0.59488  0.27483  0.11884  Biso   1.000  H
  H850     1.0000 0.55747  0.19742  0.11433  Biso   1.000  H
  C645     1.0000 0.59258  0.22274  0.15283  Biso   1.000  C
  N30      1.0000 0.54934  0.62492  0.07374  Biso   1.000  N
  H851     1.0000 0.58955  0.58172  0.05613  Biso   1.000  H
  H852     1.0000 0.18829  0.33566  0.14392  Biso   1.000  H
  H853     1.0000 0.17337  0.39354  0.14973  Biso   1.000  H
  H854     1.0000 0.23365  0.39274  0.16324  Biso   1.000  H
  H855     1.0000 0.64066  0.58222  0.15254  Biso   1.000  H
  H856     1.0000 0.66924  0.62882  0.17683  Biso   1.000  H
  H857     1.0000 0.60148  0.61483  0.16454  Biso   1.000  H
  H858     1.0000 0.94696  0.54986  0.24883  Biso   1.000  H
  H859     1.0000 0.97667  0.51005  0.23503  Biso   1.000  H
  H860     1.0000 0.02755  0.54651  0.25464  Biso   1.000  H
  H861     1.0000 0.02916  0.49013  0.23834  Biso   1.000  H
  H862     1.0000 0.04145  0.49422  0.26834  Biso   1.000  H
  H863     1.0000 0.83038  0.35553  0.42804  Biso   1.000  H
  H864     1.0000 0.76577  0.30564  0.41282  Biso   1.000  H
  H865     1.0000 0.78159  0.37906  0.41784  Biso   1.000  H
  C646     1.0000 0.02524  0.76231  0.32938  Biso   1.000  C
  C647     1.0000 0.73707  0.97473  0.32938  Biso   1.000  C
  C648     1.0000 0.25895  0.90107  0.07413  Biso   1.000  C
  H866     1.0000 0.17238  0.16865  0.06403  Biso   1.000  H
  H867     1.0000 0.18686  0.22234  0.04264  Biso   1.000  H
  H868     1.0000 0.19535  0.24252  0.07194  Biso   1.000  H
  H869     1.0000 0.56197  0.17994  0.16012  Biso   1.000  H
  H870     1.0000 0.59876  0.25725  0.16473  Biso   1.000  H
  H871     1.0000 0.63457  0.22524  0.14963  Biso   1.000  H
  C649     1.0000 0.58688  0.68485  0.05758  Biso   1.000  C
  H872     1.0000 0.00118  0.78503  0.32383  Biso   1.000  H
  C650     1.0000 0.04918  0.78294  0.35743  Biso   1.000  C
  C651     1.0000 0.08575  0.78453  0.31222  Biso   1.000  C
  H873     1.0000 0.78386  0.99885  0.32383  Biso   1.000  H
  C652     1.0000 0.73379  0.95086  0.35743  Biso   1.000  C
  C653     1.0000 0.69879  0.91425  0.31222  Biso   1.000  C
  H874     1.0000 0.24954  0.87125  0.08903  Biso   1.000  H
  C654     1.0000 0.31516  0.90206  0.05758  Biso   1.000  C
  C655     1.0000 0.19520  0.87555  0.05752  Biso   1.000  C
  C656     1.0000 0.64209  0.74103  0.07413  Biso   1.000  C
  H875     1.0000 0.60697  0.67451  0.04293  Biso   1.000  H
  C657     1.0000 0.53985  0.70912  0.04765  Biso   1.000  C
  H876     1.0000 0.01080  0.76905  0.36864  Biso   1.000  H
  H877     1.0000 0.07264  0.76021  0.36314  Biso   1.000  H
  C658     1.0000 0.09356  0.85535  0.35993  Biso   1.000  C
  N31      1.0000 0.06027  0.76705  0.28547  Biso   1.000  N
  H878     1.0000 0.10805  0.75941  0.31694  Biso   1.000  H
  C659     1.0000 0.13336  0.85615  0.31475  Biso   1.000  C
  H879     1.0000 0.75831  0.98926  0.36864  Biso   1.000  H
  H880     1.0000 0.68760  0.92733  0.36314  Biso   1.000  H
  C660     1.0000 0.76180  0.90646  0.35993  Biso   1.000  C
  N32      1.0000 0.70679  0.93977  0.28547  Biso   1.000  N
  H881     1.0000 0.65136  0.89198  0.31694  Biso   1.000  H
  C661     1.0000 0.72278  0.86666  0.31475  Biso   1.000  C
  N33      1.0000 0.37509  0.92444  0.07374  Biso   1.000  N
  H882     1.0000 0.32546  0.93243  0.04293  Biso   1.000  H
  C662     1.0000 0.29083  0.83075  0.04765  Biso   1.000  C
  H883     1.0000 0.15961  0.87425  0.06794  Biso   1.000  H
  H884     1.0000 0.20378  0.90576  0.04314  Biso   1.000  H
  C663     1.0000 0.17396  0.80678  0.04744  Biso   1.000  C
  N34      1.0000 0.68626  0.71891  0.08315  Biso   1.000  N
  H885     1.0000 0.62165  0.75042  0.08903  Biso   1.000  H
  C664     1.0000 0.68033  0.80481  0.05752  Biso   1.000  C
  H886     1.0000 0.50497  0.67431  0.03714  Biso   1.000  H
  H887     1.0000 0.51874  0.71751  0.06223  Biso   1.000  H
  C665     1.0000 0.57778  0.77245  0.03168  Biso   1.000  C
  H888     1.0000 0.10786  0.86674  0.37773  Biso   1.000  H
  H889     1.0000 0.06998  0.87842  0.35493  Biso   1.000  H
  C666     1.0000 0.15476  0.87732  0.34235  Biso   1.000  C
  C667     1.0000 0.07898  0.73155  0.27271  Biso   1.000  C
  H890     1.0000 0.11315  0.88102  0.30794  Biso   1.000  H
  H891     1.0000 0.17256  0.86734  0.30434  Biso   1.000  H
  H892     1.0000 0.75890  0.89218  0.37773  Biso   1.000  H
  H893     1.0000 0.80849  0.93003  0.35493  Biso   1.000  H
  C668     1.0000 0.72254  0.84523  0.34235  Biso   1.000  C
  C669     1.0000 0.65253  0.92104  0.27271  Biso   1.000  C
  H894     1.0000 0.76786  0.88683  0.30794  Biso   1.000  H
  H895     1.0000 0.69475  0.82745  0.30434  Biso   1.000  H
  C670     1.0000 0.42280  0.98267  0.06919  Biso   1.000  C
  H896     1.0000 0.32569  0.83065  0.03714  Biso   1.000  H
  H897     1.0000 0.28248  0.80123  0.06223  Biso   1.000  H
  C671     1.0000 0.22761  0.80533  0.03168  Biso   1.000  C
  H898     1.0000 0.16269  0.77626  0.06194  Biso   1.000  H
  H899     1.0000 0.13429  0.79144  0.03683  Biso   1.000  H
  C672     1.0000 0.69959  0.72525  0.10717  Biso   1.000  C
  H900     1.0000 0.71466  0.84042  0.06794  Biso   1.000  H
  H901     1.0000 0.70195  0.79622  0.04314  Biso   1.000  H
  C673     1.0000 0.63277  0.82603  0.04744  Biso   1.000  C
  H902     1.0000 0.59638  0.76346  0.01643  Biso   1.000  H
  H903     1.0000 0.54738  0.78743  0.02603  Biso   1.000  H
  H904     1.0000 0.18297  0.92552  0.34313  Biso   1.000  H
  H905     1.0000 0.18069  0.85765  0.34843  Biso   1.000  H
  C674     1.0000 0.05567  0.71062  0.24593  Biso   1.000  C
  H906     1.0000 0.10735  0.71891  0.28044  Biso   1.000  H
  H907     1.0000 0.74262  0.81706  0.34313  Biso   1.000  H
  H908     1.0000 0.67699  0.81936  0.34843  Biso   1.000  H
  C675     1.0000 0.65498  0.94437  0.24593  Biso   1.000  C
  H909     1.0000 0.61162  0.89268  0.28044  Biso   1.000  H
  C676     1.0000 0.48438  0.01094  0.08400  Biso   1.000  C
  H910     1.0000 0.41826  0.00784  0.05613  Biso   1.000  H
  H911     1.0000 0.23661  0.83295  0.01643  Biso   1.000  H
  H912     1.0000 0.21261  0.75993  0.02603  Biso   1.000  H
  C677     1.0000 0.74265  0.70393  0.11952  Biso   1.000  C
  H913     1.0000 0.68077  0.74443  0.11752  Biso   1.000  H
  H914     1.0000 0.61355  0.83732  0.06194  Biso   1.000  H
  H915     1.0000 0.65717  0.86574  0.03683  Biso   1.000  H
  C678     1.0000 0.00846  0.72166  0.23520  Biso   1.000  C
  C679     1.0000 0.08034  0.67641  0.23199  Biso   1.000  C
  C680     1.0000 0.71318  0.99156  0.23520  Biso   1.000  C
  C681     1.0000 0.59604  0.91964  0.23199  Biso   1.000  C
  C682     1.0000 0.54136  0.06702  0.07570  Biso   1.000  C
  C683     1.0000 0.48721  0.98087  0.10730  Biso   1.000  C
  C684     1.0000 0.76425  0.66512  0.10678  Biso   1.000  C
  C685     1.0000 0.76657  0.72435  0.14501  Biso   1.000  C
  C686     1.0000 0.98278  0.69564  0.21051  Biso   1.000  C
  H916     1.0000 0.99326  0.74643  0.24413  Biso   1.000  H
  C687     1.0000 0.05737  0.65374  0.20652  Biso   1.000  C
  H917     1.0000 0.11238  0.66842  0.23944  Biso   1.000  H
  C688     1.0000 0.71287  0.01723  0.21051  Biso   1.000  C
  H918     1.0000 0.75317  0.00674  0.24413  Biso   1.000  H
  C689     1.0000 0.59635  0.94267  0.20652  Biso   1.000  C
  H919     1.0000 0.55603  0.88763  0.23944  Biso   1.000  H
  H920     1.0000 0.53936  0.08785  0.06064  Biso   1.000  H
  C690     1.0000 0.60197  0.09404  0.08888  Biso   1.000  C
  C691     1.0000 0.54616  0.00594  0.12054  Biso   1.000  C
  H921     1.0000 0.44899  0.94387  0.11373  Biso   1.000  H
  H922     1.0000 0.74925  0.64984  0.09014  Biso   1.000  H
  C692     1.0000 0.80687  0.64924  0.11849  Biso   1.000  C
  H923     1.0000 0.75147  0.74882  0.15424  Biso   1.000  H
  C693     1.0000 0.81025  0.70982  0.15672  Biso   1.000  C
  C694     1.0000 0.92807  0.70073  0.19655  Biso   1.000  C
  C695     1.0000 0.00456  0.65823  0.19700  Biso   1.000  C
  H924     1.0000 0.07789  0.63596  0.19643  Biso   1.000  H
  C696     1.0000 0.65367  0.99546  0.19700  Biso   1.000  C
  C697     1.0000 0.77265  0.07192  0.19655  Biso   1.000  C
  H925     1.0000 0.55806  0.92214  0.19643  Biso   1.000  H
  C698     1.0000 0.60515  0.06313  0.11172  Biso   1.000  C
  H926     1.0000 0.63956  0.13195  0.08263  Biso   1.000  H
  C699     1.0000 0.55718  0.98197  0.14634  Biso   1.000  C
  C700     1.0000 0.83056  0.66852  0.14416  Biso   1.000  C
  C701     1.0000 0.83046  0.60275  0.10785  Biso   1.000  C
  H927     1.0000 0.82696  0.72715  0.17303  Biso   1.000  H
  C702     1.0000 0.92045  0.65963  0.17209  Biso   1.000  C
  C703     1.0000 0.86008  0.66103  0.21310  Biso   1.000  C
  C704     1.0000 0.95048  0.77325  0.19117  Biso   1.000  C
  C705     1.0000 0.96667  0.63686  0.17203  Biso   1.000  C
  C706     1.0000 0.67017  0.03331  0.17203  Biso   1.000  C
  C707     1.0000 0.73919  0.07956  0.17209  Biso   1.000  C
  C708     1.0000 0.80095  0.13994  0.21310  Biso   1.000  C
  C709     1.0000 0.82279  0.04954  0.19117  Biso   1.000  C
  C710     1.0000 0.66054  0.07771  0.13003  Biso   1.000  C
  C711     1.0000 0.63035  0.03081  0.15138  Biso   1.000  C
  C712     1.0000 0.54231  0.90976  0.14286  Biso   1.000  C
  C713     1.0000 0.50939  0.98647  0.16554  Biso   1.000  C
  C714     1.0000 0.87836  0.64734  0.15101  Biso   1.000  C
  C715     1.0000 0.87939  0.60744  0.12960  Biso   1.000  C
  C716     1.0000 0.86756  0.63161  0.08239  Biso   1.000  C
  C717     1.0000 0.77126  0.53193  0.10587  Biso   1.000  C
  H928     1.0000 0.86756  0.68275  0.22984  Biso   1.000  H
  H929     1.0000 0.82588  0.66642  0.20433  Biso   1.000  H
  C718     1.0000 0.83086  0.58252  0.21800  Biso   1.000  C
  H930     1.0000 0.91235  0.77604  0.18503  Biso   1.000  H
  H931     1.0000 0.96466  0.79762  0.20733  Biso   1.000  H
  C719     1.0000 0.00418  0.80626  0.17263  Biso   1.000  C
  C720     1.0000 0.96917  0.59955  0.15138  Biso   1.000  C
  C721     1.0000 0.76897  0.12166  0.15101  Biso   1.000  C
  H932     1.0000 0.81515  0.13245  0.22984  Biso   1.000  H
  H933     1.0000 0.84059  0.17415  0.20433  Biso   1.000  H
  C722     1.0000 0.75168  0.16915  0.21800  Biso   1.000  C
  H934     1.0000 0.86368  0.08765  0.18503  Biso   1.000  H
  H935     1.0000 0.83297  0.03531  0.20733  Biso   1.000  H
  C723     1.0000 0.80209  0.99585  0.17263  Biso   1.000  C
  C724     1.0000 0.72805  0.12061  0.12960  Biso   1.000  C
  H936     1.0000 0.54808  0.89387  0.15952  Biso   1.000  H
  H937     1.0000 0.49565  0.88244  0.13804  Biso   1.000  H
  C725     1.0000 0.58268  0.89847  0.12364  Biso   1.000  C
  C726     1.0000 0.52039  0.05354  0.17029  Biso   1.000  C
  H938     1.0000 0.46421  0.95875  0.15923  Biso   1.000  H
  H939     1.0000 0.51275  0.96784  0.18194  Biso   1.000  H
  C727     1.0000 0.92226  0.58282  0.13003  Biso   1.000  C
  H940     1.0000 0.88298  0.60235  0.07583  Biso   1.000  H
  H941     1.0000 0.83614  0.63141  0.06993  Biso   1.000  H
  C728     1.0000 0.92605  0.70093  0.08392  Biso   1.000  C
  H942     1.0000 0.74149  0.53163  0.09263  Biso   1.000  H
  H943     1.0000 0.78786  0.50311  0.09993  Biso   1.000  H
  C729     1.0000 0.73126  0.50191  0.12976  Biso   1.000  C
  H944     1.0000 0.86936  0.57942  0.22344  Biso   1.000  H
  H945     1.0000 0.81978  0.56304  0.20083  Biso   1.000  H
  C730     1.0000 0.76958  0.52813  0.23654  Biso   1.000  C
  H946     1.0000 0.99348  0.77984  0.15693  Biso   1.000  H
  H947     1.0000 0.04526  0.81125  0.17973  Biso   1.000  H
  C731     1.0000 0.01284  0.87643  0.16653  Biso   1.000  C
  C732     1.0000 0.01808  0.57523  0.14634  Biso   1.000  C
  C733     1.0000 0.83798  0.16945  0.14416  Biso   1.000  C
  H948     1.0000 0.71006  0.13065  0.22344  Biso   1.000  H
  H949     1.0000 0.74325  0.18024  0.20083  Biso   1.000  H
  C734     1.0000 0.75857  0.23043  0.23654  Biso   1.000  C
  H950     1.0000 0.78637  0.00654  0.15693  Biso   1.000  H
  H951     1.0000 0.76597  0.95475  0.17973  Biso   1.000  H
  C735     1.0000 0.86361  0.98716  0.16653  Biso   1.000  C
  C736     1.0000 0.77229  0.16955  0.10785  Biso   1.000  C
  H952     1.0000 0.62926  0.93203  0.12604  Biso   1.000  H
  H953     1.0000 0.56969  0.90466  0.10643  Biso   1.000  H
  C737     1.0000 0.57650  0.83075  0.12494  Biso   1.000  C
  H954     1.0000 0.52513  0.07531  0.15374  Biso   1.000  H
  H955     1.0000 0.56216  0.07896  0.17963  Biso   1.000  H
  C738     1.0000 0.46396  0.05573  0.18594  Biso   1.000  C
  C739     1.0000 0.93685  0.54202  0.11172  Biso   1.000  C
  C740     1.0000 0.96069  0.72965  0.05830  Biso   1.000  C
  H956     1.0000 0.95835  0.70083  0.09592  Biso   1.000  H
  H957     1.0000 0.91106  0.73005  0.09103  Biso   1.000  H
  H958     1.0000 0.75914  0.49592  0.14224  Biso   1.000  H
  H959     1.0000 0.71958  0.53333  0.13713  Biso   1.000  H
  C741     1.0000 0.66906  0.43694  0.12633  Biso   1.000  C
  H960     1.0000 0.73854  0.54252  0.23104  Biso   1.000  H
  H961     1.0000 0.75874  0.49063  0.22514  Biso   1.000  H
  C742     1.0000 0.72208  0.48184  0.25973  Biso   1.000  C
  H962     1.0000 0.96928  0.87243  0.16444  Biso   1.000  H
  H963     1.0000 0.03538  0.90654  0.18083  Biso   1.000  H
  C743     1.0000 0.05418  0.90564  0.14133  Biso   1.000  C
  C744     1.0000 0.99404  0.54022  0.12054  Biso   1.000  C
  C745     1.0000 0.09027  0.63251  0.14286  Biso   1.000  C
  C746     1.0000 0.01356  0.52294  0.16554  Biso   1.000  C
  C747     1.0000 0.84238  0.19312  0.11849  Biso   1.000  C
  C748     1.0000 0.89954  0.18973  0.15672  Biso   1.000  C
  H964     1.0000 0.80396  0.26144  0.23104  Biso   1.000  H
  H965     1.0000 0.73187  0.24122  0.22514  Biso   1.000  H
  C749     1.0000 0.75978  0.27793  0.25973  Biso   1.000  C
  H966     1.0000 0.90316  0.03071  0.16444  Biso   1.000  H
  H967     1.0000 0.87121  0.96464  0.18083  Biso   1.000  H
  C750     1.0000 0.85144  0.94586  0.14133  Biso   1.000  C
  C751     1.0000 0.76407  0.13245  0.08239  Biso   1.000  C
  C752     1.0000 0.76066  0.22873  0.10587  Biso   1.000  C
  H968     1.0000 0.59186  0.82176  0.10874  Biso   1.000  H
  H969     1.0000 0.52989  0.79704  0.12703  Biso   1.000  H
  C753     1.0000 0.61759  0.82555  0.14764  Biso   1.000  C
  H970     1.0000 0.45195  0.02652  0.20083  Biso   1.000  H
  H971     1.0000 0.47925  0.10083  0.19204  Biso   1.000  H
  C754     1.0000 0.40405  0.03321  0.16833  Biso   1.000  C
  C755     1.0000 0.90598  0.50796  0.08888  Biso   1.000  C
  H972     1.0000 0.97915  0.70273  0.05193  Biso   1.000  H
  H973     1.0000 0.92757  0.72595  0.04583  Biso   1.000  H
  C756     1.0000 0.01454  0.79982  0.05930  Biso   1.000  C
  H974     1.0000 0.67996  0.40513  0.11884  Biso   1.000  H
  H975     1.0000 0.63998  0.44253  0.11433  Biso   1.000  H
  C757     1.0000 0.63016  0.40742  0.15283  Biso   1.000  C
  H976     1.0000 0.73865  0.50451  0.27604  Biso   1.000  H
  H977     1.0000 0.72218  0.44034  0.26004  Biso   1.000  H
  H978     1.0000 0.67738  0.47315  0.25713  Biso   1.000  H
  H979     1.0000 0.03175  0.87593  0.12724  Biso   1.000  H
  H980     1.0000 0.09768  0.91064  0.14354  Biso   1.000  H
  H981     1.0000 0.05867  0.94844  0.13783  Biso   1.000  H
  C758     1.0000 0.01919  0.50636  0.10730  Biso   1.000  C
  H982     1.0000 0.10615  0.65424  0.15952  Biso   1.000  H
  H983     1.0000 0.11757  0.61323  0.13804  Biso   1.000  H
  C759     1.0000 0.10156  0.68425  0.12364  Biso   1.000  C
  C760     1.0000 0.94646  0.46685  0.17029  Biso   1.000  C
  H984     1.0000 0.04125  0.50541  0.15923  Biso   1.000  H
  H985     1.0000 0.03216  0.54491  0.18194  Biso   1.000  H
  C761     1.0000 0.90087  0.23572  0.10678  Biso   1.000  C
  C762     1.0000 0.95777  0.23343  0.14501  Biso   1.000  C
  H986     1.0000 0.90016  0.17305  0.17303  Biso   1.000  H
  H987     1.0000 0.76585  0.26134  0.27604  Biso   1.000  H
  H988     1.0000 0.71817  0.27783  0.26004  Biso   1.000  H
  H989     1.0000 0.79576  0.32262  0.25713  Biso   1.000  H
  H990     1.0000 0.84420  0.96824  0.12724  Biso   1.000  H
  H991     1.0000 0.81295  0.90236  0.14354  Biso   1.000  H
  H992     1.0000 0.88976  0.94137  0.13783  Biso   1.000  H
  H993     1.0000 0.71938  0.11701  0.07583  Biso   1.000  H
  H994     1.0000 0.79524  0.16381  0.06993  Biso   1.000  H
  C763     1.0000 0.77486  0.07391  0.08392  Biso   1.000  C
  H995     1.0000 0.79019  0.25855  0.09263  Biso   1.000  H
  H996     1.0000 0.71526  0.21215  0.09993  Biso   1.000  H
  C764     1.0000 0.77067  0.26874  0.12976  Biso   1.000  C
  H997     1.0000 0.66437  0.85267  0.14392  Biso   1.000  H
  H998     1.0000 0.60646  0.77986  0.14973  Biso   1.000  H
  H999     1.0000 0.60729  0.84094  0.16324  Biso   1.000  H
  H1000    1.0000 0.41778  0.05843  0.15254  Biso   1.000  H
  H1001    1.0000 0.37116  0.04045  0.17683  Biso   1.000  H
  H1002    1.0000 0.38514  0.98667  0.16454  Biso   1.000  H
  C765     1.0000 0.93299  0.47435  0.07570  Biso   1.000  C
  H1003    1.0000 0.86808  0.50766  0.08263  Biso   1.000  H
  H1004    1.0000 0.99627  0.82763  0.06403  Biso   1.000  H
  H1005    1.0000 0.03548  0.81315  0.04264  Biso   1.000  H
  H1006    1.0000 0.04717  0.80461  0.07194  Biso   1.000  H
  H1007    1.0000 0.61796  0.43804  0.16012  Biso   1.000  H
  H1008    1.0000 0.65847  0.40123  0.16473  Biso   1.000  H
  H1009    1.0000 0.59065  0.36542  0.14963  Biso   1.000  H
  C766     1.0000 0.98907  0.47345  0.08400  Biso   1.000  C
  H1010    1.0000 0.05615  0.50511  0.11373  Biso   1.000  H
  H1011    1.0000 0.06796  0.69724  0.12604  Biso   1.000  H
  H1012    1.0000 0.09537  0.66502  0.10643  Biso   1.000  H
  C767     1.0000 0.16928  0.74573  0.12494  Biso   1.000  C
  H1013    1.0000 0.92467  0.44982  0.15374  Biso   1.000  H
  H1014    1.0000 0.92109  0.48324  0.17963  Biso   1.000  H
  C768     1.0000 0.94426  0.40822  0.18594  Biso   1.000  C
  C769     1.0000 0.96129  0.25735  0.11952  Biso   1.000  C
  H1015    1.0000 0.90056  0.25076  0.09014  Biso   1.000  H
  H1016    1.0000 0.99736  0.24851  0.15424  Biso   1.000  H
  C770     1.0000 0.76900  0.03935  0.05830  Biso   1.000  C
  H1017    1.0000 0.74246  0.04165  0.09592  Biso   1.000  H
  H1018    1.0000 0.81896  0.08895  0.09103  Biso   1.000  H
  H1019    1.0000 0.73678  0.24082  0.14224  Biso   1.000  H
  H1020    1.0000 0.81375  0.28042  0.13713  Biso   1.000  H
  C771     1.0000 0.76785  0.33091  0.12633  Biso   1.000  C
  H1021    1.0000 0.91215  0.45152  0.06064  Biso   1.000  H
  C772     1.0000 0.01735  0.44014  0.06919  Biso   1.000  C
  H1022    1.0000 0.17829  0.77015  0.10874  Biso   1.000  H
  H1023    1.0000 0.20298  0.73284  0.12703  Biso   1.000  H
  C773     1.0000 0.17448  0.79202  0.14764  Biso   1.000  C
  H1024    1.0000 0.97346  0.42545  0.20083  Biso   1.000  H
  H1025    1.0000 0.89919  0.37846  0.19204  Biso   1.000  H
  C774     1.0000 0.96678  0.37082  0.16833  Biso   1.000  C
  C775     1.0000 0.02566  0.30045  0.10717  Biso   1.000  C
  H1026    1.0000 0.72357  0.02083  0.05193  Biso   1.000  H
  H1027    1.0000 0.79837  0.07242  0.04583  Biso   1.000  H
  C776     1.0000 0.78530  0.98547  0.05930  Biso   1.000  C
  H1028    1.0000 0.72517  0.32003  0.11884  Biso   1.000  H
  H1029    1.0000 0.80257  0.36003  0.11433  Biso   1.000  H
  C777     1.0000 0.77727  0.36982  0.15283  Biso   1.000  C
  H1030    1.0000 0.99216  0.41042  0.05613  Biso   1.000  H
  N35      1.0000 0.07558  0.45062  0.07374  Biso   1.000  N
  H1031    1.0000 0.14737  0.81175  0.14392  Biso   1.000  H
  H1032    1.0000 0.22016  0.82663  0.14973  Biso   1.000  H
  H1033    1.0000 0.15910  0.76635  0.16324  Biso   1.000  H
  H1034    1.0000 0.94157  0.35933  0.15254  Biso   1.000  H
  H1035    1.0000 0.95957  0.33071  0.17683  Biso   1.000  H
  H1036    1.0000 0.01338  0.39853  0.16454  Biso   1.000  H
  N36      1.0000 0.03265  0.31373  0.08315  Biso   1.000  N
  H1037    1.0000 0.06368  0.31923  0.11752  Biso   1.000  H
  H1038    1.0000 0.83138  0.00375  0.06403  Biso   1.000  H
  H1039    1.0000 0.77765  0.96454  0.04264  Biso   1.000  H
  H1040    1.0000 0.75745  0.95286  0.07194  Biso   1.000  H
  H1041    1.0000 0.82007  0.38205  0.16012  Biso   1.000  H
  H1042    1.0000 0.74277  0.34155  0.16473  Biso   1.000  H
  H1043    1.0000 0.77475  0.40932  0.14963  Biso   1.000  H
  C778     1.0000 0.09796  0.41312  0.05758  Biso   1.000  C
  C779     1.0000 0.09895  0.35793  0.07413  Biso   1.000  C
  H1044    1.0000 0.06759  0.39304  0.04293  Biso   1.000  H
  C780     1.0000 0.16925  0.46011  0.04765  Biso   1.000  C
  H1045    1.0000 0.12876  0.37836  0.08903  Biso   1.000  H
  C781     1.0000 0.12448  0.31963  0.05752  Biso   1.000  C
  H1046    1.0000 0.16936  0.49502  0.03714  Biso   1.000  H
  H1047    1.0000 0.19875  0.48124  0.06223  Biso   1.000  H
  C782     1.0000 0.19469  0.42226  0.03168  Biso   1.000  C
  H1048    1.0000 0.12575  0.28532  0.06794  Biso   1.000  H
  H1049    1.0000 0.09427  0.29805  0.04314  Biso   1.000  H
  C783     1.0000 0.19326  0.36722  0.04744  Biso   1.000  C
  H1050    1.0000 0.16708  0.40363  0.01643  Biso   1.000  H
  H1051    1.0000 0.24006  0.45262  0.02603  Biso   1.000  H
  H1052    1.0000 0.22376  0.38645  0.06194  Biso   1.000  H
  H1053    1.0000 0.20858  0.34285  0.03683  Biso   1.000  H
  Ne1      1.0000 0.66667  0.33334  0.19567  Biso   1.000  Ne
  He1      1.0000 0.72522  0.54429  0.18115  Biso   1.000  He
  He2      1.0000 0.84867  0.34495  0.21990  Biso   1.000  He
  He3      1.0000 0.40049  0.07896  0.23132  Biso   1.000  He
  Ar1      1.0000 0.63757  0.33514  0.20971  Biso   1.000  Ar
  Ne2      1.0000 0.33333  0.66667  0.52900  Biso   1.000  Ne
  He4      1.0000 0.15323  0.47595  0.55453  Biso   1.000  He
  He5      1.0000 0.51535  0.67828  0.55325  Biso   1.000  He
  He6      1.0000 0.33333  0.66669  0.45080  Biso   1.000  He
  Ar2      1.0000 0.33335  0.66669  0.54923  Biso   1.000  Ar
  Ne3      1.0000 1.00000  0.99999  0.86234  Biso   1.000  Ne
  He7      1.0000 0.81988  0.80925  0.88787  Biso   1.000  He
  He8      1.0000 0.18200  0.01162  0.88658  Biso   1.000  He
  He9      1.0000 0.00001  0.00001  0.78413  Biso   1.000  He
  Ar3      1.0000 0.99999  0.00002  0.88258  Biso   1.000  Ar
