data_image0
_cell_length_a       26.055
_cell_length_b       15.571
_cell_length_c       14.686
_cell_angle_alpha    90
_cell_angle_beta     90
_cell_angle_gamma    90

_symmetry_space_group_name_H-M    "P 1"
_symmetry_int_tables_number       1

loop_
  _symmetry_equiv_pos_as_xyz
  'x, y, z'

loop_
  _atom_site_label
  _atom_site_occupancy
  _atom_site_fract_x
  _atom_site_fract_y
  _atom_site_fract_z
  _atom_site_thermal_displace_type
  _atom_site_B_iso_or_equiv
  _atom_site_type_symbol
  C1       1.0000 0.51476  0.43639  0.54521  Biso   1.000  C
  C2       1.0000 0.50992  0.35939  0.49850  Biso   1.000  C
  C3       1.0000 0.55797  0.48789  0.53609  Biso   1.000  C
  H1       1.0000 0.48781  0.45437  0.58437  Biso   1.000  H
  C4       1.0000 0.46394  0.30460  0.51117  Biso   1.000  C
  C5       1.0000 0.54984  0.33248  0.44212  Biso   1.000  C
  C6       1.0000 0.59889  0.46150  0.48087  Biso   1.000  C
  H2       1.0000 0.55982  0.54133  0.56741  Biso   1.000  H
  N1       1.0000 0.45769  0.23390  0.47079  Biso   1.000  N
  H3       1.0000 0.43800  0.32368  0.55182  Biso   1.000  H
  H4       1.0000 0.54719  0.28020  0.40923  Biso   1.000  H
  C7       1.0000 0.59371  0.38347  0.43429  Biso   1.000  C
  C8       1.0000 0.64602  0.51339  0.47201  Biso   1.000  C
  C9       1.0000 0.41048  0.18637  0.49169  Biso   1.000  C
  H5       1.0000 0.62092  0.36459  0.39623  Biso   1.000  H
  C10      1.0000 0.69384  0.47460  0.47120  Biso   1.000  C
  C11      1.0000 0.64372  0.60259  0.46602  Biso   1.000  C
  C12      1.0000 0.37187  0.19369  0.41523  Biso   1.000  C
  H6       1.0000 0.41888  0.12510  0.50177  Biso   1.000  H
  H7       1.0000 0.39520  0.20930  0.54848  Biso   1.000  H
  H8       1.0000 0.69591  0.41391  0.47651  Biso   1.000  H
  C13      1.0000 0.73917  0.52206  0.46303  Biso   1.000  C
  C14      1.0000 0.68789  0.65320  0.45751  Biso   1.000  C
  H9       1.0000 0.61121  0.63002  0.46772  Biso   1.000  H
  C15      1.0000 0.39021  0.15799  0.32473  Biso   1.000  C
  H10      1.0000 0.34020  0.16312  0.43320  Biso   1.000  H
  H11      1.0000 0.36289  0.25503  0.40692  Biso   1.000  H
  C16      1.0000 0.78968  0.47640  0.46269  Biso   1.000  C
  C17      1.0000 0.73544  0.61120  0.45663  Biso   1.000  C
  C18      1.0000 0.68524  0.74742  0.45097  Biso   1.000  C
  C19      1.0000 0.35509  0.17706  0.24438  Biso   1.000  C
  H12      1.0000 0.42460  0.18188  0.31152  Biso   1.000  H
  H13      1.0000 0.39390  0.09492  0.33052  Biso   1.000  H
  C20      1.0000 0.79405  0.39169  0.43640  Biso   1.000  C
  C21      1.0000 0.83462  0.51859  0.48768  Biso   1.000  C
  H14      1.0000 0.76600  0.64427  0.45138  Biso   1.000  H
  C22      1.0000 0.64609  0.79327  0.49353  Biso   1.000  C
  C23      1.0000 0.72255  0.79430  0.40399  Biso   1.000  C
  C24      1.0000 0.34995  0.27256  0.22327  Biso   1.000  C
  H15      1.0000 0.36860  0.14733  0.18991  Biso   1.000  H
  H16      1.0000 0.32059  0.15343  0.25752  Biso   1.000  H
  H17      1.0000 0.76431  0.36202  0.41652  Biso   1.000  H
  C25      1.0000 0.84034  0.34879  0.43838  Biso   1.000  C
  C26      1.0000 0.88148  0.47698  0.48740  Biso   1.000  C
  H18      1.0000 0.83301  0.57729  0.50531  Biso   1.000  H
  C27      1.0000 0.64448  0.88331  0.49040  Biso   1.000  C
  H19      1.0000 0.62000  0.76309  0.52519  Biso   1.000  H
  H20      1.0000 0.74930  0.76463  0.37321  Biso   1.000  H
  C28      1.0000 0.72121  0.88279  0.40140  Biso   1.000  C
  H21      1.0000 0.33349  0.30223  0.27530  Biso   1.000  H
  H22      1.0000 0.32800  0.28052  0.16900  Biso   1.000  H
  N2       1.0000 0.40058  0.30981  0.20646  Biso   1.000  N
  H23      1.0000 0.84180  0.28977  0.42210  Biso   1.000  H
  C29      1.0000 0.88490  0.39163  0.46391  Biso   1.000  C
  H24      1.0000 0.91169  0.50767  0.50361  Biso   1.000  H
  C30      1.0000 0.68267  0.92833  0.44532  Biso   1.000  C
  H25      1.0000 0.61731  0.91343  0.51927  Biso   1.000  H
  H26      1.0000 0.74711  0.91311  0.36899  Biso   1.000  H
  C31      1.0000 0.41593  0.36786  0.26018  Biso   1.000  C
  C32      1.0000 0.93475  0.34757  0.46330  Biso   1.000  C
  C33      1.0000 0.68183  0.02351  0.45002  Biso   1.000  C
  C34      1.0000 0.46724  0.40730  0.25262  Biso   1.000  C
  H27      1.0000 0.39359  0.38668  0.30730  Biso   1.000  H
  H28      1.0000 0.96431  0.38270  0.45499  Biso   1.000  H
  N3       1.0000 0.93529  0.26819  0.44301  Biso   1.000  N
  N4       1.0000 0.94251  0.26748  0.47263  Biso   1.000  N
  H29      1.0000 0.65220  0.05363  0.47011  Biso   1.000  H
  N5       1.0000 0.72270  0.06339  0.42578  Biso   1.000  N
  N6       1.0000 0.70988  0.07379  0.40208  Biso   1.000  N
  C35      1.0000 0.47791  0.48346  0.29920  Biso   1.000  C
  C36      1.0000 0.50558  0.36998  0.20033  Biso   1.000  C
  C37      1.0000 0.98419  0.21957  0.43538  Biso   1.000  C
  C38      1.0000 0.99708  0.24359  0.45731  Biso   1.000  C
  C39      1.0000 0.72009  0.15863  0.43381  Biso   1.000  C
  C40      1.0000 0.70029  0.16800  0.40808  Biso   1.000  C
  C41      1.0000 0.52547  0.52232  0.29157  Biso   1.000  C
  H30      1.0000 0.45231  0.50883  0.33658  Biso   1.000  H
  H31      1.0000 0.49910  0.31803  0.16853  Biso   1.000  H
  C42      1.0000 0.55314  0.40832  0.19440  Biso   1.000  C
  C43      1.0000 0.98991  0.19157  0.33549  Biso   1.000  C
  C44      1.0000 0.99601  0.17732  0.38159  Biso   1.000  C
  H32      1.0000 0.98350  0.16858  0.47569  Biso   1.000  H
  H33      1.0000 0.01351  0.25631  0.45349  Biso   1.000  H
  H34      1.0000 0.01739  0.29439  0.43892  Biso   1.000  H
  H35      1.0000 0.01228  0.21900  0.51328  Biso   1.000  H
  C45      1.0000 0.70278  0.19748  0.34359  Biso   1.000  C
  H36      1.0000 0.69561  0.17462  0.48243  Biso   1.000  H
  H37      1.0000 0.75429  0.18162  0.45043  Biso   1.000  H
  H38      1.0000 0.72999  0.19671  0.43722  Biso   1.000  H
  C46      1.0000 0.69211  0.20429  0.31159  Biso   1.000  C
  H39      1.0000 0.66951  0.17892  0.44587  Biso   1.000  H
  C47      1.0000 0.56419  0.48507  0.23968  Biso   1.000  C
  H40      1.0000 0.53180  0.57511  0.32208  Biso   1.000  H
  H41      1.0000 0.57908  0.38193  0.15872  Biso   1.000  H
  C48      1.0000 0.94661  0.13377  0.30199  Biso   1.000  C
  H42      1.0000 0.99121  0.24359  0.29668  Biso   1.000  H
  H43      1.0000 0.02291  0.16088  0.32827  Biso   1.000  H
  C49      1.0000 0.97452  0.21007  0.29307  Biso   1.000  C
  H44      1.0000 0.97521  0.12761  0.40181  Biso   1.000  H
  H45      1.0000 0.03140  0.15657  0.37090  Biso   1.000  H
  C50      1.0000 0.64659  0.17700  0.32568  Biso   1.000  C
  H46      1.0000 0.72408  0.17430  0.29348  Biso   1.000  H
  H47      1.0000 0.70762  0.26061  0.34529  Biso   1.000  H
  H48      1.0000 0.71771  0.17841  0.27012  Biso   1.000  H
  H49      1.0000 0.69829  0.26697  0.31281  Biso   1.000  H
  C51      1.0000 0.63961  0.18811  0.27421  Biso   1.000  C
  C52      1.0000 0.61539  0.52688  0.22879  Biso   1.000  C
  C53      1.0000 0.94930  0.10982  0.20189  Biso   1.000  C
  C54      1.0000 0.96120  0.14238  0.22259  Biso   1.000  C
  H50      1.0000 0.93759  0.09999  0.25031  Biso   1.000  H
  H51      1.0000 0.91349  0.16319  0.31329  Biso   1.000  H
  H52      1.0000 0.94680  0.08041  0.33849  Biso   1.000  H
  H53      1.0000 0.99969  0.25008  0.26590  Biso   1.000  H
  H54      1.0000 0.94308  0.24353  0.30662  Biso   1.000  H
  C55      1.0000 0.62629  0.21058  0.23567  Biso   1.000  C
  H55      1.0000 0.61470  0.21913  0.31288  Biso   1.000  H
  H56      1.0000 0.62579  0.20172  0.37560  Biso   1.000  H
  H57      1.0000 0.64210  0.11393  0.32718  Biso   1.000  H
  H58      1.0000 0.63232  0.12600  0.28047  Biso   1.000  H
  C56      1.0000 0.62971  0.21322  0.17588  Biso   1.000  C
  C57      1.0000 0.65945  0.47685  0.22470  Biso   1.000  C
  C58      1.0000 0.61977  0.61550  0.21987  Biso   1.000  C
  C59      1.0000 0.94358  0.18573  0.13693  Biso   1.000  C
  C60      1.0000 0.93621  0.17963  0.13707  Biso   1.000  C
  H59      1.0000 0.98261  0.08130  0.18998  Biso   1.000  H
  H60      1.0000 0.92178  0.06769  0.18868  Biso   1.000  H
  H61      1.0000 0.99301  0.11168  0.20489  Biso   1.000  H
  C61      1.0000 0.64702  0.16492  0.15171  Biso   1.000  C
  H62      1.0000 0.58849  0.20551  0.23601  Biso   1.000  H
  H63      1.0000 0.63481  0.27243  0.23097  Biso   1.000  H
  C62      1.0000 0.65661  0.15580  0.10568  Biso   1.000  C
  H64      1.0000 0.62729  0.18393  0.09758  Biso   1.000  H
  H65      1.0000 0.64111  0.27320  0.16669  Biso   1.000  H
  H66      1.0000 0.59221  0.21129  0.16451  Biso   1.000  H
  C63      1.0000 0.70712  0.51281  0.21020  Biso   1.000  C
  H67      1.0000 0.65669  0.41642  0.23213  Biso   1.000  H
  H68      1.0000 0.58991  0.65018  0.22327  Biso   1.000  H
  C64      1.0000 0.66743  0.65416  0.20598  Biso   1.000  C
  N7       1.0000 0.89138  0.22330  0.14170  Biso   1.000  N
  N8       1.0000 0.88639  0.22022  0.16063  Biso   1.000  N
  H69      1.0000 0.95049  0.16621  0.07381  Biso   1.000  H
  H70      1.0000 0.96930  0.23011  0.15253  Biso   1.000  H
  H71      1.0000 0.95920  0.22279  0.10929  Biso   1.000  H
  H72      1.0000 0.93049  0.13320  0.09199  Biso   1.000  H
  N9       1.0000 0.64329  0.07109  0.15981  Biso   1.000  N
  N10      1.0000 0.64141  0.06718  0.12747  Biso   1.000  N
  H73      1.0000 0.68329  0.18117  0.14238  Biso   1.000  H
  H74      1.0000 0.69442  0.16242  0.11010  Biso   1.000  H
  H75      1.0000 0.64571  0.17122  0.04317  Biso   1.000  H
  C65      1.0000 0.75352  0.45745  0.20060  Biso   1.000  C
  C66      1.0000 0.71077  0.60163  0.20101  Biso   1.000  C
  C67      1.0000 0.67108  0.74896  0.19222  Biso   1.000  C
  C68      1.0000 0.88801  0.30204  0.16560  Biso   1.000  C
  C69      1.0000 0.68014  0.01940  0.14299  Biso   1.000  C
  C70      1.0000 0.80276  0.48700  0.22130  Biso   1.000  C
  C71      1.0000 0.74991  0.37300  0.16969  Biso   1.000  C
  H76      1.0000 0.74350  0.62700  0.19107  Biso   1.000  H
  C72      1.0000 0.63569  0.80464  0.23049  Biso   1.000  C
  C73      1.0000 0.71011  0.78402  0.13938  Biso   1.000  C
  C74      1.0000 0.84126  0.35258  0.17908  Biso   1.000  C
  H77      1.0000 0.92009  0.33061  0.16042  Biso   1.000  H
  C75      1.0000 0.67661  0.92608  0.16049  Biso   1.000  C
  H78      1.0000 0.71100  0.04181  0.11828  Biso   1.000  H
  C76      1.0000 0.84552  0.43709  0.20857  Biso   1.000  C
  H79      1.0000 0.80672  0.54338  0.24479  Biso   1.000  H
  H80      1.0000 0.71698  0.35072  0.15532  Biso   1.000  H
  C77      1.0000 0.79194  0.32072  0.15927  Biso   1.000  C
  H81      1.0000 0.60952  0.78222  0.26862  Biso   1.000  H
  C78      1.0000 0.63750  0.89262  0.21442  Biso   1.000  C
  C79      1.0000 0.71322  0.87168  0.12577  Biso   1.000  C
  H82      1.0000 0.73498  0.74729  0.11249  Biso   1.000  H
  H83      1.0000 0.87849  0.46060  0.22001  Biso   1.000  H
  H84      1.0000 0.78780  0.26331  0.13877  Biso   1.000  H
  H85      1.0000 0.61228  0.92948  0.24002  Biso   1.000  H
  H86      1.0000 0.74109  0.89468  0.09199  Biso   1.000  H
  C80      1.0000 0.44686  0.59168  0.69440  Biso   1.000  C
  C81      1.0000 0.43581  0.51493  0.73968  Biso   1.000  C
  C82      1.0000 0.49442  0.63002  0.70033  Biso   1.000  C
  H87      1.0000 0.42092  0.61807  0.65872  Biso   1.000  H
  C83      1.0000 0.38461  0.47312  0.72879  Biso   1.000  C
  C84      1.0000 0.47453  0.47768  0.79157  Biso   1.000  C
  C85      1.0000 0.53276  0.59270  0.75262  Biso   1.000  C
  H88      1.0000 0.50090  0.68197  0.66853  Biso   1.000  H
  C86      1.0000 0.38023  0.38450  0.71987  Biso   1.000  C
  C87      1.0000 0.34055  0.52315  0.72470  Biso   1.000  C
  H89      1.0000 0.46820  0.42489  0.82208  Biso   1.000  H
  C88      1.0000 0.52209  0.51654  0.79920  Biso   1.000  C
  C89      1.0000 0.58407  0.63214  0.76018  Biso   1.000  C
  C90      1.0000 0.33257  0.34584  0.70598  Biso   1.000  C
  H90      1.0000 0.41009  0.34982  0.72327  Biso   1.000  H
  C91      1.0000 0.29288  0.48719  0.71020  Biso   1.000  C
  H91      1.0000 0.34331  0.58358  0.73213  Biso   1.000  H
  H92      1.0000 0.54769  0.49117  0.83658  Biso   1.000  H
  H93      1.0000 0.60641  0.61332  0.80730  Biso   1.000  H
  N11      1.0000 0.59942  0.69019  0.70646  Biso   1.000  N
  C92      1.0000 0.32892  0.25104  0.69222  Biso   1.000  C
  C93      1.0000 0.28923  0.39837  0.70101  Biso   1.000  C
  C94      1.0000 0.24648  0.54255  0.70060  Biso   1.000  C
  C95      1.0000 0.65005  0.72744  0.72327  Biso   1.000  C
  C96      1.0000 0.28989  0.21598  0.63938  Biso   1.000  C
  C97      1.0000 0.36431  0.19536  0.73049  Biso   1.000  C
  H94      1.0000 0.25650  0.37300  0.69107  Biso   1.000  H
  C98      1.0000 0.19724  0.51300  0.72130  Biso   1.000  C
  C99      1.0000 0.25009  0.62700  0.66969  Biso   1.000  C
  C100     1.0000 0.64491  0.82294  0.74438  Biso   1.000  C
  H95      1.0000 0.66651  0.69777  0.77530  Biso   1.000  H
  H96      1.0000 0.67200  0.71948  0.66900  Biso   1.000  H
  C101     1.0000 0.28678  0.12832  0.62577  Biso   1.000  C
  H97      1.0000 0.26502  0.25271  0.61249  Biso   1.000  H
  H98      1.0000 0.39048  0.21778  0.76862  Biso   1.000  H
  C102     1.0000 0.36250  0.10738  0.71442  Biso   1.000  C
  C103     1.0000 0.15448  0.56291  0.70857  Biso   1.000  C
  H99      1.0000 0.19328  0.45662  0.74479  Biso   1.000  H
  H100     1.0000 0.28302  0.64928  0.65532  Biso   1.000  H
  C104     1.0000 0.20806  0.67928  0.65927  Biso   1.000  C
  C105     1.0000 0.60979  0.84201  0.82473  Biso   1.000  C
  H101     1.0000 0.63140  0.85267  0.68991  Biso   1.000  H
  H102     1.0000 0.67941  0.84657  0.75752  Biso   1.000  H
  C106     1.0000 0.32339  0.07392  0.66049  Biso   1.000  C
  H103     1.0000 0.25891  0.10532  0.59199  Biso   1.000  H
  H104     1.0000 0.38772  0.07052  0.74002  Biso   1.000  H
  C107     1.0000 0.15874  0.64742  0.67908  Biso   1.000  C
  H105     1.0000 0.12151  0.53940  0.72001  Biso   1.000  H
  H106     1.0000 0.21220  0.73669  0.63877  Biso   1.000  H
  C108     1.0000 0.62813  0.80631  0.91523  Biso   1.000  C
  H107     1.0000 0.57540  0.81812  0.81152  Biso   1.000  H
  H108     1.0000 0.60610  0.90508  0.83052  Biso   1.000  H
  C109     1.0000 0.31986  0.98060  0.64299  Biso   1.000  C
  C110     1.0000 0.11199  0.69796  0.66560  Biso   1.000  C
  C111     1.0000 0.58952  0.81363  0.99169  Biso   1.000  C
  H109     1.0000 0.65980  0.83688  0.93320  Biso   1.000  H
  H110     1.0000 0.63711  0.74497  0.90692  Biso   1.000  H
  H111     1.0000 0.28900  0.95819  0.61828  Biso   1.000  H
  N12      1.0000 0.35671  0.92891  0.65981  Biso   1.000  N
  N13      1.0000 0.35859  0.93282  0.62747  Biso   1.000  N
  H112     1.0000 0.07991  0.66939  0.66042  Biso   1.000  H
  N14      1.0000 0.10862  0.77670  0.64170  Biso   1.000  N
  N15      1.0000 0.11361  0.77978  0.66063  Biso   1.000  N
  N16      1.0000 0.54231  0.76610  0.97079  Biso   1.000  N
  H113     1.0000 0.58112  0.87490  0.00177  Biso   1.000  H
  H114     1.0000 0.60480  0.79070  0.04848  Biso   1.000  H
  C112     1.0000 0.35298  0.83508  0.65171  Biso   1.000  C
  C113     1.0000 0.34339  0.84420  0.60568  Biso   1.000  C
  C114     1.0000 0.05642  0.81427  0.63693  Biso   1.000  C
  C115     1.0000 0.06379  0.82037  0.63707  Biso   1.000  C
  C116     1.0000 0.53606  0.69540  0.01117  Biso   1.000  C
  C117     1.0000 0.37371  0.78942  0.73567  Biso   1.000  C
  H115     1.0000 0.31671  0.81883  0.64238  Biso   1.000  H
  H116     1.0000 0.37271  0.81607  0.59758  Biso   1.000  H
  C118     1.0000 0.37029  0.78678  0.67588  Biso   1.000  C
  H117     1.0000 0.30558  0.83758  0.61010  Biso   1.000  H
  H118     1.0000 0.35429  0.82878  0.54317  Biso   1.000  H
  C119     1.0000 0.05070  0.89018  0.70189  Biso   1.000  C
  H119     1.0000 0.04951  0.83379  0.57381  Biso   1.000  H
  H120     1.0000 0.03070  0.76989  0.65253  Biso   1.000  H
  C120     1.0000 0.03880  0.85762  0.72259  Biso   1.000  C
  H121     1.0000 0.04080  0.77721  0.60929  Biso   1.000  H
  H122     1.0000 0.06951  0.86680  0.59199  Biso   1.000  H
  C121     1.0000 0.49008  0.64061  0.99850  Biso   1.000  C
  H123     1.0000 0.56200  0.67632  0.05182  Biso   1.000  H
  C122     1.0000 0.35341  0.82300  0.82568  Biso   1.000  C
  H124     1.0000 0.41151  0.79449  0.73601  Biso   1.000  H
  H125     1.0000 0.36519  0.72757  0.73097  Biso   1.000  H
  H126     1.0000 0.38530  0.78087  0.81288  Biso   1.000  H
  C123     1.0000 0.36039  0.81189  0.77421  Biso   1.000  C
  H127     1.0000 0.35889  0.72680  0.66669  Biso   1.000  H
  H128     1.0000 0.40779  0.78871  0.66451  Biso   1.000  H
  C124     1.0000 0.05339  0.86623  0.80199  Biso   1.000  C
  H129     1.0000 0.01739  0.91870  0.68998  Biso   1.000  H
  H130     1.0000 0.07822  0.93231  0.68868  Biso   1.000  H
  H131     1.0000 0.00699  0.88832  0.70489  Biso   1.000  H
  H132     1.0000 0.06241  0.90001  0.75031  Biso   1.000  H
  C125     1.0000 0.02548  0.78993  0.79307  Biso   1.000  C
  C126     1.0000 0.45016  0.66752  0.94212  Biso   1.000  C
  C127     1.0000 0.48524  0.56361  0.04521  Biso   1.000  C
  C128     1.0000 0.29722  0.80252  0.84359  Biso   1.000  C
  H133     1.0000 0.37421  0.79828  0.87560  Biso   1.000  H
  H134     1.0000 0.35790  0.88607  0.82718  Biso   1.000  H
  C129     1.0000 0.30789  0.79571  0.81159  Biso   1.000  C
  H135     1.0000 0.36768  0.87400  0.78047  Biso   1.000  H
  C130     1.0000 0.01009  0.80843  0.83549  Biso   1.000  C
  H136     1.0000 0.08651  0.83681  0.81329  Biso   1.000  H
  H137     1.0000 0.05320  0.91959  0.83849  Biso   1.000  H
  H138     1.0000 0.00879  0.75641  0.79668  Biso   1.000  H
  C131     1.0000 0.00399  0.82268  0.88159  Biso   1.000  C
  H139     1.0000 0.00031  0.74992  0.76590  Biso   1.000  H
  H140     1.0000 0.05692  0.75647  0.80662  Biso   1.000  H
  H141     1.0000 0.45281  0.71980  0.90923  Biso   1.000  H
  C132     1.0000 0.40629  0.61653  0.93429  Biso   1.000  C
  C133     1.0000 0.44203  0.51211  0.03609  Biso   1.000  C
  H142     1.0000 0.51219  0.54563  0.08437  Biso   1.000  H
  C134     1.0000 0.27991  0.84137  0.93381  Biso   1.000  C
  H143     1.0000 0.27592  0.82570  0.79348  Biso   1.000  H
  H144     1.0000 0.29238  0.73939  0.84529  Biso   1.000  H
  C135     1.0000 0.29971  0.83200  0.90808  Biso   1.000  C
  H145     1.0000 0.28229  0.82159  0.77012  Biso   1.000  H
  H146     1.0000 0.30171  0.73303  0.81281  Biso   1.000  H
  C136     1.0000 0.01581  0.78043  0.93538  Biso   1.000  C
  H147     1.0000 0.97709  0.83912  0.82827  Biso   1.000  H
  C137     1.0000 0.00292  0.75641  0.95731  Biso   1.000  C
  H148     1.0000 0.02479  0.87239  0.90181  Biso   1.000  H
  H149     1.0000 0.96860  0.84343  0.87090  Biso   1.000  H
  C138     1.0000 0.40111  0.53850  0.98087  Biso   1.000  C
  H150     1.0000 0.37908  0.63541  0.89623  Biso   1.000  H
  H151     1.0000 0.44018  0.45867  0.06741  Biso   1.000  H
  N17      1.0000 0.27730  0.93661  0.92578  Biso   1.000  N
  H152     1.0000 0.30439  0.82538  0.98243  Biso   1.000  H
  H153     1.0000 0.24571  0.81838  0.95043  Biso   1.000  H
  H154     1.0000 0.27001  0.80329  0.93722  Biso   1.000  H
  N18      1.0000 0.29012  0.92621  0.90208  Biso   1.000  N
  H155     1.0000 0.33049  0.82108  0.94587  Biso   1.000  H
  N19      1.0000 0.06471  0.73181  0.94301  Biso   1.000  N
  H156     1.0000 0.01650  0.83142  0.97569  Biso   1.000  H
  N20      1.0000 0.05749  0.73252  0.97263  Biso   1.000  N
  H157     1.0000 0.98649  0.74369  0.95349  Biso   1.000  H
  H158     1.0000 0.98261  0.70561  0.93892  Biso   1.000  H
  H159     1.0000 0.98772  0.78100  0.01328  Biso   1.000  H
  C139     1.0000 0.35398  0.48661  0.97201  Biso   1.000  C
  C140     1.0000 0.31817  0.97649  0.95002  Biso   1.000  C
  C141     1.0000 0.06525  0.65243  0.96330  Biso   1.000  C
  C142     1.0000 0.35628  0.39741  0.96602  Biso   1.000  C
  C143     1.0000 0.30616  0.52540  0.97120  Biso   1.000  C
  C144     1.0000 0.31733  0.07167  0.94532  Biso   1.000  C
  H160     1.0000 0.34780  0.94637  0.97011  Biso   1.000  H
  C145     1.0000 0.11510  0.60837  0.96391  Biso   1.000  C
  H161     1.0000 0.03569  0.61730  0.95499  Biso   1.000  H
  C146     1.0000 0.31211  0.34680  0.95751  Biso   1.000  C
  H162     1.0000 0.38879  0.36998  0.96772  Biso   1.000  H
  C147     1.0000 0.26083  0.47794  0.96303  Biso   1.000  C
  H163     1.0000 0.30409  0.58609  0.97651  Biso   1.000  H
  C148     1.0000 0.35552  0.11669  0.99040  Biso   1.000  C
  C149     1.0000 0.27879  0.11721  0.90140  Biso   1.000  C
  C150     1.0000 0.15966  0.65121  0.93838  Biso   1.000  C
  C151     1.0000 0.11852  0.52302  0.98740  Biso   1.000  C
  C152     1.0000 0.31476  0.25258  0.95097  Biso   1.000  C
  C153     1.0000 0.26456  0.38880  0.95663  Biso   1.000  C
  C154     1.0000 0.21032  0.52360  0.96269  Biso   1.000  C
  C155     1.0000 0.35391  0.20673  0.99353  Biso   1.000  C
  H164     1.0000 0.38269  0.08657  0.01927  Biso   1.000  H
  C156     1.0000 0.27745  0.20570  0.90399  Biso   1.000  C
  H165     1.0000 0.25289  0.08689  0.86899  Biso   1.000  H
  C157     1.0000 0.20595  0.60831  0.93640  Biso   1.000  C
  H166     1.0000 0.15820  0.71023  0.92210  Biso   1.000  H
  C158     1.0000 0.16538  0.48141  0.98768  Biso   1.000  C
  H167     1.0000 0.08831  0.49233  0.00361  Biso   1.000  H
  H168     1.0000 0.23400  0.35573  0.95138  Biso   1.000  H
  H169     1.0000 0.38000  0.23691  0.02519  Biso   1.000  H
  H170     1.0000 0.25070  0.23537  0.87321  Biso   1.000  H
  H171     1.0000 0.23569  0.63798  0.91652  Biso   1.000  H
  H172     1.0000 0.16699  0.42271  0.00531  Biso   1.000  H
  C159     1.0000 0.43477  0.65243  0.46330  Biso   1.000  C
  N21      1.0000 0.43531  0.73181  0.44301  Biso   1.000  N
  N22      1.0000 0.44249  0.73252  0.47263  Biso   1.000  N
  C160     1.0000 0.38488  0.60837  0.46391  Biso   1.000  C
  H173     1.0000 0.46429  0.61730  0.45499  Biso   1.000  H
  C161     1.0000 0.48421  0.78043  0.43538  Biso   1.000  C
  C162     1.0000 0.49710  0.75641  0.45731  Biso   1.000  C
  C163     1.0000 0.34036  0.65121  0.43838  Biso   1.000  C
  C164     1.0000 0.38150  0.52302  0.48740  Biso   1.000  C
  C165     1.0000 0.48989  0.80843  0.33549  Biso   1.000  C
  C166     1.0000 0.49599  0.82268  0.38159  Biso   1.000  C
  H174     1.0000 0.51349  0.74369  0.45349  Biso   1.000  H
  H175     1.0000 0.48352  0.83142  0.47569  Biso   1.000  H
  H176     1.0000 0.51741  0.70561  0.43892  Biso   1.000  H
  H177     1.0000 0.51230  0.78100  0.51328  Biso   1.000  H
  C167     1.0000 0.29407  0.60831  0.43640  Biso   1.000  C
  H178     1.0000 0.34182  0.71023  0.42210  Biso   1.000  H
  H179     1.0000 0.41171  0.49233  0.50361  Biso   1.000  H
  C168     1.0000 0.33460  0.48141  0.48768  Biso   1.000  C
  C169     1.0000 0.44659  0.86623  0.30199  Biso   1.000  C
  H180     1.0000 0.49119  0.75641  0.29668  Biso   1.000  H
  H181     1.0000 0.52289  0.83912  0.32827  Biso   1.000  H
  C170     1.0000 0.47450  0.78993  0.29307  Biso   1.000  C
  H182     1.0000 0.53141  0.84343  0.37090  Biso   1.000  H
  H183     1.0000 0.47519  0.87239  0.40181  Biso   1.000  H
  C171     1.0000 0.28969  0.52360  0.46269  Biso   1.000  C
  H184     1.0000 0.26429  0.63798  0.41652  Biso   1.000  H
  H185     1.0000 0.33299  0.42271  0.50531  Biso   1.000  H
  C172     1.0000 0.44932  0.89018  0.20189  Biso   1.000  C
  C173     1.0000 0.46122  0.85762  0.22259  Biso   1.000  C
  H186     1.0000 0.43761  0.90001  0.25031  Biso   1.000  H
  H187     1.0000 0.41351  0.83681  0.31329  Biso   1.000  H
  H188     1.0000 0.44679  0.91959  0.33849  Biso   1.000  H
  H189     1.0000 0.49971  0.74992  0.26590  Biso   1.000  H
  H190     1.0000 0.44310  0.75647  0.30662  Biso   1.000  H
  C174     1.0000 0.23915  0.47794  0.46303  Biso   1.000  C
  C175     1.0000 0.44360  0.81427  0.13693  Biso   1.000  C
  C176     1.0000 0.43619  0.82037  0.13707  Biso   1.000  C
  H191     1.0000 0.48259  0.91870  0.18998  Biso   1.000  H
  H192     1.0000 0.42180  0.93231  0.18868  Biso   1.000  H
  H193     1.0000 0.49300  0.88832  0.20489  Biso   1.000  H
  C177     1.0000 0.23546  0.38880  0.45663  Biso   1.000  C
  C178     1.0000 0.19386  0.52540  0.47120  Biso   1.000  C
  N23      1.0000 0.39140  0.77670  0.14170  Biso   1.000  N
  N24      1.0000 0.38641  0.77978  0.16063  Biso   1.000  N
  H194     1.0000 0.45051  0.83379  0.07381  Biso   1.000  H
  H195     1.0000 0.46931  0.76989  0.15253  Biso   1.000  H
  H196     1.0000 0.45918  0.77721  0.10929  Biso   1.000  H
  H197     1.0000 0.43051  0.86680  0.09199  Biso   1.000  H
  C179     1.0000 0.18791  0.34680  0.45751  Biso   1.000  C
  H198     1.0000 0.26601  0.35573  0.45138  Biso   1.000  H
  C180     1.0000 0.14604  0.48661  0.47201  Biso   1.000  C
  H199     1.0000 0.19589  0.58609  0.47651  Biso   1.000  H
  C181     1.0000 0.38803  0.69796  0.16560  Biso   1.000  C
  C182     1.0000 0.18522  0.25258  0.45097  Biso   1.000  C
  C183     1.0000 0.14373  0.39741  0.46602  Biso   1.000  C
  C184     1.0000 0.09887  0.53850  0.48087  Biso   1.000  C
  C185     1.0000 0.34124  0.64742  0.17908  Biso   1.000  C
  H200     1.0000 0.42011  0.66939  0.16042  Biso   1.000  H
  C186     1.0000 0.14611  0.20673  0.49353  Biso   1.000  C
  C187     1.0000 0.22253  0.20570  0.40399  Biso   1.000  C
  H201     1.0000 0.11119  0.36998  0.46772  Biso   1.000  H
  C188     1.0000 0.09372  0.61653  0.43429  Biso   1.000  C
  C189     1.0000 0.05795  0.51211  0.53609  Biso   1.000  C
  C190     1.0000 0.34554  0.56291  0.20857  Biso   1.000  C
  C191     1.0000 0.29196  0.67928  0.15927  Biso   1.000  C
  C192     1.0000 0.14450  0.11669  0.49040  Biso   1.000  C
  H202     1.0000 0.12002  0.23691  0.52519  Biso   1.000  H
  C193     1.0000 0.22122  0.11721  0.40140  Biso   1.000  C
  H203     1.0000 0.24932  0.23537  0.37321  Biso   1.000  H
  C194     1.0000 0.04982  0.66752  0.44212  Biso   1.000  C
  H204     1.0000 0.12090  0.63541  0.39623  Biso   1.000  H
  C195     1.0000 0.01474  0.56361  0.54521  Biso   1.000  C
  H205     1.0000 0.05980  0.45867  0.56741  Biso   1.000  H
  C196     1.0000 0.30274  0.51300  0.22130  Biso   1.000  C
  H206     1.0000 0.37851  0.53940  0.22001  Biso   1.000  H
  C197     1.0000 0.24993  0.62700  0.16969  Biso   1.000  C
  H207     1.0000 0.28781  0.73669  0.13877  Biso   1.000  H
  C198     1.0000 0.18265  0.07167  0.44532  Biso   1.000  C
  H208     1.0000 0.11729  0.08657  0.51927  Biso   1.000  H
  H209     1.0000 0.24709  0.08689  0.36899  Biso   1.000  H
  C199     1.0000 0.00994  0.64061  0.49850  Biso   1.000  C
  H210     1.0000 0.04721  0.71980  0.40923  Biso   1.000  H
  H211     1.0000 0.98780  0.54563  0.58437  Biso   1.000  H
  C200     1.0000 0.25350  0.54255  0.20060  Biso   1.000  C
  H212     1.0000 0.30670  0.45662  0.24479  Biso   1.000  H
  H213     1.0000 0.21700  0.64928  0.15532  Biso   1.000  H
  C201     1.0000 0.18181  0.97649  0.45002  Biso   1.000  C
  C202     1.0000 0.96396  0.69540  0.51117  Biso   1.000  C
  C203     1.0000 0.20714  0.48719  0.21020  Biso   1.000  C
  N25      1.0000 0.22268  0.93661  0.42578  Biso   1.000  N
  N26      1.0000 0.20990  0.92621  0.40208  Biso   1.000  N
  H214     1.0000 0.15222  0.94637  0.47011  Biso   1.000  H
  N27      1.0000 0.95767  0.76610  0.47079  Biso   1.000  N
  H215     1.0000 0.93802  0.67632  0.55182  Biso   1.000  H
  C204     1.0000 0.21078  0.39837  0.20101  Biso   1.000  C
  C205     1.0000 0.15943  0.52315  0.22470  Biso   1.000  C
  C206     1.0000 0.22011  0.84137  0.43381  Biso   1.000  C
  C207     1.0000 0.20031  0.83200  0.40808  Biso   1.000  C
  C208     1.0000 0.91046  0.81363  0.49169  Biso   1.000  C
  C209     1.0000 0.16745  0.34584  0.20598  Biso   1.000  C
  H216     1.0000 0.24348  0.37300  0.19107  Biso   1.000  H
  C210     1.0000 0.11537  0.47312  0.22879  Biso   1.000  C
  H217     1.0000 0.15671  0.58358  0.23213  Biso   1.000  H
  C211     1.0000 0.20280  0.80252  0.34359  Biso   1.000  C
  H218     1.0000 0.19559  0.82538  0.48243  Biso   1.000  H
  H219     1.0000 0.25431  0.81838  0.45043  Biso   1.000  H
  H220     1.0000 0.23001  0.80329  0.43722  Biso   1.000  H
  C212     1.0000 0.19209  0.79571  0.31159  Biso   1.000  C
  H221     1.0000 0.16949  0.82108  0.44587  Biso   1.000  H
  C213     1.0000 0.87185  0.80631  0.41523  Biso   1.000  C
  H222     1.0000 0.91890  0.87490  0.50177  Biso   1.000  H
  H223     1.0000 0.89518  0.79070  0.54848  Biso   1.000  H
  C214     1.0000 0.17110  0.25104  0.19222  Biso   1.000  C
  C215     1.0000 0.11979  0.38450  0.21987  Biso   1.000  C
  C216     1.0000 0.06417  0.51493  0.23968  Biso   1.000  C
  C217     1.0000 0.14661  0.82300  0.32568  Biso   1.000  C
  H224     1.0000 0.22410  0.82570  0.29348  Biso   1.000  H
  H225     1.0000 0.20760  0.73939  0.34529  Biso   1.000  H
  H226     1.0000 0.21769  0.82159  0.27012  Biso   1.000  H
  H227     1.0000 0.19831  0.73303  0.31281  Biso   1.000  H
  C218     1.0000 0.13959  0.81189  0.27421  Biso   1.000  C
  C219     1.0000 0.89019  0.84201  0.32473  Biso   1.000  C
  H228     1.0000 0.84018  0.83688  0.43320  Biso   1.000  H
  H229     1.0000 0.86291  0.74497  0.40692  Biso   1.000  H
  C220     1.0000 0.21013  0.21598  0.13938  Biso   1.000  C
  C221     1.0000 0.13567  0.19536  0.23049  Biso   1.000  C
  H230     1.0000 0.08989  0.34982  0.22327  Biso   1.000  H
  C222     1.0000 0.02548  0.47768  0.29157  Biso   1.000  C
  C223     1.0000 0.05316  0.59168  0.19440  Biso   1.000  C
  C224     1.0000 0.12631  0.78942  0.23567  Biso   1.000  C
  H231     1.0000 0.11472  0.78087  0.31288  Biso   1.000  H
  H232     1.0000 0.12581  0.79828  0.37560  Biso   1.000  H
  H233     1.0000 0.14208  0.88607  0.32718  Biso   1.000  H
  H234     1.0000 0.13230  0.87400  0.28047  Biso   1.000  H
  C225     1.0000 0.12969  0.78678  0.17588  Biso   1.000  C
  C226     1.0000 0.85511  0.82294  0.24438  Biso   1.000  C
  H235     1.0000 0.92458  0.81812  0.31152  Biso   1.000  H
  H236     1.0000 0.89392  0.90508  0.33052  Biso   1.000  H
  C227     1.0000 0.21324  0.12832  0.12577  Biso   1.000  C
  H237     1.0000 0.23500  0.25271  0.11249  Biso   1.000  H
  H238     1.0000 0.10950  0.21778  0.26862  Biso   1.000  H
  C228     1.0000 0.13752  0.10738  0.21442  Biso   1.000  C
  H239     1.0000 0.03182  0.42489  0.32208  Biso   1.000  H
  C229     1.0000 0.97793  0.51654  0.29920  Biso   1.000  C
  C230     1.0000 0.00560  0.63002  0.20033  Biso   1.000  C
  H240     1.0000 0.07910  0.61807  0.15872  Biso   1.000  H
  C231     1.0000 0.14700  0.83508  0.15171  Biso   1.000  C
  H241     1.0000 0.08851  0.79449  0.23601  Biso   1.000  H
  H242     1.0000 0.13479  0.72757  0.23097  Biso   1.000  H
  C232     1.0000 0.15659  0.84420  0.10568  Biso   1.000  C
  H243     1.0000 0.12731  0.81607  0.09758  Biso   1.000  H
  H244     1.0000 0.14109  0.72680  0.16669  Biso   1.000  H
  H245     1.0000 0.09219  0.78871  0.16451  Biso   1.000  H
  C233     1.0000 0.84993  0.72744  0.22327  Biso   1.000  C
  H246     1.0000 0.86859  0.85267  0.18991  Biso   1.000  H
  H247     1.0000 0.82061  0.84657  0.25752  Biso   1.000  H
  C234     1.0000 0.17659  0.07392  0.16049  Biso   1.000  C
  H248     1.0000 0.24111  0.10532  0.09199  Biso   1.000  H
  H249     1.0000 0.11230  0.07052  0.24002  Biso   1.000  H
  H250     1.0000 0.95229  0.49117  0.33658  Biso   1.000  H
  C235     1.0000 0.96726  0.59270  0.25262  Biso   1.000  C
  H251     1.0000 0.99912  0.68197  0.16853  Biso   1.000  H
  N28      1.0000 0.14331  0.92891  0.15981  Biso   1.000  N
  N29      1.0000 0.14139  0.93282  0.12747  Biso   1.000  N
  H252     1.0000 0.18330  0.81883  0.14238  Biso   1.000  H
  H253     1.0000 0.19440  0.83758  0.11010  Biso   1.000  H
  H254     1.0000 0.14569  0.82878  0.04317  Biso   1.000  H
  N30      1.0000 0.90056  0.69019  0.20646  Biso   1.000  N
  H255     1.0000 0.83351  0.69777  0.27530  Biso   1.000  H
  H256     1.0000 0.82802  0.71948  0.16900  Biso   1.000  H
  C236     1.0000 0.18012  0.98060  0.14299  Biso   1.000  C
  C237     1.0000 0.91595  0.63214  0.26018  Biso   1.000  C
  H257     1.0000 0.21102  0.95819  0.11828  Biso   1.000  H
  H258     1.0000 0.89361  0.61332  0.30730  Biso   1.000  H
  C238     1.0000 0.61197  0.30204  0.66560  Biso   1.000  C
  N31      1.0000 0.60860  0.22330  0.64170  Biso   1.000  N
  N32      1.0000 0.61359  0.22022  0.66063  Biso   1.000  N
  H259     1.0000 0.57989  0.33061  0.66042  Biso   1.000  H
  C239     1.0000 0.65876  0.35258  0.67908  Biso   1.000  C
  C240     1.0000 0.55640  0.18573  0.63693  Biso   1.000  C
  C241     1.0000 0.56381  0.17963  0.63707  Biso   1.000  C
  C242     1.0000 0.65446  0.43709  0.70857  Biso   1.000  C
  C243     1.0000 0.70804  0.32072  0.65927  Biso   1.000  C
  C244     1.0000 0.55068  0.10982  0.70189  Biso   1.000  C
  H260     1.0000 0.54949  0.16621  0.57381  Biso   1.000  H
  H261     1.0000 0.53069  0.23011  0.65253  Biso   1.000  H
  C245     1.0000 0.53878  0.14238  0.72259  Biso   1.000  C
  H262     1.0000 0.54082  0.22279  0.60929  Biso   1.000  H
  H263     1.0000 0.56949  0.13320  0.59199  Biso   1.000  H
  H264     1.0000 0.62149  0.46060  0.72001  Biso   1.000  H
  C246     1.0000 0.69726  0.48700  0.72130  Biso   1.000  C
  C247     1.0000 0.75007  0.37300  0.66969  Biso   1.000  C
  H265     1.0000 0.71219  0.26331  0.63877  Biso   1.000  H
  C248     1.0000 0.55341  0.13377  0.80199  Biso   1.000  C
  H266     1.0000 0.51741  0.08130  0.68998  Biso   1.000  H
  H267     1.0000 0.57820  0.06769  0.68868  Biso   1.000  H
  H268     1.0000 0.50700  0.11168  0.70489  Biso   1.000  H
  H269     1.0000 0.56239  0.09999  0.75031  Biso   1.000  H
  C249     1.0000 0.52550  0.21007  0.79307  Biso   1.000  C
  H270     1.0000 0.69330  0.54338  0.74479  Biso   1.000  H
  C250     1.0000 0.74650  0.45745  0.70060  Biso   1.000  C
  H271     1.0000 0.78300  0.35072  0.65532  Biso   1.000  H
  C251     1.0000 0.51011  0.19157  0.83549  Biso   1.000  C
  H272     1.0000 0.58649  0.16319  0.81329  Biso   1.000  H
  H273     1.0000 0.55321  0.08041  0.83849  Biso   1.000  H
  H274     1.0000 0.50881  0.24359  0.79668  Biso   1.000  H
  C252     1.0000 0.50401  0.17732  0.88159  Biso   1.000  C
  H275     1.0000 0.50029  0.25008  0.76590  Biso   1.000  H
  H276     1.0000 0.55690  0.24353  0.80662  Biso   1.000  H
  C253     1.0000 0.79286  0.51281  0.71020  Biso   1.000  C
  C254     1.0000 0.51579  0.21957  0.93538  Biso   1.000  C
  H277     1.0000 0.47711  0.16088  0.82827  Biso   1.000  H
  C255     1.0000 0.50290  0.24359  0.95731  Biso   1.000  C
  H278     1.0000 0.46859  0.15657  0.87090  Biso   1.000  H
  H279     1.0000 0.52481  0.12761  0.90181  Biso   1.000  H
  C256     1.0000 0.84057  0.47685  0.72470  Biso   1.000  C
  C257     1.0000 0.78922  0.60163  0.70101  Biso   1.000  C
  N33      1.0000 0.56469  0.26819  0.94301  Biso   1.000  N
  H280     1.0000 0.48651  0.25631  0.95349  Biso   1.000  H
  H281     1.0000 0.51648  0.16858  0.97569  Biso   1.000  H
  N34      1.0000 0.55751  0.26748  0.97263  Biso   1.000  N
  H282     1.0000 0.48259  0.29439  0.93892  Biso   1.000  H
  H283     1.0000 0.48770  0.21900  0.01328  Biso   1.000  H
  H284     1.0000 0.84329  0.41642  0.73213  Biso   1.000  H
  C258     1.0000 0.88463  0.52688  0.72879  Biso   1.000  C
  C259     1.0000 0.83255  0.65416  0.70598  Biso   1.000  C
  H285     1.0000 0.75652  0.62700  0.69107  Biso   1.000  H
  C260     1.0000 0.56523  0.34757  0.96330  Biso   1.000  C
  C261     1.0000 0.93583  0.48507  0.73968  Biso   1.000  C
  C262     1.0000 0.88021  0.61550  0.71987  Biso   1.000  C
  C263     1.0000 0.82890  0.74896  0.69222  Biso   1.000  C
  C264     1.0000 0.61512  0.39163  0.96391  Biso   1.000  C
  H286     1.0000 0.53571  0.38270  0.95499  Biso   1.000  H
  C265     1.0000 0.97452  0.52232  0.79157  Biso   1.000  C
  C266     1.0000 0.94684  0.40832  0.69440  Biso   1.000  C
  H287     1.0000 0.91011  0.65018  0.72327  Biso   1.000  H
  C267     1.0000 0.86433  0.80464  0.73049  Biso   1.000  C
  C268     1.0000 0.78987  0.78402  0.63938  Biso   1.000  C
  C269     1.0000 0.65964  0.34879  0.93838  Biso   1.000  C
  C270     1.0000 0.61850  0.47698  0.98740  Biso   1.000  C
  H288     1.0000 0.96818  0.57511  0.82208  Biso   1.000  H
  C271     1.0000 0.02207  0.48346  0.79920  Biso   1.000  C
  C272     1.0000 0.99440  0.36998  0.70033  Biso   1.000  C
  H289     1.0000 0.92090  0.38193  0.65872  Biso   1.000  H
  H290     1.0000 0.89050  0.78222  0.76862  Biso   1.000  H
  C273     1.0000 0.86248  0.89262  0.71442  Biso   1.000  C
  C274     1.0000 0.78676  0.87168  0.62577  Biso   1.000  C
  H291     1.0000 0.76500  0.74729  0.61249  Biso   1.000  H
  C275     1.0000 0.70593  0.39169  0.93640  Biso   1.000  C
  H292     1.0000 0.65818  0.28977  0.92210  Biso   1.000  H
  C276     1.0000 0.66540  0.51859  0.98768  Biso   1.000  C
  H293     1.0000 0.58829  0.50767  0.00361  Biso   1.000  H
  H294     1.0000 0.04771  0.50883  0.83658  Biso   1.000  H
  C277     1.0000 0.03274  0.40730  0.75262  Biso   1.000  C
  H295     1.0000 0.00088  0.31803  0.66853  Biso   1.000  H
  H296     1.0000 0.88770  0.92948  0.74002  Biso   1.000  H
  C278     1.0000 0.82341  0.92608  0.66049  Biso   1.000  C
  H297     1.0000 0.75889  0.89468  0.59199  Biso   1.000  H
  C279     1.0000 0.71031  0.47640  0.96269  Biso   1.000  C
  H298     1.0000 0.73571  0.36202  0.91652  Biso   1.000  H
  H299     1.0000 0.66701  0.57729  0.00531  Biso   1.000  H
  C280     1.0000 0.08405  0.36786  0.76018  Biso   1.000  C
  C281     1.0000 0.81988  0.01940  0.64299  Biso   1.000  C
  C282     1.0000 0.76085  0.52206  0.96303  Biso   1.000  C
  H300     1.0000 0.10639  0.38668  0.80730  Biso   1.000  H
  N35      1.0000 0.09944  0.30981  0.70646  Biso   1.000  N
  H301     1.0000 0.78898  0.04181  0.61828  Biso   1.000  H
  N36      1.0000 0.85669  0.07109  0.65981  Biso   1.000  N
  N37      1.0000 0.85861  0.06718  0.62747  Biso   1.000  N
  C283     1.0000 0.80614  0.47460  0.97120  Biso   1.000  C
  C284     1.0000 0.76454  0.61120  0.95663  Biso   1.000  C
  C285     1.0000 0.15007  0.27256  0.72327  Biso   1.000  C
  C286     1.0000 0.85300  0.16492  0.65171  Biso   1.000  C
  C287     1.0000 0.84341  0.15580  0.60568  Biso   1.000  C
  C288     1.0000 0.85396  0.51339  0.97201  Biso   1.000  C
  H302     1.0000 0.80411  0.41391  0.97651  Biso   1.000  H
  C289     1.0000 0.81209  0.65320  0.95751  Biso   1.000  C
  H303     1.0000 0.73399  0.64427  0.95138  Biso   1.000  H
  C290     1.0000 0.14489  0.17706  0.74438  Biso   1.000  C
  H304     1.0000 0.16649  0.30223  0.77530  Biso   1.000  H
  H305     1.0000 0.17198  0.28052  0.66900  Biso   1.000  H
  C291     1.0000 0.87369  0.21058  0.73567  Biso   1.000  C
  H306     1.0000 0.81670  0.18117  0.64238  Biso   1.000  H
  H307     1.0000 0.87269  0.18393  0.59758  Biso   1.000  H
  C292     1.0000 0.87031  0.21322  0.67588  Biso   1.000  C
  H308     1.0000 0.80560  0.16242  0.61010  Biso   1.000  H
  H309     1.0000 0.85431  0.17122  0.54317  Biso   1.000  H
  C293     1.0000 0.90113  0.46150  0.98087  Biso   1.000  C
  C294     1.0000 0.85627  0.60259  0.96602  Biso   1.000  C
  C295     1.0000 0.81478  0.74742  0.95097  Biso   1.000  C
  C296     1.0000 0.10981  0.15799  0.82473  Biso   1.000  C
  H310     1.0000 0.13141  0.14733  0.68991  Biso   1.000  H
  H311     1.0000 0.17939  0.15343  0.75752  Biso   1.000  H
  C297     1.0000 0.85339  0.17700  0.82568  Biso   1.000  C
  H312     1.0000 0.91149  0.20551  0.73601  Biso   1.000  H
  H313     1.0000 0.86521  0.27243  0.73097  Biso   1.000  H
  H314     1.0000 0.88528  0.21913  0.81288  Biso   1.000  H
  C298     1.0000 0.86041  0.18811  0.77421  Biso   1.000  C
  H315     1.0000 0.85891  0.27320  0.66669  Biso   1.000  H
  H316     1.0000 0.90781  0.21129  0.66451  Biso   1.000  H
  C299     1.0000 0.90628  0.38347  0.93429  Biso   1.000  C
  C300     1.0000 0.94205  0.48789  0.03609  Biso   1.000  C
  H317     1.0000 0.88881  0.63002  0.96772  Biso   1.000  H
  C301     1.0000 0.85389  0.79327  0.99353  Biso   1.000  C
  C302     1.0000 0.77747  0.79430  0.90399  Biso   1.000  C
  C303     1.0000 0.12815  0.19369  0.91523  Biso   1.000  C
  H318     1.0000 0.07542  0.18188  0.81152  Biso   1.000  H
  H319     1.0000 0.10608  0.09492  0.83052  Biso   1.000  H
  C304     1.0000 0.79720  0.19748  0.84359  Biso   1.000  C
  H320     1.0000 0.87419  0.20172  0.87560  Biso   1.000  H
  H321     1.0000 0.85792  0.11393  0.82718  Biso   1.000  H
  C305     1.0000 0.80791  0.20429  0.81159  Biso   1.000  C
  H322     1.0000 0.86770  0.12600  0.78047  Biso   1.000  H
  C306     1.0000 0.95018  0.33248  0.94212  Biso   1.000  C
  H323     1.0000 0.87910  0.36459  0.89623  Biso   1.000  H
  H324     1.0000 0.94020  0.54133  0.06741  Biso   1.000  H
  C307     1.0000 0.98526  0.43639  0.04521  Biso   1.000  C
  C308     1.0000 0.85550  0.88331  0.99040  Biso   1.000  C
  H325     1.0000 0.87998  0.76309  0.02519  Biso   1.000  H
  H326     1.0000 0.75068  0.76463  0.87321  Biso   1.000  H
  C309     1.0000 0.77878  0.88279  0.90140  Biso   1.000  C
  C310     1.0000 0.08954  0.18637  0.99169  Biso   1.000  C
  H327     1.0000 0.15982  0.16312  0.93320  Biso   1.000  H
  H328     1.0000 0.13709  0.25503  0.90692  Biso   1.000  H
  C311     1.0000 0.77989  0.15863  0.93381  Biso   1.000  C
  C312     1.0000 0.79969  0.16800  0.90808  Biso   1.000  C
  H329     1.0000 0.77590  0.17430  0.79348  Biso   1.000  H
  H330     1.0000 0.79240  0.26061  0.84529  Biso   1.000  H
  H331     1.0000 0.78231  0.17841  0.77012  Biso   1.000  H
  H332     1.0000 0.80169  0.26697  0.81281  Biso   1.000  H
  C313     1.0000 0.99006  0.35939  0.99850  Biso   1.000  C
  H333     1.0000 0.95279  0.28020  0.90923  Biso   1.000  H
  H334     1.0000 0.01220  0.45437  0.08437  Biso   1.000  H
  C314     1.0000 0.81735  0.92833  0.94532  Biso   1.000  C
  H335     1.0000 0.88271  0.91343  0.01927  Biso   1.000  H
  H336     1.0000 0.75291  0.91311  0.86899  Biso   1.000  H
  N38      1.0000 0.04233  0.23390  0.97079  Biso   1.000  N
  H337     1.0000 0.08110  0.12510  0.00177  Biso   1.000  H
  H338     1.0000 0.10482  0.20930  0.04848  Biso   1.000  H
  N39      1.0000 0.77732  0.06339  0.92578  Biso   1.000  N
  N40      1.0000 0.79010  0.07379  0.90208  Biso   1.000  N
  H339     1.0000 0.80441  0.17462  0.98243  Biso   1.000  H
  H340     1.0000 0.74569  0.18162  0.95043  Biso   1.000  H
  H341     1.0000 0.76999  0.19671  0.93722  Biso   1.000  H
  H342     1.0000 0.83051  0.17892  0.94587  Biso   1.000  H
  C315     1.0000 0.03604  0.30460  0.01117  Biso   1.000  C
  C316     1.0000 0.81819  0.02351  0.95002  Biso   1.000  C
  H343     1.0000 0.06198  0.32368  0.05182  Biso   1.000  H
  H344     1.0000 0.84778  0.05363  0.97011  Biso   1.000  H
  Ne1      1.0000 0.19807  0.42879  0.31960  Biso   1.000  Ne
  He1      1.0000 0.15195  0.35389  0.33830  Biso   1.000  He
  He2      1.0000 0.21414  0.43163  0.33315  Biso   1.000  He
  Ar1      1.0000 0.19288  0.42959  0.32880  Biso   1.000  Ar
  Ne2      1.0000 0.69807  0.57121  0.31960  Biso   1.000  Ne
  He3      1.0000 0.65824  0.62765  0.33660  Biso   1.000  He
  He4      1.0000 0.71301  0.56853  0.33348  Biso   1.000  He
  Ar2      1.0000 0.69288  0.57041  0.32880  Biso   1.000  Ar
  Ne3      1.0000 0.30193  0.42879  0.81960  Biso   1.000  Ne
  He5      1.0000 0.35105  0.34330  0.83911  Biso   1.000  He
  He6      1.0000 0.25105  0.43660  0.82278  Biso   1.000  He
  Ar3      1.0000 0.30712  0.42959  0.82880  Biso   1.000  Ar
  Ne4      1.0000 0.80193  0.57121  0.81960  Biso   1.000  Ne
  He7      1.0000 0.84014  0.62367  0.83617  Biso   1.000  He
  He8      1.0000 0.78966  0.55587  0.84013  Biso   1.000  He
  Ar4      1.0000 0.80712  0.57041  0.82880  Biso   1.000  Ar
