data_image0
_cell_length_a       19.427
_cell_length_b       24.1
_cell_length_c       33.457
_cell_angle_alpha    90
_cell_angle_beta     103.78
_cell_angle_gamma    90

_symmetry_space_group_name_H-M    "P 1"
_symmetry_int_tables_number       1

loop_
  _symmetry_equiv_pos_as_xyz
  'x, y, z'

loop_
  _atom_site_label
  _atom_site_occupancy
  _atom_site_fract_x
  _atom_site_fract_y
  _atom_site_fract_z
  _atom_site_thermal_displace_type
  _atom_site_B_iso_or_equiv
  _atom_site_type_symbol
  O1       1.0000 0.46225  0.31490  0.45627  Biso   1.000  O
  C1       1.0000 0.41788  0.32440  0.41700  Biso   1.000  C
  H1       1.0000 0.50379  0.31730  0.45501  Biso   1.000  H
  C2       1.0000 0.46019  0.32469  0.38561  Biso   1.000  C
  C3       1.0000 0.37555  0.37631  0.41518  Biso   1.000  C
  H2       1.0000 0.38446  0.29332  0.41069  Biso   1.000  H
  O2       1.0000 0.41296  0.33021  0.34489  Biso   1.000  O
  O3       1.0000 0.50756  0.37141  0.39293  Biso   1.000  O
  H3       1.0000 0.48735  0.29021  0.38721  Biso   1.000  H
  C4       1.0000 0.32626  0.38149  0.37308  Biso   1.000  C
  O4       1.0000 0.33386  0.37531  0.44519  Biso   1.000  O
  H4       1.0000 0.40756  0.40830  0.42020  Biso   1.000  H
  C5       1.0000 0.36936  0.37651  0.33899  Biso   1.000  C
  C6       1.0000 0.58063  0.35959  0.39878  Biso   1.000  C
  O5       1.0000 0.29306  0.43589  0.37047  Biso   1.000  O
  H5       1.0000 0.28996  0.35249  0.36930  Biso   1.000  H
  H6       1.0000 0.30256  0.39880  0.43928  Biso   1.000  H
  C7       1.0000 0.32026  0.37129  0.29649  Biso   1.000  C
  H7       1.0000 0.39868  0.40979  0.33969  Biso   1.000  H
  C8       1.0000 0.62017  0.38149  0.44020  Biso   1.000  C
  H8       1.0000 0.58766  0.31942  0.39758  Biso   1.000  H
  C9       1.0000 0.60885  0.38859  0.36428  Biso   1.000  C
  C10      1.0000 0.21989  0.43751  0.35520  Biso   1.000  C
  O6       1.0000 0.27769  0.32220  0.29359  Biso   1.000  O
  H9       1.0000 0.28976  0.40361  0.29101  Biso   1.000  H
  H10      1.0000 0.34809  0.36992  0.27599  Biso   1.000  H
  O7       1.0000 0.60156  0.34979  0.47199  Biso   1.000  O
  C11      1.0000 0.69986  0.37440  0.44460  Biso   1.000  C
  H11      1.0000 0.60866  0.42071  0.44288  Biso   1.000  H
  O8       1.0000 0.68367  0.38602  0.37188  Biso   1.000  O
  H12      1.0000 0.59494  0.42780  0.36339  Biso   1.000  H
  C12      1.0000 0.57935  0.36382  0.32249  Biso   1.000  C
  O9       1.0000 0.20098  0.46959  0.31840  Biso   1.000  O
  H13      1.0000 0.20185  0.39971  0.34951  Biso   1.000  H
  C13      1.0000 0.18597  0.46382  0.38721  Biso   1.000  C
  H14      1.0000 0.23729  0.33071  0.29461  Biso   1.000  H
  H15      1.0000 0.55894  0.35299  0.47049  Biso   1.000  H
  O10      1.0000 0.73856  0.39349  0.48400  Biso   1.000  O
  C14      1.0000 0.72245  0.40631  0.41020  Biso   1.000  C
  H16      1.0000 0.71006  0.33490  0.44199  Biso   1.000  H
  O11      1.0000 0.59468  0.30631  0.32209  Biso   1.000  O
  H17      1.0000 0.52846  0.36921  0.31489  Biso   1.000  H
  H18      1.0000 0.59957  0.38270  0.30239  Biso   1.000  H
  C15      1.0000 0.22688  0.52722  0.32320  Biso   1.000  C
  O12      1.0000 0.20296  0.43162  0.42411  Biso   1.000  O
  H19      1.0000 0.13436  0.46320  0.37659  Biso   1.000  H
  C16      1.0000 0.20917  0.52419  0.39509  Biso   1.000  C
  H20      1.0000 0.76703  0.41730  0.48098  Biso   1.000  H
  O13      1.0000 0.70805  0.46278  0.41463  Biso   1.000  O
  H21      1.0000 0.77326  0.40112  0.41260  Biso   1.000  H
  H22      1.0000 0.62569  0.30120  0.30960  Biso   1.000  H
  C17      1.0000 0.19255  0.55461  0.35508  Biso   1.000  C
  H23      1.0000 0.27855  0.52739  0.33320  Biso   1.000  H
  C18      1.0000 0.20655  0.55120  0.28079  Biso   1.000  C
  H24      1.0000 0.16645  0.41871  0.42860  Biso   1.000  H
  O14      1.0000 0.17564  0.54929  0.42389  Biso   1.000  O
  H25      1.0000 0.26054  0.52510  0.40638  Biso   1.000  H
  C19      1.0000 0.76416  0.50162  0.41878  Biso   1.000  C
  O15      1.0000 0.22385  0.61000  0.36348  Biso   1.000  O
  H26      1.0000 0.14107  0.55739  0.34440  Biso   1.000  H
  O16      1.0000 0.24419  0.52929  0.25509  Biso   1.000  O
  H27      1.0000 0.15649  0.54469  0.26931  Biso   1.000  H
  H28      1.0000 0.21399  0.59100  0.28248  Biso   1.000  H
  H29      1.0000 0.20084  0.54560  0.44719  Biso   1.000  H
  C20      1.0000 0.77305  0.53432  0.45790  Biso   1.000  C
  H30      1.0000 0.80818  0.48162  0.41931  Biso   1.000  H
  C21      1.0000 0.74746  0.53929  0.38121  Biso   1.000  C
  C22      1.0000 0.18097  0.65830  0.35320  Biso   1.000  C
  H31      1.0000 0.27149  0.55278  0.24998  Biso   1.000  H
  O17      1.0000 0.79488  0.49838  0.49240  Biso   1.000  O
  C23      1.0000 0.82874  0.57950  0.46039  Biso   1.000  C
  H32      1.0000 0.72766  0.55149  0.45879  Biso   1.000  H
  O18      1.0000 0.80125  0.58249  0.38521  Biso   1.000  O
  H33      1.0000 0.70129  0.55689  0.37921  Biso   1.000  H
  C24      1.0000 0.74679  0.51041  0.34080  Biso   1.000  C
  O19      1.0000 0.19579  0.68651  0.32080  Biso   1.000  O
  H34      1.0000 0.13146  0.64610  0.34480  Biso   1.000  H
  C25      1.0000 0.18885  0.69290  0.39210  Biso   1.000  C
  H35      1.0000 0.75977  0.48581  0.49880  Biso   1.000  H
  O20      1.0000 0.84134  0.61029  0.49649  Biso   1.000  O
  C26      1.0000 0.80918  0.61419  0.42149  Biso   1.000  C
  H36      1.0000 0.87336  0.56071  0.45999  Biso   1.000  H
  O21      1.0000 0.81315  0.48191  0.34369  Biso   1.000  O
  H37      1.0000 0.70808  0.48398  0.33440  Biso   1.000  H
  H38      1.0000 0.73968  0.53751  0.31870  Biso   1.000  H
  C27      1.0000 0.26765  0.71091  0.32858  Biso   1.000  C
  O22      1.0000 0.17128  0.66290  0.42380  Biso   1.000  O
  H39      1.0000 0.15718  0.72502  0.38579  Biso   1.000  H
  C28      1.0000 0.26346  0.71320  0.40371  Biso   1.000  C
  H40      1.0000 0.80817  0.63170  0.49569  Biso   1.000  H
  O23      1.0000 0.74636  0.64249  0.42180  Biso   1.000  O
  H41      1.0000 0.84664  0.64162  0.42220  Biso   1.000  H
  H42      1.0000 0.80578  0.45228  0.33138  Biso   1.000  H
  C29      1.0000 0.28046  0.74519  0.36810  Biso   1.000  C
  H43      1.0000 0.30245  0.68071  0.33249  Biso   1.000  H
  C30      1.0000 0.27487  0.74469  0.29261  Biso   1.000  C
  H44      1.0000 0.12835  0.66419  0.42131  Biso   1.000  H
  O24      1.0000 0.27428  0.74851  0.43848  Biso   1.000  O
  H45      1.0000 0.29545  0.68129  0.41029  Biso   1.000  H
  C31      1.0000 0.74174  0.70270  0.41771  Biso   1.000  C
  O25      1.0000 0.35384  0.75909  0.37909  Biso   1.000  O
  H46      1.0000 0.25205  0.77921  0.36308  Biso   1.000  H
  O26      1.0000 0.26908  0.71261  0.25679  Biso   1.000  O
  O27      1.0000 0.22198  0.78979  0.28741  Biso   1.000  O
  H47      1.0000 0.28336  0.72979  0.45950  Biso   1.000  H
  C32      1.0000 0.71367  0.72432  0.45230  Biso   1.000  C
  H48      1.0000 0.78938  0.71780  0.41989  Biso   1.000  H
  C33      1.0000 0.69579  0.71680  0.37570  Biso   1.000  C
  C34      1.0000 0.37446  0.81552  0.37250  Biso   1.000  C
  H49      1.0000 0.30845  0.70809  0.25238  Biso   1.000  H
  H50      1.0000 0.22598  0.80992  0.26830  Biso   1.000  H
  O28      1.0000 0.76405  0.71340  0.49040  Biso   1.000  O
  C35      1.0000 0.70178  0.78618  0.44639  Biso   1.000  C
  H51      1.0000 0.66879  0.70589  0.45230  Biso   1.000  H
  O29      1.0000 0.68246  0.77680  0.37345  Biso   1.000  O
  H52      1.0000 0.65048  0.69722  0.37179  Biso   1.000  H
  C36      1.0000 0.72769  0.70440  0.34040  Biso   1.000  C
  O30      1.0000 0.41317  0.81801  0.34326  Biso   1.000  O
  H53      1.0000 0.33186  0.83851  0.36379  Biso   1.000  H
  C37      1.0000 0.41786  0.83631  0.41380  Biso   1.000  C
  H54      1.0000 0.80423  0.71361  0.48658  Biso   1.000  H
  O31      1.0000 0.67516  0.80851  0.47926  Biso   1.000  O
  C38      1.0000 0.65354  0.79880  0.40509  Biso   1.000  C
  H55      1.0000 0.74764  0.80361  0.44741  Biso   1.000  H
  O32      1.0000 0.79669  0.72722  0.34499  Biso   1.000  O
  H56      1.0000 0.73026  0.66440  0.33739  Biso   1.000  H
  H57      1.0000 0.69699  0.71888  0.31538  Biso   1.000  H
  C39      1.0000 0.47859  0.78801  0.35179  Biso   1.000  C
  O33      1.0000 0.37655  0.83481  0.44399  Biso   1.000  O
  H58      1.0000 0.43026  0.87510  0.41029  Biso   1.000  H
  C40      1.0000 0.48447  0.80490  0.42660  Biso   1.000  C
  H59      1.0000 0.63227  0.80320  0.47458  Biso   1.000  H
  O34      1.0000 0.58747  0.77278  0.40478  Biso   1.000  O
  H60      1.0000 0.64707  0.83900  0.40149  Biso   1.000  H
  H61      1.0000 0.79349  0.75859  0.33529  Biso   1.000  H
  C41      1.0000 0.52639  0.80701  0.39290  Biso   1.000  C
  H62      1.0000 0.46767  0.74859  0.35440  Biso   1.000  H
  C42      1.0000 0.51398  0.79349  0.31760  Biso   1.000  C
  H63      1.0000 0.34237  0.81419  0.43608  Biso   1.000  H
  O35      1.0000 0.52767  0.82759  0.46430  Biso   1.000  O
  H64      1.0000 0.47336  0.76618  0.43128  Biso   1.000  H
  H65      1.0000 0.54136  0.84531  0.39001  Biso   1.000  H
  O36      1.0000 0.53798  0.84859  0.31338  Biso   1.000  O
  H66      1.0000 0.55405  0.76838  0.32218  Biso   1.000  H
  H67      1.0000 0.48117  0.78261  0.29208  Biso   1.000  H
  H68      1.0000 0.56525  0.81058  0.47070  Biso   1.000  H
  H69      1.0000 0.52206  0.86950  0.32840  Biso   1.000  H
  O37      1.0000 0.53766  0.31490  0.54373  Biso   1.000  O
  C43      1.0000 0.58203  0.32440  0.58300  Biso   1.000  C
  H70      1.0000 0.49612  0.31730  0.54499  Biso   1.000  H
  C44      1.0000 0.53973  0.32469  0.61439  Biso   1.000  C
  H71      1.0000 0.61544  0.29332  0.58928  Biso   1.000  H
  C45      1.0000 0.62435  0.37631  0.58478  Biso   1.000  C
  O38      1.0000 0.49235  0.37141  0.60707  Biso   1.000  O
  O39      1.0000 0.58695  0.33021  0.65511  Biso   1.000  O
  H72      1.0000 0.51256  0.29021  0.61279  Biso   1.000  H
  C46      1.0000 0.67364  0.38149  0.62688  Biso   1.000  C
  O40      1.0000 0.66604  0.37531  0.55478  Biso   1.000  O
  H73      1.0000 0.59235  0.40830  0.57980  Biso   1.000  H
  C47      1.0000 0.41926  0.35959  0.60119  Biso   1.000  C
  C48      1.0000 0.63054  0.37651  0.66098  Biso   1.000  C
  O41      1.0000 0.70683  0.43589  0.62950  Biso   1.000  O
  H74      1.0000 0.70995  0.35249  0.63070  Biso   1.000  H
  H75      1.0000 0.69734  0.39880  0.56069  Biso   1.000  H
  C49      1.0000 0.37974  0.38149  0.55980  Biso   1.000  C
  H76      1.0000 0.41224  0.31942  0.60239  Biso   1.000  H
  C50      1.0000 0.39105  0.38859  0.63569  Biso   1.000  C
  H77      1.0000 0.60123  0.40979  0.66031  Biso   1.000  H
  C51      1.0000 0.67963  0.37129  0.70348  Biso   1.000  C
  C52      1.0000 0.78003  0.43751  0.64480  Biso   1.000  C
  O42      1.0000 0.39834  0.34979  0.52797  Biso   1.000  O
  C53      1.0000 0.30005  0.37440  0.55539  Biso   1.000  C
  H78      1.0000 0.39124  0.42071  0.55709  Biso   1.000  H
  O43      1.0000 0.31624  0.38602  0.62812  Biso   1.000  O
  H79      1.0000 0.40496  0.42780  0.63658  Biso   1.000  H
  C54      1.0000 0.42055  0.36382  0.67748  Biso   1.000  C
  O44      1.0000 0.72221  0.32220  0.70638  Biso   1.000  O
  H80      1.0000 0.71015  0.40361  0.70899  Biso   1.000  H
  H81      1.0000 0.65180  0.36992  0.72398  Biso   1.000  H
  O45      1.0000 0.79893  0.46959  0.68160  Biso   1.000  O
  H82      1.0000 0.79806  0.39971  0.65049  Biso   1.000  H
  C55      1.0000 0.81394  0.46382  0.61279  Biso   1.000  C
  H83      1.0000 0.44096  0.35299  0.52948  Biso   1.000  H
  O46      1.0000 0.26135  0.39349  0.51600  Biso   1.000  O
  C56      1.0000 0.27746  0.40631  0.58980  Biso   1.000  C
  H84      1.0000 0.28984  0.33490  0.55798  Biso   1.000  H
  O47      1.0000 0.40522  0.30631  0.67788  Biso   1.000  O
  H85      1.0000 0.47144  0.36921  0.68508  Biso   1.000  H
  H86      1.0000 0.40034  0.38270  0.69761  Biso   1.000  H
  H87      1.0000 0.76262  0.33071  0.70539  Biso   1.000  H
  C57      1.0000 0.77303  0.52722  0.67680  Biso   1.000  C
  O48      1.0000 0.79695  0.43162  0.57589  Biso   1.000  O
  H88      1.0000 0.86555  0.46320  0.62341  Biso   1.000  H
  C58      1.0000 0.79073  0.52419  0.60488  Biso   1.000  C
  H89      1.0000 0.23287  0.41730  0.51899  Biso   1.000  H
  O49      1.0000 0.29186  0.46278  0.58537  Biso   1.000  O
  H90      1.0000 0.22665  0.40112  0.58740  Biso   1.000  H
  H91      1.0000 0.37422  0.30120  0.69040  Biso   1.000  H
  C59      1.0000 0.80734  0.55461  0.64489  Biso   1.000  C
  H92      1.0000 0.72136  0.52739  0.66680  Biso   1.000  H
  C60      1.0000 0.79335  0.55120  0.71918  Biso   1.000  C
  H93      1.0000 0.83346  0.41871  0.57140  Biso   1.000  H
  O50      1.0000 0.82427  0.54929  0.57611  Biso   1.000  O
  H94      1.0000 0.73935  0.52510  0.59359  Biso   1.000  H
  C61      1.0000 0.23573  0.50162  0.58118  Biso   1.000  C
  O51      1.0000 0.77605  0.61000  0.63649  Biso   1.000  O
  H95      1.0000 0.85884  0.55739  0.65560  Biso   1.000  H
  O52      1.0000 0.75571  0.52929  0.74488  Biso   1.000  O
  H96      1.0000 0.84342  0.54469  0.73069  Biso   1.000  H
  H97      1.0000 0.78591  0.59100  0.71749  Biso   1.000  H
  H98      1.0000 0.79906  0.54560  0.55278  Biso   1.000  H
  C62      1.0000 0.22686  0.53432  0.54210  Biso   1.000  C
  H99      1.0000 0.19173  0.48162  0.58069  Biso   1.000  H
  C63      1.0000 0.25245  0.53929  0.61879  Biso   1.000  C
  C64      1.0000 0.81894  0.65830  0.64680  Biso   1.000  C
  H100     1.0000 0.72841  0.55278  0.74998  Biso   1.000  H
  O53      1.0000 0.20503  0.49838  0.50760  Biso   1.000  O
  C65      1.0000 0.17117  0.57950  0.53961  Biso   1.000  C
  H101     1.0000 0.27225  0.55149  0.54121  Biso   1.000  H
  O54      1.0000 0.19866  0.58249  0.61479  Biso   1.000  O
  H102     1.0000 0.29862  0.55689  0.62079  Biso   1.000  H
  C66      1.0000 0.25312  0.51041  0.65920  Biso   1.000  C
  O55      1.0000 0.80413  0.68651  0.67920  Biso   1.000  O
  H103     1.0000 0.86845  0.64610  0.65520  Biso   1.000  H
  C67      1.0000 0.81106  0.69290  0.60790  Biso   1.000  C
  H104     1.0000 0.24014  0.48581  0.50120  Biso   1.000  H
  O56      1.0000 0.15857  0.61029  0.50351  Biso   1.000  O
  C68      1.0000 0.19073  0.61419  0.57851  Biso   1.000  C
  H105     1.0000 0.12655  0.56071  0.54001  Biso   1.000  H
  O57      1.0000 0.18676  0.48191  0.65631  Biso   1.000  O
  H106     1.0000 0.29183  0.48398  0.66560  Biso   1.000  H
  H107     1.0000 0.26023  0.53751  0.68129  Biso   1.000  H
  C69      1.0000 0.73225  0.71091  0.67139  Biso   1.000  C
  O58      1.0000 0.82863  0.66290  0.57620  Biso   1.000  O
  H108     1.0000 0.84273  0.72502  0.61421  Biso   1.000  H
  C70      1.0000 0.73645  0.71320  0.59629  Biso   1.000  C
  H109     1.0000 0.19174  0.63170  0.50431  Biso   1.000  H
  O59      1.0000 0.25356  0.64249  0.57820  Biso   1.000  O
  H110     1.0000 0.15327  0.64162  0.57780  Biso   1.000  H
  H111     1.0000 0.19412  0.45228  0.66858  Biso   1.000  H
  C71      1.0000 0.71945  0.74519  0.63190  Biso   1.000  C
  H112     1.0000 0.69745  0.68071  0.66748  Biso   1.000  H
  C72      1.0000 0.72504  0.74469  0.70739  Biso   1.000  C
  H113     1.0000 0.87156  0.66419  0.57869  Biso   1.000  H
  O60      1.0000 0.72562  0.74851  0.56149  Biso   1.000  O
  H114     1.0000 0.70445  0.68129  0.58968  Biso   1.000  H
  C73      1.0000 0.25817  0.70270  0.58229  Biso   1.000  C
  O61      1.0000 0.64606  0.75909  0.62088  Biso   1.000  O
  H115     1.0000 0.74785  0.77921  0.63689  Biso   1.000  H
  O62      1.0000 0.73082  0.71261  0.74318  Biso   1.000  O
  O63      1.0000 0.77793  0.78979  0.71259  Biso   1.000  O
  H116     1.0000 0.71655  0.72979  0.54050  Biso   1.000  H
  C74      1.0000 0.28624  0.72432  0.54770  Biso   1.000  C
  H117     1.0000 0.21053  0.71780  0.58011  Biso   1.000  H
  C75      1.0000 0.30412  0.71680  0.62430  Biso   1.000  C
  C76      1.0000 0.62546  0.81552  0.62750  Biso   1.000  C
  H118     1.0000 0.69144  0.70809  0.74758  Biso   1.000  H
  H119     1.0000 0.77393  0.80992  0.73170  Biso   1.000  H
  O64      1.0000 0.23587  0.71340  0.50960  Biso   1.000  O
  C77      1.0000 0.29812  0.78618  0.55358  Biso   1.000  C
  H120     1.0000 0.33118  0.70589  0.54770  Biso   1.000  H
  O65      1.0000 0.31745  0.77680  0.62655  Biso   1.000  O
  H121     1.0000 0.34942  0.69722  0.62818  Biso   1.000  H
  C78      1.0000 0.27223  0.70440  0.65960  Biso   1.000  C
  C79      1.0000 0.58206  0.83631  0.58620  Biso   1.000  C
  O66      1.0000 0.58675  0.81801  0.65674  Biso   1.000  O
  H122     1.0000 0.66803  0.83851  0.63618  Biso   1.000  H
  H123     1.0000 0.19567  0.71361  0.51339  Biso   1.000  H
  O67      1.0000 0.32475  0.80851  0.52074  Biso   1.000  O
  C80      1.0000 0.34636  0.79880  0.59488  Biso   1.000  C
  H124     1.0000 0.25227  0.80361  0.55259  Biso   1.000  H
  O68      1.0000 0.20326  0.72722  0.65498  Biso   1.000  O
  H125     1.0000 0.26964  0.66440  0.66258  Biso   1.000  H
  H126     1.0000 0.30291  0.71888  0.68459  Biso   1.000  H
  C81      1.0000 0.51545  0.80490  0.57340  Biso   1.000  C
  O69      1.0000 0.62335  0.83481  0.55598  Biso   1.000  O
  H127     1.0000 0.56964  0.87510  0.58968  Biso   1.000  H
  C82      1.0000 0.52131  0.78801  0.64818  Biso   1.000  C
  H128     1.0000 0.36763  0.80320  0.52539  Biso   1.000  H
  O70      1.0000 0.41243  0.77278  0.59519  Biso   1.000  O
  H129     1.0000 0.35283  0.83900  0.59848  Biso   1.000  H
  H130     1.0000 0.20641  0.75859  0.66468  Biso   1.000  H
  C83      1.0000 0.47352  0.80701  0.60710  Biso   1.000  C
  O71      1.0000 0.47224  0.82759  0.53570  Biso   1.000  O
  H131     1.0000 0.52654  0.76618  0.56869  Biso   1.000  H
  H132     1.0000 0.65753  0.81419  0.56389  Biso   1.000  H
  H133     1.0000 0.53225  0.74859  0.64560  Biso   1.000  H
  C84      1.0000 0.48593  0.79349  0.68240  Biso   1.000  C
  H134     1.0000 0.45855  0.84531  0.60999  Biso   1.000  H
  H135     1.0000 0.43466  0.81058  0.52930  Biso   1.000  H
  O72      1.0000 0.46191  0.84859  0.68659  Biso   1.000  O
  H136     1.0000 0.44585  0.76838  0.67779  Biso   1.000  H
  H137     1.0000 0.51873  0.78261  0.70788  Biso   1.000  H
  H138     1.0000 0.47785  0.86950  0.67160  Biso   1.000  H
  O73      1.0000 0.67125  0.16290  0.42380  Biso   1.000  O
  C85      1.0000 0.68887  0.19290  0.39210  Biso   1.000  C
  H139     1.0000 0.62838  0.16419  0.42131  Biso   1.000  H
  C86      1.0000 0.68095  0.15830  0.35320  Biso   1.000  C
  H140     1.0000 0.65715  0.22502  0.38579  Biso   1.000  H
  C87      1.0000 0.76349  0.21320  0.40371  Biso   1.000  C
  O74      1.0000 0.69576  0.18651  0.32080  Biso   1.000  O
  O75      1.0000 0.72387  0.11000  0.36348  Biso   1.000  O
  H141     1.0000 0.63148  0.14610  0.34480  Biso   1.000  H
  C88      1.0000 0.78048  0.24519  0.36810  Biso   1.000  C
  O76      1.0000 0.77425  0.24851  0.43848  Biso   1.000  O
  H142     1.0000 0.79548  0.18129  0.41029  Biso   1.000  H
  C89      1.0000 0.76767  0.21091  0.32858  Biso   1.000  C
  C90      1.0000 0.69258  0.05461  0.35508  Biso   1.000  C
  O77      1.0000 0.85386  0.25909  0.37909  Biso   1.000  O
  H143     1.0000 0.75207  0.27921  0.36308  Biso   1.000  H
  H144     1.0000 0.78334  0.22979  0.45950  Biso   1.000  H
  H145     1.0000 0.80248  0.18071  0.33249  Biso   1.000  H
  C91      1.0000 0.77489  0.24469  0.29261  Biso   1.000  C
  C92      1.0000 0.70915  0.02419  0.39509  Biso   1.000  C
  H146     1.0000 0.64105  0.05739  0.34440  Biso   1.000  H
  C93      1.0000 0.72686  0.02722  0.32320  Biso   1.000  C
  C94      1.0000 0.87448  0.31552  0.37250  Biso   1.000  C
  O78      1.0000 0.76905  0.21261  0.25679  Biso   1.000  O
  O79      1.0000 0.72196  0.28979  0.28741  Biso   1.000  O
  O80      1.0000 0.67566  0.04929  0.42389  Biso   1.000  O
  H147     1.0000 0.76057  0.02510  0.40638  Biso   1.000  H
  C95      1.0000 0.68599  0.96382  0.38721  Biso   1.000  C
  H148     1.0000 0.77857  0.02739  0.33320  Biso   1.000  H
  C96      1.0000 0.70658  0.05120  0.28079  Biso   1.000  C
  O81      1.0000 0.70095  0.96959  0.31840  Biso   1.000  O
  O82      1.0000 0.91319  0.31801  0.34326  Biso   1.000  O
  H149     1.0000 0.83184  0.33851  0.36379  Biso   1.000  H
  C97      1.0000 0.91788  0.33631  0.41380  Biso   1.000  C
  H150     1.0000 0.80848  0.20809  0.25238  Biso   1.000  H
  H151     1.0000 0.72595  0.30992  0.26830  Biso   1.000  H
  H152     1.0000 0.70087  0.04560  0.44719  Biso   1.000  H
  O83      1.0000 0.70298  0.93162  0.42411  Biso   1.000  O
  C98      1.0000 0.71986  0.93751  0.35520  Biso   1.000  C
  H153     1.0000 0.63438  0.96320  0.37659  Biso   1.000  H
  O84      1.0000 0.74417  0.02929  0.25509  Biso   1.000  O
  H154     1.0000 0.65647  0.04469  0.26931  Biso   1.000  H
  H155     1.0000 0.71396  0.09100  0.28248  Biso   1.000  H
  C99      1.0000 0.97856  0.28801  0.35179  Biso   1.000  C
  O85      1.0000 0.87658  0.33481  0.44399  Biso   1.000  O
  H156     1.0000 0.93024  0.37510  0.41029  Biso   1.000  H
  C100     1.0000 0.98444  0.30490  0.42660  Biso   1.000  C
  H157     1.0000 0.66648  0.91871  0.42860  Biso   1.000  H
  O86      1.0000 0.79304  0.93589  0.37047  Biso   1.000  O
  H158     1.0000 0.70188  0.89971  0.34951  Biso   1.000  H
  H159     1.0000 0.77146  0.05278  0.24998  Biso   1.000  H
  H160     1.0000 0.96769  0.24859  0.35440  Biso   1.000  H
  C101     1.0000 0.02636  0.30701  0.39290  Biso   1.000  C
  C102     1.0000 0.01395  0.29349  0.31760  Biso   1.000  C
  H161     1.0000 0.84235  0.31419  0.43608  Biso   1.000  H
  H162     1.0000 0.97334  0.26618  0.43128  Biso   1.000  H
  O87      1.0000 0.02765  0.32759  0.46430  Biso   1.000  O
  C103     1.0000 0.82628  0.88149  0.37308  Biso   1.000  C
  O88      1.0000 0.08745  0.27278  0.40478  Biso   1.000  O
  H163     1.0000 0.04139  0.34531  0.39001  Biso   1.000  H
  H164     1.0000 0.98114  0.28261  0.29208  Biso   1.000  H
  O89      1.0000 0.03796  0.34859  0.31338  Biso   1.000  O
  H165     1.0000 0.05408  0.26838  0.32218  Biso   1.000  H
  H166     1.0000 0.06528  0.31058  0.47070  Biso   1.000  H
  C104     1.0000 0.87557  0.87631  0.41518  Biso   1.000  C
  H167     1.0000 0.78999  0.85249  0.36930  Biso   1.000  H
  C105     1.0000 0.86938  0.87651  0.33899  Biso   1.000  C
  C106     1.0000 0.15356  0.29880  0.40509  Biso   1.000  C
  H168     1.0000 0.02209  0.36950  0.32840  Biso   1.000  H
  O90      1.0000 0.83383  0.87531  0.44519  Biso   1.000  O
  C107     1.0000 0.91786  0.82440  0.41700  Biso   1.000  C
  H169     1.0000 0.90759  0.90830  0.42020  Biso   1.000  H
  O91      1.0000 0.91298  0.83021  0.34489  Biso   1.000  O
  H170     1.0000 0.89865  0.90979  0.33969  Biso   1.000  H
  C108     1.0000 0.82029  0.87129  0.29649  Biso   1.000  C
  O92      1.0000 0.18249  0.27680  0.37345  Biso   1.000  O
  H171     1.0000 0.14704  0.33900  0.40149  Biso   1.000  H
  C109     1.0000 0.20175  0.28618  0.44639  Biso   1.000  C
  H172     1.0000 0.80253  0.89880  0.43928  Biso   1.000  H
  O93      1.0000 0.96228  0.81490  0.45627  Biso   1.000  O
  C110     1.0000 0.96016  0.82469  0.38561  Biso   1.000  C
  H173     1.0000 0.88449  0.79332  0.41069  Biso   1.000  H
  O94      1.0000 0.77767  0.82220  0.29359  Biso   1.000  O
  H174     1.0000 0.78978  0.90361  0.29101  Biso   1.000  H
  H175     1.0000 0.84807  0.86992  0.27599  Biso   1.000  H
  C111     1.0000 0.19576  0.21680  0.37570  Biso   1.000  C
  O95      1.0000 0.17513  0.30851  0.47926  Biso   1.000  O
  H176     1.0000 0.24767  0.30361  0.44741  Biso   1.000  H
  C112     1.0000 0.21365  0.22432  0.45230  Biso   1.000  C
  H177     1.0000 0.00376  0.81730  0.45501  Biso   1.000  H
  H178     1.0000 0.98738  0.79021  0.38721  Biso   1.000  H
  O96      1.0000 0.00759  0.87141  0.39293  Biso   1.000  O
  H179     1.0000 0.73726  0.83071  0.29461  Biso   1.000  H
  C113     1.0000 0.24177  0.20270  0.41771  Biso   1.000  C
  H180     1.0000 0.15046  0.19722  0.37179  Biso   1.000  H
  C114     1.0000 0.22766  0.20440  0.34040  Biso   1.000  C
  H181     1.0000 0.13224  0.30320  0.47458  Biso   1.000  H
  O97      1.0000 0.26407  0.21340  0.49040  Biso   1.000  O
  H182     1.0000 0.16876  0.20589  0.45230  Biso   1.000  H
  C115     1.0000 0.08066  0.85959  0.39878  Biso   1.000  C
  O98      1.0000 0.24638  0.14249  0.42180  Biso   1.000  O
  H183     1.0000 0.28935  0.21780  0.41989  Biso   1.000  H
  O99      1.0000 0.29666  0.22722  0.34499  Biso   1.000  O
  H184     1.0000 0.23028  0.16440  0.33739  Biso   1.000  H
  H185     1.0000 0.19696  0.21888  0.31538  Biso   1.000  H
  H186     1.0000 0.30425  0.21361  0.48658  Biso   1.000  H
  C116     1.0000 0.12015  0.88149  0.44020  Biso   1.000  C
  H187     1.0000 0.08763  0.81942  0.39758  Biso   1.000  H
  C117     1.0000 0.10887  0.88859  0.36428  Biso   1.000  C
  C118     1.0000 0.30916  0.11419  0.42149  Biso   1.000  C
  H188     1.0000 0.29346  0.25859  0.33529  Biso   1.000  H
  O100     1.0000 0.10153  0.84979  0.47199  Biso   1.000  O
  C119     1.0000 0.19989  0.87440  0.44460  Biso   1.000  C
  H189     1.0000 0.10863  0.92071  0.44288  Biso   1.000  H
  O101     1.0000 0.18364  0.88602  0.37188  Biso   1.000  O
  H190     1.0000 0.09497  0.92780  0.36339  Biso   1.000  H
  C120     1.0000 0.07937  0.86382  0.32249  Biso   1.000  C
  O102     1.0000 0.30127  0.08249  0.38521  Biso   1.000  O
  H191     1.0000 0.34666  0.14162  0.42220  Biso   1.000  H
  C121     1.0000 0.32877  0.07950  0.46039  Biso   1.000  C
  H192     1.0000 0.05896  0.85299  0.47049  Biso   1.000  H
  O103     1.0000 0.23854  0.89349  0.48400  Biso   1.000  O
  C122     1.0000 0.22247  0.90631  0.41020  Biso   1.000  C
  H193     1.0000 0.21003  0.83490  0.44199  Biso   1.000  H
  O104     1.0000 0.09465  0.80631  0.32209  Biso   1.000  O
  H194     1.0000 0.02849  0.86921  0.31489  Biso   1.000  H
  H195     1.0000 0.09960  0.88270  0.30239  Biso   1.000  H
  C123     1.0000 0.24749  0.03929  0.38121  Biso   1.000  C
  O105     1.0000 0.34136  0.11029  0.49649  Biso   1.000  O
  H196     1.0000 0.37334  0.06071  0.45999  Biso   1.000  H
  C124     1.0000 0.27308  0.03432  0.45790  Biso   1.000  C
  H197     1.0000 0.26705  0.91730  0.48098  Biso   1.000  H
  O106     1.0000 0.20808  0.96278  0.41463  Biso   1.000  O
  H198     1.0000 0.27329  0.90112  0.41260  Biso   1.000  H
  H199     1.0000 0.12566  0.80120  0.30960  Biso   1.000  H
  C125     1.0000 0.26414  0.00162  0.41878  Biso   1.000  C
  H200     1.0000 0.20127  0.05689  0.37921  Biso   1.000  H
  C126     1.0000 0.24677  0.01041  0.34080  Biso   1.000  C
  H201     1.0000 0.30814  0.13170  0.49569  Biso   1.000  H
  O107     1.0000 0.29485  0.99838  0.49240  Biso   1.000  O
  H202     1.0000 0.22763  0.05149  0.45879  Biso   1.000  H
  H203     1.0000 0.30816  0.98162  0.41931  Biso   1.000  H
  O108     1.0000 0.31317  0.98191  0.34369  Biso   1.000  O
  H204     1.0000 0.20806  0.98398  0.33440  Biso   1.000  H
  H205     1.0000 0.23966  0.03751  0.31870  Biso   1.000  H
  H206     1.0000 0.25975  0.98581  0.49880  Biso   1.000  H
  H207     1.0000 0.30575  0.95228  0.33138  Biso   1.000  H
  O109     1.0000 0.32866  0.16290  0.57620  Biso   1.000  O
  C127     1.0000 0.31104  0.19290  0.60790  Biso   1.000  C
  H208     1.0000 0.37153  0.16419  0.57869  Biso   1.000  H
  C128     1.0000 0.23643  0.21320  0.59629  Biso   1.000  C
  C129     1.0000 0.31896  0.15830  0.64680  Biso   1.000  C
  H209     1.0000 0.34276  0.22502  0.61421  Biso   1.000  H
  O110     1.0000 0.22565  0.24851  0.56149  Biso   1.000  O
  H210     1.0000 0.20442  0.18129  0.58968  Biso   1.000  H
  C130     1.0000 0.21943  0.24519  0.63190  Biso   1.000  C
  O111     1.0000 0.27602  0.11000  0.63649  Biso   1.000  O
  O112     1.0000 0.30415  0.18651  0.67920  Biso   1.000  O
  H211     1.0000 0.36843  0.14610  0.65520  Biso   1.000  H
  H212     1.0000 0.21657  0.22979  0.54050  Biso   1.000  H
  O113     1.0000 0.14603  0.25909  0.62088  Biso   1.000  O
  H213     1.0000 0.24783  0.27921  0.63689  Biso   1.000  H
  C131     1.0000 0.23223  0.21091  0.67139  Biso   1.000  C
  C132     1.0000 0.30732  0.05461  0.64489  Biso   1.000  C
  C133     1.0000 0.12543  0.31552  0.62750  Biso   1.000  C
  H214     1.0000 0.19742  0.18071  0.66748  Biso   1.000  H
  C134     1.0000 0.22502  0.24469  0.70739  Biso   1.000  C
  C135     1.0000 0.29075  0.02419  0.60488  Biso   1.000  C
  H215     1.0000 0.35886  0.05739  0.65560  Biso   1.000  H
  C136     1.0000 0.27305  0.02722  0.67680  Biso   1.000  C
  O114     1.0000 0.08672  0.31801  0.65674  Biso   1.000  O
  H216     1.0000 0.16806  0.33851  0.63618  Biso   1.000  H
  C137     1.0000 0.08203  0.33631  0.58620  Biso   1.000  C
  O115     1.0000 0.23085  0.21261  0.74318  Biso   1.000  O
  O116     1.0000 0.27796  0.28979  0.71259  Biso   1.000  O
  O117     1.0000 0.32425  0.04929  0.57611  Biso   1.000  O
  H217     1.0000 0.23933  0.02510  0.59359  Biso   1.000  H
  C138     1.0000 0.31392  0.96382  0.61279  Biso   1.000  C
  H218     1.0000 0.22134  0.02739  0.66680  Biso   1.000  H
  C139     1.0000 0.29332  0.05120  0.71918  Biso   1.000  C
  O118     1.0000 0.29896  0.96959  0.68160  Biso   1.000  O
  C140     1.0000 0.02134  0.28801  0.64818  Biso   1.000  C
  O119     1.0000 0.12332  0.33481  0.55598  Biso   1.000  O
  H219     1.0000 0.06966  0.37510  0.58968  Biso   1.000  H
  C141     1.0000 0.01547  0.30490  0.57340  Biso   1.000  C
  H220     1.0000 0.19142  0.20809  0.74758  Biso   1.000  H
  H221     1.0000 0.27396  0.30992  0.73170  Biso   1.000  H
  H222     1.0000 0.29903  0.04560  0.55278  Biso   1.000  H
  O120     1.0000 0.29693  0.93162  0.57589  Biso   1.000  O
  C142     1.0000 0.28005  0.93751  0.64480  Biso   1.000  C
  H223     1.0000 0.36553  0.96320  0.62341  Biso   1.000  H
  O121     1.0000 0.25573  0.02929  0.74488  Biso   1.000  O
  H224     1.0000 0.34344  0.04469  0.73069  Biso   1.000  H
  H225     1.0000 0.28593  0.09100  0.71749  Biso   1.000  H
  H226     1.0000 0.03222  0.24859  0.64560  Biso   1.000  H
  C143     1.0000 0.97355  0.30701  0.60710  Biso   1.000  C
  C144     1.0000 0.98596  0.29349  0.68240  Biso   1.000  C
  H227     1.0000 0.15755  0.31419  0.56389  Biso   1.000  H
  H228     1.0000 0.02656  0.26618  0.56869  Biso   1.000  H
  O122     1.0000 0.97226  0.32759  0.53570  Biso   1.000  O
  H229     1.0000 0.33343  0.91871  0.57140  Biso   1.000  H
  O123     1.0000 0.20686  0.93589  0.62950  Biso   1.000  O
  H230     1.0000 0.29803  0.89971  0.65049  Biso   1.000  H
  H231     1.0000 0.22844  0.05278  0.74998  Biso   1.000  H
  O124     1.0000 0.91245  0.27278  0.59519  Biso   1.000  O
  H232     1.0000 0.95852  0.34531  0.60999  Biso   1.000  H
  H233     1.0000 0.01875  0.28261  0.70788  Biso   1.000  H
  O125     1.0000 0.96194  0.34859  0.68659  Biso   1.000  O
  H234     1.0000 0.94582  0.26838  0.67779  Biso   1.000  H
  H235     1.0000 0.93463  0.31058  0.52930  Biso   1.000  H
  C145     1.0000 0.17361  0.88149  0.62688  Biso   1.000  C
  C146     1.0000 0.84633  0.29880  0.59488  Biso   1.000  C
  H236     1.0000 0.97782  0.36950  0.67160  Biso   1.000  H
  C147     1.0000 0.12433  0.87631  0.58478  Biso   1.000  C
  H237     1.0000 0.20993  0.85249  0.63070  Biso   1.000  H
  C148     1.0000 0.13052  0.87651  0.66098  Biso   1.000  C
  O126     1.0000 0.81742  0.27680  0.62655  Biso   1.000  O
  H238     1.0000 0.85286  0.33900  0.59848  Biso   1.000  H
  C149     1.0000 0.79815  0.28618  0.55358  Biso   1.000  C
  O127     1.0000 0.16607  0.87531  0.55478  Biso   1.000  O
  C150     1.0000 0.08205  0.82440  0.58300  Biso   1.000  C
  H239     1.0000 0.09232  0.90830  0.57980  Biso   1.000  H
  O128     1.0000 0.08693  0.83021  0.65511  Biso   1.000  O
  H240     1.0000 0.10126  0.90979  0.66031  Biso   1.000  H
  C151     1.0000 0.17961  0.87129  0.70348  Biso   1.000  C
  C152     1.0000 0.80415  0.21680  0.62430  Biso   1.000  C
  O129     1.0000 0.82478  0.30851  0.52074  Biso   1.000  O
  H241     1.0000 0.75224  0.30361  0.55259  Biso   1.000  H
  C153     1.0000 0.78627  0.22432  0.54770  Biso   1.000  C
  H242     1.0000 0.19737  0.89880  0.56069  Biso   1.000  H
  O130     1.0000 0.03764  0.81490  0.54373  Biso   1.000  O
  C154     1.0000 0.03975  0.82469  0.61439  Biso   1.000  C
  H243     1.0000 0.11546  0.79332  0.58928  Biso   1.000  H
  O131     1.0000 0.22223  0.82220  0.70638  Biso   1.000  O
  H244     1.0000 0.21013  0.90361  0.70899  Biso   1.000  H
  H245     1.0000 0.15183  0.86992  0.72398  Biso   1.000  H
  C155     1.0000 0.75814  0.20270  0.58229  Biso   1.000  C
  H246     1.0000 0.84944  0.19722  0.62818  Biso   1.000  H
  C156     1.0000 0.77225  0.20440  0.65960  Biso   1.000  C
  H247     1.0000 0.86766  0.30320  0.52539  Biso   1.000  H
  O132     1.0000 0.73584  0.21340  0.50960  Biso   1.000  O
  H248     1.0000 0.83115  0.20589  0.54770  Biso   1.000  H
  H249     1.0000 0.99615  0.81730  0.54499  Biso   1.000  H
  O133     1.0000 0.99232  0.87141  0.60707  Biso   1.000  O
  H250     1.0000 0.01253  0.79021  0.61279  Biso   1.000  H
  H251     1.0000 0.26265  0.83071  0.70539  Biso   1.000  H
  O134     1.0000 0.75353  0.14249  0.57820  Biso   1.000  O
  H252     1.0000 0.71056  0.21780  0.58011  Biso   1.000  H
  O135     1.0000 0.70323  0.22722  0.65498  Biso   1.000  O
  H253     1.0000 0.76961  0.16440  0.66258  Biso   1.000  H
  H254     1.0000 0.80294  0.21888  0.68459  Biso   1.000  H
  H255     1.0000 0.69565  0.21361  0.51339  Biso   1.000  H
  C157     1.0000 0.91924  0.85959  0.60119  Biso   1.000  C
  C158     1.0000 0.69075  0.11419  0.57851  Biso   1.000  C
  H256     1.0000 0.70644  0.25859  0.66468  Biso   1.000  H
  C159     1.0000 0.87976  0.88149  0.55980  Biso   1.000  C
  H257     1.0000 0.91227  0.81942  0.60239  Biso   1.000  H
  C160     1.0000 0.89103  0.88859  0.63569  Biso   1.000  C
  O136     1.0000 0.69864  0.08249  0.61479  Biso   1.000  O
  H258     1.0000 0.65325  0.14162  0.57780  Biso   1.000  H
  C161     1.0000 0.67114  0.07950  0.53961  Biso   1.000  C
  O137     1.0000 0.89837  0.84979  0.52797  Biso   1.000  O
  C162     1.0000 0.80003  0.87440  0.55539  Biso   1.000  C
  H259     1.0000 0.89126  0.92071  0.55709  Biso   1.000  H
  O138     1.0000 0.81627  0.88602  0.62812  Biso   1.000  O
  H260     1.0000 0.90493  0.92780  0.63658  Biso   1.000  H
  C163     1.0000 0.92052  0.86382  0.67748  Biso   1.000  C
  C164     1.0000 0.75242  0.03929  0.61879  Biso   1.000  C
  O139     1.0000 0.65855  0.11029  0.50351  Biso   1.000  O
  H261     1.0000 0.62657  0.06071  0.54001  Biso   1.000  H
  C165     1.0000 0.72683  0.03432  0.54210  Biso   1.000  C
  H262     1.0000 0.94094  0.85299  0.52948  Biso   1.000  H
  O140     1.0000 0.76137  0.89349  0.51600  Biso   1.000  O
  C166     1.0000 0.77744  0.90631  0.58980  Biso   1.000  C
  H263     1.0000 0.78986  0.83490  0.55798  Biso   1.000  H
  O141     1.0000 0.90525  0.80631  0.67788  Biso   1.000  O
  H264     1.0000 0.97141  0.86921  0.68508  Biso   1.000  H
  H265     1.0000 0.90037  0.88270  0.69761  Biso   1.000  H
  C167     1.0000 0.73576  0.00162  0.58118  Biso   1.000  C
  H266     1.0000 0.79864  0.05689  0.62079  Biso   1.000  H
  C168     1.0000 0.75314  0.01041  0.65920  Biso   1.000  C
  H267     1.0000 0.69177  0.13170  0.50431  Biso   1.000  H
  O142     1.0000 0.70506  0.99838  0.50760  Biso   1.000  O
  H268     1.0000 0.77228  0.05149  0.54121  Biso   1.000  H
  H269     1.0000 0.73284  0.91730  0.51899  Biso   1.000  H
  O143     1.0000 0.79183  0.96278  0.58537  Biso   1.000  O
  H270     1.0000 0.72663  0.90112  0.58740  Biso   1.000  H
  H271     1.0000 0.87425  0.80120  0.69040  Biso   1.000  H
  H272     1.0000 0.69175  0.98162  0.58069  Biso   1.000  H
  O144     1.0000 0.68674  0.98191  0.65631  Biso   1.000  O
  H273     1.0000 0.79185  0.98398  0.66560  Biso   1.000  H
  H274     1.0000 0.76025  0.03751  0.68129  Biso   1.000  H
  H275     1.0000 0.74017  0.98581  0.50120  Biso   1.000  H
  H276     1.0000 0.69414  0.95228  0.66858  Biso   1.000  H
  O145     1.0000 0.38897  0.38340  0.21001  Biso   1.000  O
  H277     1.0000 0.38898  0.37668  0.23410  Biso   1.000  H
  C169     1.0000 0.43200  0.43411  0.20810  Biso   1.000  C
  C170     1.0000 0.39698  0.46809  0.17080  Biso   1.000  C
  H278     1.0000 0.47937  0.42369  0.20650  Biso   1.000  H
  H279     1.0000 0.43569  0.45610  0.23290  Biso   1.000  H
  O146     1.0000 0.33247  0.48830  0.17729  Biso   1.000  O
  C171     1.0000 0.38487  0.43249  0.13061  Biso   1.000  C
  H280     1.0000 0.42771  0.49959  0.16840  Biso   1.000  H
  C172     1.0000 0.29160  0.51950  0.14430  Biso   1.000  C
  O147     1.0000 0.45098  0.41992  0.12061  Biso   1.000  O
  C173     1.0000 0.33930  0.46481  0.09469  Biso   1.000  C
  H281     1.0000 0.36088  0.39780  0.13449  Biso   1.000  H
  O148     1.0000 0.32948  0.56560  0.13461  Biso   1.000  O
  H282     1.0000 0.24809  0.53220  0.15141  Biso   1.000  H
  C174     1.0000 0.27269  0.48432  0.10510  Biso   1.000  C
  C175     1.0000 0.47939  0.36689  0.12889  Biso   1.000  C
  O149     1.0000 0.32348  0.42801  0.06001  Biso   1.000  O
  H283     1.0000 0.36592  0.49680  0.08829  Biso   1.000  H
  C176     1.0000 0.30321  0.62112  0.14160  Biso   1.000  C
  O150     1.0000 0.22830  0.51332  0.07229  Biso   1.000  O
  H284     1.0000 0.24682  0.45149  0.11091  Biso   1.000  H
  O151     1.0000 0.54229  0.36618  0.15951  Biso   1.000  O
  H285     1.0000 0.44461  0.34411  0.13821  Biso   1.000  H
  C177     1.0000 0.48981  0.34249  0.08940  Biso   1.000  C
  H286     1.0000 0.29852  0.44398  0.04019  Biso   1.000  H
  C178     1.0000 0.29509  0.65398  0.10211  Biso   1.000  C
  H287     1.0000 0.25809  0.61871  0.14981  Biso   1.000  H
  C179     1.0000 0.36027  0.64921  0.17529  Biso   1.000  C
  H288     1.0000 0.24892  0.51759  0.05379  Biso   1.000  H
  C180     1.0000 0.59610  0.39602  0.14901  Biso   1.000  C
  O152     1.0000 0.42441  0.34390  0.05810  Biso   1.000  O
  H289     1.0000 0.50530  0.30390  0.09429  Biso   1.000  H
  C181     1.0000 0.54480  0.37398  0.07589  Biso   1.000  C
  O153     1.0000 0.23558  0.62801  0.07161  Biso   1.000  O
  C182     1.0000 0.27727  0.71149  0.10999  Biso   1.000  C
  H290     1.0000 0.33877  0.65261  0.09239  Biso   1.000  H
  O154     1.0000 0.34230  0.70651  0.17880  Biso   1.000  O
  H291     1.0000 0.40558  0.64730  0.16729  Biso   1.000  H
  C183     1.0000 0.36907  0.62220  0.21619  Biso   1.000  C
  C184     1.0000 0.61479  0.37340  0.10950  Biso   1.000  C
  H292     1.0000 0.57939  0.43419  0.14341  Biso   1.000  H
  C185     1.0000 0.65810  0.39722  0.18520  Biso   1.000  C
  H293     1.0000 0.41600  0.31290  0.04801  Biso   1.000  H
  O155     1.0000 0.55828  0.35071  0.03711  Biso   1.000  O
  H294     1.0000 0.52891  0.41249  0.07091  Biso   1.000  H
  H295     1.0000 0.24078  0.59419  0.07211  Biso   1.000  H
  O156     1.0000 0.26352  0.74419  0.07220  Biso   1.000  O
  C186     1.0000 0.33476  0.73730  0.14209  Biso   1.000  C
  H296     1.0000 0.23411  0.71112  0.12021  Biso   1.000  H
  O157     1.0000 0.30319  0.61959  0.22801  Biso   1.000  O
  H297     1.0000 0.38745  0.58498  0.21509  Biso   1.000  H
  H298     1.0000 0.40307  0.64299  0.23660  Biso   1.000  H
  O158     1.0000 0.66539  0.40568  0.09719  Biso   1.000  O
  H299     1.0000 0.63212  0.33519  0.11421  Biso   1.000  H
  O159     1.0000 0.68887  0.34079  0.19120  Biso   1.000  O
  H300     1.0000 0.69319  0.42332  0.18040  Biso   1.000  H
  H301     1.0000 0.64310  0.40880  0.20961  Biso   1.000  H
  H302     1.0000 0.59298  0.36589  0.03210  Biso   1.000  H
  H303     1.0000 0.29950  0.76100  0.07069  Biso   1.000  H
  O160     1.0000 0.39706  0.73809  0.12809  Biso   1.000  O
  H304     1.0000 0.32139  0.77552  0.14689  Biso   1.000  H
  H305     1.0000 0.27047  0.62320  0.20761  Biso   1.000  H
  C187     1.0000 0.73181  0.37992  0.09811  Biso   1.000  C
  H306     1.0000 0.71007  0.33680  0.21539  Biso   1.000  H
  C188     1.0000 0.43267  0.79170  0.12781  Biso   1.000  C
  O161     1.0000 0.78700  0.40029  0.12901  Biso   1.000  O
  H307     1.0000 0.72769  0.33959  0.10100  Biso   1.000  H
  C189     1.0000 0.74657  0.39349  0.05579  Biso   1.000  C
  C190     1.0000 0.44590  0.79838  0.08540  Biso   1.000  C
  H308     1.0000 0.40229  0.82178  0.13329  Biso   1.000  H
  C191     1.0000 0.50137  0.79162  0.15938  Biso   1.000  C
  C192     1.0000 0.79841  0.45971  0.12719  Biso   1.000  C
  O162     1.0000 0.69241  0.36950  0.02351  Biso   1.000  O
  H309     1.0000 0.79139  0.37539  0.05499  Biso   1.000  H
  C193     1.0000 0.75568  0.45261  0.05001  Biso   1.000  C
  O163     1.0000 0.37837  0.80261  0.05579  Biso   1.000  O
  C194     1.0000 0.48679  0.85162  0.08531  Biso   1.000  C
  H310     1.0000 0.47299  0.76680  0.07891  Biso   1.000  H
  O164     1.0000 0.54188  0.83888  0.15649  Biso   1.000  O
  H311     1.0000 0.52840  0.75788  0.15689  Biso   1.000  H
  C195     1.0000 0.48709  0.79510  0.20099  Biso   1.000  C
  C196     1.0000 0.81350  0.47510  0.08518  Biso   1.000  C
  H312     1.0000 0.75628  0.47959  0.13079  Biso   1.000  H
  C197     1.0000 0.86258  0.47369  0.16329  Biso   1.000  C
  H313     1.0000 0.65527  0.36751  0.03099  Biso   1.000  H
  O165     1.0000 0.77521  0.46369  0.01231  Biso   1.000  O
  H314     1.0000 0.71108  0.47170  0.04970  Biso   1.000  H
  H315     1.0000 0.38468  0.80178  0.03241  Biso   1.000  H
  O166     1.0000 0.49872  0.86100  0.04499  Biso   1.000  O
  C198     1.0000 0.55597  0.84772  0.11719  Biso   1.000  C
  H316     1.0000 0.45906  0.88249  0.09239  Biso   1.000  H
  O167     1.0000 0.44639  0.84552  0.20681  Biso   1.000  O
  H317     1.0000 0.46068  0.76249  0.20561  Biso   1.000  H
  H318     1.0000 0.53179  0.79498  0.22149  Biso   1.000  H
  O168     1.0000 0.81308  0.53539  0.08140  Biso   1.000  O
  H319     1.0000 0.85971  0.46041  0.08340  Biso   1.000  H
  O169     1.0000 0.92559  0.44660  0.15929  Biso   1.000  O
  H320     1.0000 0.87025  0.51349  0.16418  Biso   1.000  H
  H321     1.0000 0.85196  0.46261  0.18899  Biso   1.000  H
  H322     1.0000 0.79890  0.49220  0.01459  Biso   1.000  H
  H323     1.0000 0.53612  0.87772  0.04721  Biso   1.000  H
  O170     1.0000 0.59749  0.80502  0.10710  Biso   1.000  O
  H324     1.0000 0.58157  0.88290  0.11759  Biso   1.000  H
  H325     1.0000 0.42029  0.83822  0.22210  Biso   1.000  H
  C199     1.0000 0.87547  0.56261  0.08229  Biso   1.000  C
  H326     1.0000 0.92896  0.41651  0.17089  Biso   1.000  H
  C200     1.0000 0.66569  0.81801  0.10180  Biso   1.000  C
  O171     1.0000 0.89827  0.59680  0.11879  Biso   1.000  O
  H327     1.0000 0.91229  0.53481  0.08220  Biso   1.000  H
  C201     1.0000 0.86670  0.59780  0.04410  Biso   1.000  C
  C202     1.0000 0.67182  0.79651  0.05890  Biso   1.000  C
  H328     1.0000 0.67238  0.85830  0.10319  Biso   1.000  H
  C203     1.0000 0.72259  0.79021  0.13599  Biso   1.000  C
  C204     1.0000 0.84679  0.63888  0.12141  Biso   1.000  C
  O172     1.0000 0.84878  0.56411  0.00920  Biso   1.000  O
  H329     1.0000 0.91237  0.61519  0.04450  Biso   1.000  H
  C205     1.0000 0.81358  0.64332  0.04459  Biso   1.000  C
  O173     1.0000 0.62582  0.82730  0.02770  Biso   1.000  O
  C206     1.0000 0.74630  0.80299  0.05450  Biso   1.000  C
  H330     1.0000 0.65851  0.75722  0.05619  Biso   1.000  H
  O174     1.0000 0.79270  0.79261  0.12821  Biso   1.000  O
  H331     1.0000 0.70979  0.75112  0.13741  Biso   1.000  H
  C207     1.0000 0.72686  0.81581  0.17739  Biso   1.000  C
  C208     1.0000 0.83548  0.67722  0.08331  Biso   1.000  C
  H332     1.0000 0.80181  0.62091  0.12181  Biso   1.000  H
  C209     1.0000 0.87498  0.66900  0.16240  Biso   1.000  C
  H333     1.0000 0.84758  0.58290  0.98858  Biso   1.000  H
  O175     1.0000 0.80639  0.67871  0.00939  Biso   1.000  O
  H334     1.0000 0.76749  0.62631  0.04379  Biso   1.000  H
  H335     1.0000 0.58602  0.82788  0.03219  Biso   1.000  H
  O176     1.0000 0.75428  0.78510  0.01560  Biso   1.000  O
  C210     1.0000 0.79777  0.77270  0.08949  Biso   1.000  C
  H336     1.0000 0.75787  0.84261  0.05700  Biso   1.000  H
  O177     1.0000 0.74321  0.87270  0.17760  Biso   1.000  O
  H337     1.0000 0.68187  0.81100  0.18480  Biso   1.000  H
  H338     1.0000 0.76296  0.79689  0.19788  Biso   1.000  H
  O178     1.0000 0.78012  0.71531  0.08512  Biso   1.000  O
  H339     1.0000 0.87917  0.69751  0.08340  Biso   1.000  H
  O179     1.0000 0.93848  0.69788  0.15960  Biso   1.000  O
  H340     1.0000 0.83996  0.69510  0.16738  Biso   1.000  H
  H341     1.0000 0.88540  0.64249  0.18480  Biso   1.000  H
  H342     1.0000 0.84522  0.69149  0.00880  Biso   1.000  H
  H343     1.0000 0.71789  0.76950  0.00320  Biso   1.000  H
  H344     1.0000 0.84642  0.77801  0.08651  Biso   1.000  H
  H345     1.0000 0.78298  0.87668  0.17379  Biso   1.000  H
  H346     1.0000 0.93898  0.72871  0.17009  Biso   1.000  H
  O180     1.0000 0.61094  0.38340  0.78999  Biso   1.000  O
  H347     1.0000 0.61093  0.37668  0.76589  Biso   1.000  H
  C211     1.0000 0.56791  0.43411  0.79190  Biso   1.000  C
  C212     1.0000 0.60293  0.46809  0.82920  Biso   1.000  C
  H348     1.0000 0.52054  0.42369  0.79350  Biso   1.000  H
  H349     1.0000 0.56422  0.45610  0.76709  Biso   1.000  H
  O181     1.0000 0.66743  0.48830  0.82267  Biso   1.000  O
  C213     1.0000 0.61504  0.43249  0.86939  Biso   1.000  C
  H350     1.0000 0.57221  0.49959  0.83160  Biso   1.000  H
  C214     1.0000 0.70831  0.51950  0.85570  Biso   1.000  C
  O182     1.0000 0.54893  0.41992  0.87939  Biso   1.000  O
  C215     1.0000 0.66059  0.46481  0.90527  Biso   1.000  C
  H351     1.0000 0.63902  0.39780  0.86548  Biso   1.000  H
  O183     1.0000 0.67043  0.56560  0.86539  Biso   1.000  O
  H352     1.0000 0.75182  0.53220  0.84859  Biso   1.000  H
  C216     1.0000 0.72722  0.48432  0.89490  Biso   1.000  C
  C217     1.0000 0.52051  0.36689  0.87108  Biso   1.000  C
  O184     1.0000 0.67643  0.42801  0.93999  Biso   1.000  O
  H353     1.0000 0.63403  0.49680  0.91168  Biso   1.000  H
  C218     1.0000 0.69670  0.62112  0.85840  Biso   1.000  C
  O185     1.0000 0.77160  0.51332  0.92768  Biso   1.000  O
  H354     1.0000 0.75309  0.45149  0.88909  Biso   1.000  H
  O186     1.0000 0.45762  0.36618  0.84049  Biso   1.000  O
  H355     1.0000 0.55530  0.34411  0.86179  Biso   1.000  H
  C219     1.0000 0.51010  0.34249  0.91060  Biso   1.000  C
  H356     1.0000 0.70143  0.44398  0.95978  Biso   1.000  H
  C220     1.0000 0.70482  0.65398  0.89789  Biso   1.000  C
  H357     1.0000 0.74182  0.61871  0.85019  Biso   1.000  H
  C221     1.0000 0.63963  0.64921  0.82467  Biso   1.000  C
  H358     1.0000 0.75098  0.51759  0.94617  Biso   1.000  H
  C222     1.0000 0.40381  0.39602  0.85099  Biso   1.000  C
  O187     1.0000 0.57550  0.34390  0.94190  Biso   1.000  O
  H359     1.0000 0.49460  0.30390  0.90567  Biso   1.000  H
  C223     1.0000 0.45510  0.37398  0.92408  Biso   1.000  C
  O188     1.0000 0.76433  0.62801  0.92839  Biso   1.000  O
  C224     1.0000 0.72263  0.71149  0.88998  Biso   1.000  C
  H360     1.0000 0.66113  0.65261  0.90758  Biso   1.000  H
  O189     1.0000 0.65761  0.70651  0.82120  Biso   1.000  O
  H361     1.0000 0.59432  0.64730  0.83268  Biso   1.000  H
  C225     1.0000 0.63083  0.62220  0.78377  Biso   1.000  C
  C226     1.0000 0.38512  0.37340  0.89050  Biso   1.000  C
  H362     1.0000 0.42052  0.43419  0.85659  Biso   1.000  H
  C227     1.0000 0.34181  0.39722  0.81480  Biso   1.000  C
  H363     1.0000 0.58391  0.31290  0.95199  Biso   1.000  H
  O190     1.0000 0.44163  0.35071  0.96288  Biso   1.000  O
  H364     1.0000 0.47100  0.41249  0.92909  Biso   1.000  H
  H365     1.0000 0.75913  0.59419  0.92789  Biso   1.000  H
  O191     1.0000 0.73644  0.74419  0.92780  Biso   1.000  O
  C228     1.0000 0.66514  0.73730  0.85788  Biso   1.000  C
  H366     1.0000 0.76581  0.71112  0.87979  Biso   1.000  H
  O192     1.0000 0.69672  0.61959  0.77199  Biso   1.000  O
  H367     1.0000 0.61244  0.58498  0.78488  Biso   1.000  H
  H368     1.0000 0.59684  0.64299  0.76340  Biso   1.000  H
  O193     1.0000 0.33451  0.40568  0.90278  Biso   1.000  O
  H369     1.0000 0.36785  0.33519  0.88579  Biso   1.000  H
  O194     1.0000 0.31104  0.34079  0.80879  Biso   1.000  O
  H370     1.0000 0.30672  0.42332  0.81960  Biso   1.000  H
  H371     1.0000 0.35681  0.40880  0.79039  Biso   1.000  H
  H372     1.0000 0.40693  0.36589  0.96790  Biso   1.000  H
  H373     1.0000 0.70040  0.76100  0.92928  Biso   1.000  H
  O195     1.0000 0.60284  0.73809  0.87188  Biso   1.000  O
  H374     1.0000 0.67851  0.77552  0.85308  Biso   1.000  H
  H375     1.0000 0.72944  0.62320  0.79239  Biso   1.000  H
  C229     1.0000 0.26810  0.37992  0.90189  Biso   1.000  C
  H376     1.0000 0.28983  0.33680  0.78458  Biso   1.000  H
  C230     1.0000 0.56724  0.79170  0.87219  Biso   1.000  C
  O196     1.0000 0.21291  0.40029  0.87099  Biso   1.000  O
  H377     1.0000 0.27222  0.33959  0.89900  Biso   1.000  H
  C231     1.0000 0.25333  0.39349  0.94417  Biso   1.000  C
  C232     1.0000 0.55401  0.79838  0.91460  Biso   1.000  C
  H378     1.0000 0.59761  0.82178  0.86668  Biso   1.000  H
  C233     1.0000 0.49853  0.79162  0.84059  Biso   1.000  C
  C234     1.0000 0.20149  0.45971  0.87278  Biso   1.000  C
  O197     1.0000 0.30750  0.36950  0.97649  Biso   1.000  O
  H379     1.0000 0.20851  0.37539  0.94497  Biso   1.000  H
  C235     1.0000 0.24423  0.45261  0.94999  Biso   1.000  C
  O198     1.0000 0.62153  0.80261  0.94417  Biso   1.000  O
  C236     1.0000 0.51312  0.85162  0.91469  Biso   1.000  C
  H380     1.0000 0.52692  0.76680  0.92109  Biso   1.000  H
  O199     1.0000 0.45802  0.83888  0.84348  Biso   1.000  O
  H381     1.0000 0.47149  0.75788  0.84308  Biso   1.000  H
  C237     1.0000 0.51281  0.79510  0.79898  Biso   1.000  C
  C238     1.0000 0.18640  0.47510  0.91478  Biso   1.000  C
  H382     1.0000 0.24361  0.47959  0.86918  Biso   1.000  H
  C239     1.0000 0.13732  0.47369  0.83668  Biso   1.000  C
  H383     1.0000 0.34463  0.36751  0.96898  Biso   1.000  H
  O200     1.0000 0.22470  0.46369  0.98769  Biso   1.000  O
  H384     1.0000 0.28883  0.47170  0.95030  Biso   1.000  H
  H385     1.0000 0.61523  0.80178  0.96759  Biso   1.000  H
  O201     1.0000 0.50118  0.86100  0.95498  Biso   1.000  O
  C240     1.0000 0.44392  0.84772  0.88278  Biso   1.000  C
  H386     1.0000 0.54083  0.88249  0.90758  Biso   1.000  H
  O202     1.0000 0.55352  0.84552  0.79319  Biso   1.000  O
  H387     1.0000 0.53924  0.76249  0.79439  Biso   1.000  H
  H388     1.0000 0.46811  0.79498  0.77848  Biso   1.000  H
  O203     1.0000 0.18683  0.53539  0.91860  Biso   1.000  O
  H389     1.0000 0.14020  0.46041  0.91660  Biso   1.000  H
  O204     1.0000 0.07431  0.44660  0.84068  Biso   1.000  O
  H390     1.0000 0.12964  0.51349  0.83578  Biso   1.000  H
  H391     1.0000 0.14793  0.46261  0.81098  Biso   1.000  H
  H392     1.0000 0.20100  0.49220  0.98538  Biso   1.000  H
  H393     1.0000 0.46379  0.87772  0.95279  Biso   1.000  H
  O205     1.0000 0.40242  0.80502  0.89290  Biso   1.000  O
  H394     1.0000 0.41833  0.88290  0.88238  Biso   1.000  H
  H395     1.0000 0.57962  0.83822  0.77790  Biso   1.000  H
  C241     1.0000 0.12443  0.56261  0.91768  Biso   1.000  C
  H396     1.0000 0.07094  0.41651  0.82908  Biso   1.000  H
  C242     1.0000 0.33422  0.81801  0.89820  Biso   1.000  C
  O206     1.0000 0.10163  0.59680  0.88118  Biso   1.000  O
  H397     1.0000 0.08762  0.53481  0.91780  Biso   1.000  H
  C243     1.0000 0.13321  0.59780  0.95590  Biso   1.000  C
  C244     1.0000 0.32809  0.79651  0.94110  Biso   1.000  C
  H398     1.0000 0.32752  0.85830  0.89678  Biso   1.000  H
  C245     1.0000 0.27731  0.79021  0.86397  Biso   1.000  C
  C246     1.0000 0.15312  0.63888  0.87859  Biso   1.000  C
  O207     1.0000 0.15113  0.56411  0.99080  Biso   1.000  O
  H399     1.0000 0.08754  0.61519  0.95550  Biso   1.000  H
  C247     1.0000 0.18632  0.64332  0.95538  Biso   1.000  C
  O208     1.0000 0.37409  0.82730  0.97230  Biso   1.000  O
  C248     1.0000 0.25361  0.80299  0.94550  Biso   1.000  C
  H400     1.0000 0.34139  0.75722  0.94377  Biso   1.000  H
  O209     1.0000 0.20721  0.79261  0.87179  Biso   1.000  O
  H401     1.0000 0.29012  0.75112  0.86259  Biso   1.000  H
  C249     1.0000 0.27304  0.81581  0.82258  Biso   1.000  C
  C250     1.0000 0.16443  0.67722  0.91669  Biso   1.000  C
  H402     1.0000 0.19810  0.62091  0.87819  Biso   1.000  H
  C251     1.0000 0.12493  0.66900  0.83760  Biso   1.000  C
  H403     1.0000 0.15231  0.58290  0.01139  Biso   1.000  H
  O210     1.0000 0.19350  0.67871  0.99058  Biso   1.000  O
  H404     1.0000 0.23241  0.62631  0.95618  Biso   1.000  H
  H405     1.0000 0.41388  0.82788  0.96778  Biso   1.000  H
  O211     1.0000 0.24563  0.78510  0.98440  Biso   1.000  O
  C252     1.0000 0.20213  0.77270  0.91048  Biso   1.000  C
  H406     1.0000 0.24202  0.84261  0.94297  Biso   1.000  H
  O212     1.0000 0.25675  0.87270  0.82240  Biso   1.000  O
  H407     1.0000 0.31804  0.81100  0.81520  Biso   1.000  H
  H408     1.0000 0.23694  0.79689  0.80209  Biso   1.000  H
  O213     1.0000 0.21979  0.71531  0.91488  Biso   1.000  O
  H409     1.0000 0.12074  0.69751  0.91660  Biso   1.000  H
  O214     1.0000 0.06143  0.69788  0.84040  Biso   1.000  O
  H410     1.0000 0.15994  0.69510  0.83258  Biso   1.000  H
  H411     1.0000 0.11451  0.64249  0.81520  Biso   1.000  H
  H412     1.0000 0.15469  0.69149  0.99120  Biso   1.000  H
  H413     1.0000 0.28202  0.76950  0.99680  Biso   1.000  H
  H414     1.0000 0.15354  0.77801  0.91349  Biso   1.000  H
  H415     1.0000 0.21692  0.87668  0.82618  Biso   1.000  H
  H416     1.0000 0.06092  0.72871  0.82988  Biso   1.000  H
  O215     1.0000 0.24319  0.37270  0.17760  Biso   1.000  O
  C253     1.0000 0.22688  0.31581  0.17739  Biso   1.000  C
  H417     1.0000 0.28295  0.37668  0.17379  Biso   1.000  H
  C254     1.0000 0.22257  0.29021  0.13599  Biso   1.000  C
  H418     1.0000 0.18190  0.31100  0.18480  Biso   1.000  H
  H419     1.0000 0.26298  0.29689  0.19788  Biso   1.000  H
  O216     1.0000 0.29267  0.29261  0.12821  Biso   1.000  O
  C255     1.0000 0.16571  0.31801  0.10180  Biso   1.000  C
  H420     1.0000 0.20981  0.25112  0.13741  Biso   1.000  H
  C256     1.0000 0.29779  0.27270  0.08949  Biso   1.000  C
  O217     1.0000 0.09747  0.30502  0.10710  Biso   1.000  O
  C257     1.0000 0.17179  0.29651  0.05890  Biso   1.000  C
  H421     1.0000 0.17241  0.35830  0.10319  Biso   1.000  H
  O218     1.0000 0.28009  0.21531  0.08512  Biso   1.000  O
  H422     1.0000 0.34639  0.27801  0.08651  Biso   1.000  H
  C258     1.0000 0.24627  0.30299  0.05450  Biso   1.000  C
  C259     1.0000 0.05600  0.34772  0.11719  Biso   1.000  C
  O219     1.0000 0.12579  0.32730  0.02770  Biso   1.000  O
  H423     1.0000 0.15848  0.25722  0.05619  Biso   1.000  H
  C260     1.0000 0.33551  0.17722  0.08331  Biso   1.000  C
  O220     1.0000 0.25430  0.28510  0.01560  Biso   1.000  O
  H424     1.0000 0.25790  0.34261  0.05700  Biso   1.000  H
  O221     1.0000 0.04191  0.33888  0.15649  Biso   1.000  O
  H425     1.0000 0.08159  0.38290  0.11759  Biso   1.000  H
  C261     1.0000 0.98681  0.35162  0.08531  Biso   1.000  C
  H426     1.0000 0.08599  0.32788  0.03219  Biso   1.000  H
  C262     1.0000 0.31360  0.14332  0.04459  Biso   1.000  C
  H427     1.0000 0.37920  0.19751  0.08340  Biso   1.000  H
  C263     1.0000 0.34681  0.13888  0.12141  Biso   1.000  C
  H428     1.0000 0.21792  0.26950  0.00320  Biso   1.000  H
  C264     1.0000 0.00140  0.29162  0.15938  Biso   1.000  C
  O222     1.0000 0.99869  0.36100  0.04499  Biso   1.000  O
  H429     1.0000 0.95909  0.38249  0.09239  Biso   1.000  H
  C265     1.0000 0.94588  0.29838  0.08540  Biso   1.000  C
  O223     1.0000 0.30642  0.17871  0.00939  Biso   1.000  O
  C266     1.0000 0.36668  0.09780  0.04410  Biso   1.000  C
  H430     1.0000 0.26751  0.12631  0.04379  Biso   1.000  H
  O224     1.0000 0.39830  0.09680  0.11879  Biso   1.000  O
  H431     1.0000 0.30178  0.12091  0.12181  Biso   1.000  H
  C267     1.0000 0.37500  0.16900  0.16240  Biso   1.000  C
  H432     1.0000 0.02838  0.25788  0.15689  Biso   1.000  H
  C268     1.0000 0.93270  0.29170  0.12781  Biso   1.000  C
  C269     1.0000 0.98707  0.29510  0.20099  Biso   1.000  C
  H433     1.0000 0.03610  0.37772  0.04721  Biso   1.000  H
  O225     1.0000 0.87840  0.30261  0.05579  Biso   1.000  O
  H434     1.0000 0.97302  0.26680  0.07891  Biso   1.000  H
  H435     1.0000 0.34520  0.19149  0.00880  Biso   1.000  H
  O226     1.0000 0.34881  0.06411  0.00920  Biso   1.000  O
  C270     1.0000 0.37550  0.06261  0.08229  Biso   1.000  C
  H436     1.0000 0.41240  0.11519  0.04450  Biso   1.000  H
  O227     1.0000 0.43851  0.19788  0.15960  Biso   1.000  O
  H437     1.0000 0.33999  0.19510  0.16738  Biso   1.000  H
  H438     1.0000 0.38538  0.14249  0.18480  Biso   1.000  H
  O228     1.0000 0.89709  0.23809  0.12809  Biso   1.000  O
  H439     1.0000 0.90226  0.32178  0.13329  Biso   1.000  H
  H440     1.0000 0.03176  0.29498  0.22149  Biso   1.000  H
  O229     1.0000 0.94637  0.34552  0.20681  Biso   1.000  O
  H441     1.0000 0.96070  0.26249  0.20561  Biso   1.000  H
  H442     1.0000 0.88471  0.30178  0.03241  Biso   1.000  H
  H443     1.0000 0.34761  0.08290  0.98858  Biso   1.000  H
  O230     1.0000 0.31311  0.03539  0.08140  Biso   1.000  O
  H444     1.0000 0.41232  0.03481  0.08220  Biso   1.000  H
  H445     1.0000 0.43900  0.22871  0.17009  Biso   1.000  H
  C271     1.0000 0.83478  0.23730  0.14209  Biso   1.000  C
  H446     1.0000 0.92027  0.33822  0.22210  Biso   1.000  H
  C272     1.0000 0.31347  0.97510  0.08518  Biso   1.000  C
  O231     1.0000 0.84228  0.20651  0.17880  Biso   1.000  O
  H447     1.0000 0.82136  0.27552  0.14689  Biso   1.000  H
  C273     1.0000 0.77730  0.21149  0.10999  Biso   1.000  C
  C274     1.0000 0.25570  0.95261  0.05001  Biso   1.000  C
  H448     1.0000 0.35969  0.96041  0.08340  Biso   1.000  H
  C275     1.0000 0.29838  0.95971  0.12719  Biso   1.000  C
  C276     1.0000 0.86030  0.14921  0.17529  Biso   1.000  C
  O232     1.0000 0.76349  0.24419  0.07220  Biso   1.000  O
  H449     1.0000 0.73408  0.21112  0.12021  Biso   1.000  H
  C277     1.0000 0.79512  0.15398  0.10211  Biso   1.000  C
  O233     1.0000 0.27519  0.96369  0.01231  Biso   1.000  O
  C278     1.0000 0.24660  0.89349  0.05579  Biso   1.000  C
  H450     1.0000 0.21110  0.97170  0.04970  Biso   1.000  H
  O234     1.0000 0.28698  0.90029  0.12901  Biso   1.000  O
  H451     1.0000 0.25631  0.97959  0.13079  Biso   1.000  H
  C279     1.0000 0.36260  0.97369  0.16329  Biso   1.000  C
  C280     1.0000 0.80318  0.12112  0.14160  Biso   1.000  C
  H452     1.0000 0.90561  0.14730  0.16729  Biso   1.000  H
  C281     1.0000 0.86909  0.12220  0.21619  Biso   1.000  C
  H453     1.0000 0.79947  0.26100  0.07069  Biso   1.000  H
  O235     1.0000 0.73561  0.12801  0.07161  Biso   1.000  O
  H454     1.0000 0.83879  0.15261  0.09239  Biso   1.000  H
  H455     1.0000 0.29888  0.99220  0.01459  Biso   1.000  H
  O236     1.0000 0.19238  0.86950  0.02351  Biso   1.000  O
  C282     1.0000 0.23178  0.87992  0.09811  Biso   1.000  C
  H456     1.0000 0.29141  0.87539  0.05499  Biso   1.000  H
  H457     1.0000 0.37028  0.01349  0.16418  Biso   1.000  H
  O237     1.0000 0.42556  0.94660  0.15929  Biso   1.000  O
  H458     1.0000 0.35199  0.96261  0.18899  Biso   1.000  H
  O238     1.0000 0.82950  0.06560  0.13461  Biso   1.000  O
  H459     1.0000 0.75811  0.11871  0.14981  Biso   1.000  H
  O239     1.0000 0.80316  0.11959  0.22801  Biso   1.000  O
  H460     1.0000 0.88748  0.08502  0.21509  Biso   1.000  H
  H461     1.0000 0.90310  0.14299  0.23660  Biso   1.000  H
  H462     1.0000 0.74081  0.09419  0.07211  Biso   1.000  H
  H463     1.0000 0.15530  0.86751  0.03099  Biso   1.000  H
  O240     1.0000 0.16536  0.90568  0.09719  Biso   1.000  O
  H464     1.0000 0.22767  0.83959  0.10100  Biso   1.000  H
  H465     1.0000 0.42899  0.91651  0.17089  Biso   1.000  H
  C283     1.0000 0.79158  0.01950  0.14430  Biso   1.000  C
  H466     1.0000 0.77050  0.12320  0.20761  Biso   1.000  H
  C284     1.0000 0.11477  0.87340  0.10950  Biso   1.000  C
  O241     1.0000 0.83250  0.98830  0.17729  Biso   1.000  O
  C285     1.0000 0.77266  0.98432  0.10510  Biso   1.000  C
  H467     1.0000 0.74812  0.03220  0.15141  Biso   1.000  H
  C286     1.0000 0.04477  0.87398  0.07589  Biso   1.000  C
  H468     1.0000 0.13209  0.83519  0.11421  Biso   1.000  H
  C287     1.0000 0.09608  0.89602  0.14901  Biso   1.000  C
  C288     1.0000 0.89701  0.96809  0.17080  Biso   1.000  C
  H469     1.0000 0.74679  0.95149  0.11091  Biso   1.000  H
  C289     1.0000 0.83928  0.96481  0.09469  Biso   1.000  C
  O242     1.0000 0.72827  0.01332  0.07229  Biso   1.000  O
  C290     1.0000 0.98978  0.84249  0.08940  Biso   1.000  C
  O243     1.0000 0.05831  0.85071  0.03711  Biso   1.000  O
  H470     1.0000 0.02888  0.91249  0.07091  Biso   1.000  H
  O244     1.0000 0.04227  0.86618  0.15951  Biso   1.000  O
  H471     1.0000 0.07937  0.93419  0.14341  Biso   1.000  H
  C291     1.0000 0.15808  0.89722  0.18520  Biso   1.000  C
  C292     1.0000 0.88490  0.93249  0.13061  Biso   1.000  C
  H472     1.0000 0.92768  0.99959  0.16840  Biso   1.000  H
  C293     1.0000 0.93197  0.93411  0.20810  Biso   1.000  C
  O245     1.0000 0.82351  0.92801  0.06001  Biso   1.000  O
  H473     1.0000 0.86589  0.99680  0.08829  Biso   1.000  H
  H474     1.0000 0.74889  0.01759  0.05379  Biso   1.000  H
  O246     1.0000 0.92439  0.84390  0.05810  Biso   1.000  O
  C294     1.0000 0.97936  0.86689  0.12889  Biso   1.000  C
  H475     1.0000 0.00527  0.80390  0.09429  Biso   1.000  H
  H476     1.0000 0.09300  0.86589  0.03210  Biso   1.000  H
  O247     1.0000 0.18890  0.84079  0.19120  Biso   1.000  O
  H477     1.0000 0.19317  0.92332  0.18040  Biso   1.000  H
  H478     1.0000 0.14307  0.90880  0.20961  Biso   1.000  H
  O248     1.0000 0.95100  0.91992  0.12061  Biso   1.000  O
  H479     1.0000 0.86090  0.89780  0.13449  Biso   1.000  H
  O249     1.0000 0.88900  0.88340  0.21001  Biso   1.000  O
  H480     1.0000 0.97939  0.92369  0.20650  Biso   1.000  H
  H481     1.0000 0.93566  0.95610  0.23290  Biso   1.000  H
  H482     1.0000 0.79849  0.94398  0.04019  Biso   1.000  H
  H483     1.0000 0.91602  0.81290  0.04801  Biso   1.000  H
  H484     1.0000 0.94458  0.84411  0.13821  Biso   1.000  H
  H485     1.0000 0.21010  0.83680  0.21539  Biso   1.000  H
  H486     1.0000 0.88900  0.87668  0.23410  Biso   1.000  H
  O250     1.0000 0.75673  0.37270  0.82240  Biso   1.000  O
  C295     1.0000 0.77302  0.31581  0.82258  Biso   1.000  C
  H487     1.0000 0.71694  0.37668  0.82618  Biso   1.000  H
  C296     1.0000 0.77733  0.29021  0.86397  Biso   1.000  C
  H488     1.0000 0.81801  0.31100  0.81520  Biso   1.000  H
  H489     1.0000 0.73691  0.29689  0.80209  Biso   1.000  H
  O251     1.0000 0.70724  0.29261  0.87179  Biso   1.000  O
  C297     1.0000 0.83420  0.31801  0.89820  Biso   1.000  C
  H490     1.0000 0.79010  0.25112  0.86259  Biso   1.000  H
  C298     1.0000 0.70211  0.27270  0.91048  Biso   1.000  C
  C299     1.0000 0.82812  0.29651  0.94110  Biso   1.000  C
  O252     1.0000 0.90244  0.30502  0.89290  Biso   1.000  O
  H491     1.0000 0.82749  0.35830  0.89678  Biso   1.000  H
  O253     1.0000 0.71982  0.21531  0.91488  Biso   1.000  O
  H492     1.0000 0.65352  0.27801  0.91349  Biso   1.000  H
  C300     1.0000 0.75364  0.30299  0.94550  Biso   1.000  C
  O254     1.0000 0.87412  0.32730  0.97230  Biso   1.000  O
  H493     1.0000 0.84142  0.25722  0.94377  Biso   1.000  H
  C301     1.0000 0.94390  0.34772  0.88278  Biso   1.000  C
  C302     1.0000 0.66440  0.17722  0.91669  Biso   1.000  C
  O255     1.0000 0.74561  0.28510  0.98440  Biso   1.000  O
  H494     1.0000 0.74200  0.34261  0.94297  Biso   1.000  H
  H495     1.0000 0.91391  0.32788  0.96778  Biso   1.000  H
  O256     1.0000 0.95799  0.33888  0.84348  Biso   1.000  O
  H496     1.0000 0.91830  0.38290  0.88238  Biso   1.000  H
  C303     1.0000 0.01310  0.35162  0.91469  Biso   1.000  C
  C304     1.0000 0.65310  0.13888  0.87859  Biso   1.000  C
  C305     1.0000 0.68629  0.14332  0.95538  Biso   1.000  C
  H497     1.0000 0.62071  0.19751  0.91660  Biso   1.000  H
  H498     1.0000 0.78199  0.26950  0.99680  Biso   1.000  H
  C306     1.0000 0.99850  0.29162  0.84059  Biso   1.000  C
  O257     1.0000 0.00121  0.36100  0.95498  Biso   1.000  O
  H499     1.0000 0.04081  0.38249  0.90758  Biso   1.000  H
  C307     1.0000 0.05403  0.29838  0.91460  Biso   1.000  C
  C308     1.0000 0.62491  0.16900  0.83760  Biso   1.000  C
  O258     1.0000 0.60160  0.09680  0.88118  Biso   1.000  O
  H500     1.0000 0.69813  0.12091  0.87819  Biso   1.000  H
  C309     1.0000 0.63323  0.09780  0.95590  Biso   1.000  C
  O259     1.0000 0.69353  0.17871  0.99058  Biso   1.000  O
  H501     1.0000 0.73238  0.12631  0.95618  Biso   1.000  H
  H502     1.0000 0.97152  0.25788  0.84308  Biso   1.000  H
  C310     1.0000 0.06721  0.29170  0.87219  Biso   1.000  C
  C311     1.0000 0.01283  0.29510  0.79898  Biso   1.000  C
  H503     1.0000 0.96382  0.37772  0.95279  Biso   1.000  H
  O260     1.0000 0.12150  0.30261  0.94417  Biso   1.000  O
  H504     1.0000 0.02689  0.26680  0.92109  Biso   1.000  H
  O261     1.0000 0.56140  0.19788  0.84040  Biso   1.000  O
  H505     1.0000 0.65991  0.19510  0.83258  Biso   1.000  H
  H506     1.0000 0.61453  0.14249  0.81520  Biso   1.000  H
  C312     1.0000 0.62440  0.06261  0.91768  Biso   1.000  C
  O262     1.0000 0.65110  0.06411  0.99080  Biso   1.000  O
  H507     1.0000 0.58751  0.11519  0.95550  Biso   1.000  H
  H508     1.0000 0.65471  0.19149  0.99120  Biso   1.000  H
  O263     1.0000 0.10281  0.23809  0.87188  Biso   1.000  O
  H509     1.0000 0.09764  0.32178  0.86668  Biso   1.000  H
  H510     1.0000 0.96813  0.29498  0.77848  Biso   1.000  H
  O264     1.0000 0.05354  0.34552  0.79319  Biso   1.000  O
  H511     1.0000 0.03921  0.26249  0.79439  Biso   1.000  H
  H512     1.0000 0.11520  0.30178  0.96759  Biso   1.000  H
  H513     1.0000 0.56089  0.22871  0.82988  Biso   1.000  H
  O265     1.0000 0.68681  0.03539  0.91860  Biso   1.000  O
  H514     1.0000 0.58759  0.03481  0.91780  Biso   1.000  H
  H515     1.0000 0.65229  0.08290  0.01139  Biso   1.000  H
  C313     1.0000 0.16511  0.23730  0.85788  Biso   1.000  C
  H516     1.0000 0.07965  0.33822  0.77790  Biso   1.000  H
  C314     1.0000 0.68642  0.97510  0.91478  Biso   1.000  C
  O266     1.0000 0.15763  0.20651  0.82120  Biso   1.000  O
  H517     1.0000 0.17854  0.27552  0.85308  Biso   1.000  H
  C315     1.0000 0.22260  0.21149  0.88998  Biso   1.000  C
  C316     1.0000 0.74421  0.95261  0.94999  Biso   1.000  C
  H518     1.0000 0.64022  0.96041  0.91660  Biso   1.000  H
  C317     1.0000 0.70152  0.95971  0.87278  Biso   1.000  C
  C318     1.0000 0.13960  0.14921  0.82467  Biso   1.000  C
  O267     1.0000 0.23642  0.24419  0.92780  Biso   1.000  O
  H519     1.0000 0.26583  0.21112  0.87979  Biso   1.000  H
  C319     1.0000 0.20479  0.15398  0.89789  Biso   1.000  C
  O268     1.0000 0.72472  0.96369  0.98769  Biso   1.000  O
  C320     1.0000 0.75330  0.89349  0.94417  Biso   1.000  C
  H520     1.0000 0.78881  0.97170  0.95030  Biso   1.000  H
  O269     1.0000 0.71293  0.90029  0.87099  Biso   1.000  O
  H521     1.0000 0.74359  0.97959  0.86918  Biso   1.000  H
  C321     1.0000 0.63729  0.97369  0.83668  Biso   1.000  C
  C322     1.0000 0.19673  0.12112  0.85840  Biso   1.000  C
  H522     1.0000 0.09429  0.14730  0.83268  Biso   1.000  H
  C323     1.0000 0.13080  0.12220  0.78377  Biso   1.000  C
  H523     1.0000 0.20043  0.26100  0.92928  Biso   1.000  H
  O270     1.0000 0.26430  0.12801  0.92839  Biso   1.000  O
  H524     1.0000 0.16110  0.15261  0.90758  Biso   1.000  H
  H525     1.0000 0.70102  0.99220  0.98538  Biso   1.000  H
  O271     1.0000 0.80753  0.86950  0.97649  Biso   1.000  O
  C324     1.0000 0.76813  0.87992  0.90189  Biso   1.000  C
  H526     1.0000 0.70849  0.87539  0.94497  Biso   1.000  H
  H527     1.0000 0.62962  0.01349  0.83578  Biso   1.000  H
  O272     1.0000 0.57433  0.94660  0.84068  Biso   1.000  O
  H528     1.0000 0.64791  0.96261  0.81098  Biso   1.000  H
  O273     1.0000 0.17041  0.06560  0.86539  Biso   1.000  O
  H529     1.0000 0.24180  0.11871  0.85019  Biso   1.000  H
  O274     1.0000 0.19675  0.11959  0.77199  Biso   1.000  O
  H530     1.0000 0.11242  0.08502  0.78488  Biso   1.000  H
  H531     1.0000 0.09681  0.14299  0.76340  Biso   1.000  H
  H532     1.0000 0.25911  0.09419  0.92789  Biso   1.000  H
  H533     1.0000 0.84460  0.86751  0.96898  Biso   1.000  H
  O275     1.0000 0.83453  0.90568  0.90278  Biso   1.000  O
  H534     1.0000 0.77224  0.83959  0.89900  Biso   1.000  H
  H535     1.0000 0.57091  0.91651  0.82908  Biso   1.000  H
  C325     1.0000 0.20833  0.01950  0.85570  Biso   1.000  C
  H536     1.0000 0.22941  0.12320  0.79239  Biso   1.000  H
  C326     1.0000 0.88514  0.87340  0.89050  Biso   1.000  C
  C327     1.0000 0.22725  0.98432  0.89490  Biso   1.000  C
  O276     1.0000 0.16740  0.98830  0.82267  Biso   1.000  O
  H537     1.0000 0.25179  0.03220  0.84859  Biso   1.000  H
  C328     1.0000 0.95513  0.87398  0.92408  Biso   1.000  C
  H538     1.0000 0.86782  0.83519  0.88579  Biso   1.000  H
  C329     1.0000 0.90383  0.89602  0.85099  Biso   1.000  C
  C330     1.0000 0.16062  0.96481  0.90527  Biso   1.000  C
  H539     1.0000 0.25312  0.95149  0.88909  Biso   1.000  H
  O277     1.0000 0.27163  0.01332  0.92768  Biso   1.000  O
  C331     1.0000 0.10290  0.96809  0.82920  Biso   1.000  C
  O278     1.0000 0.94160  0.85071  0.96288  Biso   1.000  O
  H540     1.0000 0.97103  0.91249  0.92909  Biso   1.000  H
  C332     1.0000 0.01013  0.84249  0.91060  Biso   1.000  C
  O279     1.0000 0.95764  0.86618  0.84049  Biso   1.000  O
  H541     1.0000 0.92054  0.93419  0.85659  Biso   1.000  H
  C333     1.0000 0.84184  0.89722  0.81480  Biso   1.000  C
  C334     1.0000 0.11502  0.93249  0.86939  Biso   1.000  C
  O280     1.0000 0.17641  0.92801  0.93999  Biso   1.000  O
  H542     1.0000 0.13401  0.99680  0.91168  Biso   1.000  H
  H543     1.0000 0.25101  0.01759  0.94617  Biso   1.000  H
  H544     1.0000 0.07223  0.99959  0.83160  Biso   1.000  H
  C335     1.0000 0.06794  0.93411  0.79190  Biso   1.000  C
  H545     1.0000 0.90691  0.86589  0.96790  Biso   1.000  H
  H546     1.0000 0.99462  0.80390  0.90567  Biso   1.000  H
  O281     1.0000 0.07553  0.84390  0.94190  Biso   1.000  O
  C336     1.0000 0.02053  0.86689  0.87108  Biso   1.000  C
  O282     1.0000 0.81101  0.84079  0.80879  Biso   1.000  O
  H547     1.0000 0.80674  0.92332  0.81960  Biso   1.000  H
  H548     1.0000 0.85684  0.90880  0.79039  Biso   1.000  H
  O283     1.0000 0.04891  0.91992  0.87939  Biso   1.000  O
  H549     1.0000 0.13900  0.89780  0.86548  Biso   1.000  H
  H550     1.0000 0.20141  0.94398  0.95978  Biso   1.000  H
  O284     1.0000 0.11091  0.88340  0.78999  Biso   1.000  O
  H551     1.0000 0.02052  0.92369  0.79350  Biso   1.000  H
  H552     1.0000 0.06425  0.95610  0.76709  Biso   1.000  H
  H553     1.0000 0.08394  0.81290  0.95199  Biso   1.000  H
  H554     1.0000 0.05533  0.84411  0.86179  Biso   1.000  H
  H555     1.0000 0.78980  0.83680  0.78458  Biso   1.000  H
  H556     1.0000 0.11091  0.87668  0.76589  Biso   1.000  H
  Ne1      1.0000 0.48702  0.58011  0.38610  Biso   1.000  Ne
  He1      1.0000 0.48862  0.57862  0.38676  Biso   1.000  He
  He2      1.0000 0.50329  0.58998  0.27735  Biso   1.000  He
  Ar1      1.0000 0.48878  0.57875  0.38676  Biso   1.000  Ar
  Ne2      1.0000 0.07926  0.09854  0.11247  Biso   1.000  Ne
  He3      1.0000 0.11239  0.10217  0.15426  Biso   1.000  He
  He4      1.0000 0.06791  0.10008  0.08714  Biso   1.000  He
  Ar2      1.0000 0.07048  0.10162  0.09047  Biso   1.000  Ar
  Ne3      1.0000 0.57926  0.59854  0.11247  Biso   1.000  Ne
  He5      1.0000 0.61119  0.60224  0.15255  Biso   1.000  He
  He6      1.0000 0.58036  0.60397  0.10983  Biso   1.000  He
  Ar3      1.0000 0.58036  0.60397  0.10983  Biso   1.000  Ar
  Ne4      1.0000 0.98702  0.08011  0.38610  Biso   1.000  Ne
  He7      1.0000 0.99811  0.08107  0.48152  Biso   1.000  He
  He8      1.0000 0.98530  0.07884  0.35080  Biso   1.000  He
  Ar4      1.0000 0.99811  0.08107  0.48152  Biso   1.000  Ar
  Ne5      1.0000 0.51289  0.58011  0.61389  Biso   1.000  Ne
  He9      1.0000 0.51426  0.57880  0.64545  Biso   1.000  He
  He10     1.0000 0.51123  0.57861  0.61251  Biso   1.000  He
  Ar5      1.0000 0.51084  0.57519  0.61253  Biso   1.000  Ar
  Ne6      1.0000 0.01288  0.08011  0.61389  Biso   1.000  Ne
  He11     1.0000 0.01427  0.07881  0.64545  Biso   1.000  He
  He12     1.0000 0.01123  0.07864  0.61251  Biso   1.000  He
  Ar6      1.0000 0.01085  0.07518  0.61253  Biso   1.000  Ar
  Ne7      1.0000 0.42065  0.59854  0.88752  Biso   1.000  Ne
  He13     1.0000 0.45372  0.59586  0.94025  Biso   1.000  He
  He14     1.0000 0.39240  0.60245  0.85254  Biso   1.000  He
  Ar7      1.0000 0.41955  0.60398  0.89016  Biso   1.000  Ar
  Ne8      1.0000 0.92065  0.09854  0.88752  Biso   1.000  Ne
  He15     1.0000 0.95371  0.09585  0.94025  Biso   1.000  He
  He16     1.0000 0.89243  0.10245  0.85254  Biso   1.000  He
  Ar8      1.0000 0.91858  0.10393  0.88878  Biso   1.000  Ar
