data_image0
_cell_length_a       53.256
_cell_length_b       12.649
_cell_length_c       20.576
_cell_angle_alpha    90
_cell_angle_beta     97.95
_cell_angle_gamma    90

_symmetry_space_group_name_H-M    "P 1"
_symmetry_int_tables_number       1

loop_
  _symmetry_equiv_pos_as_xyz
  'x, y, z'

loop_
  _atom_site_label
  _atom_site_occupancy
  _atom_site_fract_x
  _atom_site_fract_y
  _atom_site_fract_z
  _atom_site_thermal_displace_type
  _atom_site_B_iso_or_equiv
  _atom_site_type_symbol
  C1       1.0000 0.62563  0.55261  0.44788  Biso   1.000  C
  C2       1.0000 0.62887  0.49292  0.39351  Biso   1.000  C
  C3       1.0000 0.63821  0.52700  0.50868  Biso   1.000  C
  H1       1.0000 0.61458  0.61191  0.44322  Biso   1.000  H
  C4       1.0000 0.64446  0.40327  0.39797  Biso   1.000  C
  O1       1.0000 0.61604  0.51498  0.33241  Biso   1.000  O
  C5       1.0000 0.65413  0.43687  0.51668  Biso   1.000  C
  O2       1.0000 0.63437  0.59206  0.55898  Biso   1.000  O
  C6       1.0000 0.64755  0.34192  0.33619  Biso   1.000  C
  C7       1.0000 0.65657  0.37924  0.46069  Biso   1.000  C
  H2       1.0000 0.60789  0.57103  0.33801  Biso   1.000  H
  C8       1.0000 0.66796  0.40833  0.58401  Biso   1.000  C
  H3       1.0000 0.63738  0.56400  0.59598  Biso   1.000  H
  C9       1.0000 0.62658  0.25986  0.32010  Biso   1.000  C
  H4       1.0000 0.64539  0.39418  0.29929  Biso   1.000  H
  C10      1.0000 0.67382  0.29156  0.33629  Biso   1.000  C
  H5       1.0000 0.66728  0.31868  0.46540  Biso   1.000  H
  C11      1.0000 0.65091  0.34461  0.62410  Biso   1.000  C
  H6       1.0000 0.67147  0.47672  0.60790  Biso   1.000  H
  C12      1.0000 0.69384  0.35592  0.58307  Biso   1.000  C
  C13      1.0000 0.62451  0.17290  0.35980  Biso   1.000  C
  C14      1.0000 0.60858  0.26721  0.26229  Biso   1.000  C
  H7       1.0000 0.67839  0.25117  0.37751  Biso   1.000  H
  H8       1.0000 0.67319  0.24152  0.29919  Biso   1.000  H
  C15      1.0000 0.69415  0.37497  0.33050  Biso   1.000  C
  C16      1.0000 0.64645  0.23646  0.61512  Biso   1.000  C
  C17      1.0000 0.63814  0.39489  0.67072  Biso   1.000  C
  H9       1.0000 0.70119  0.33837  0.62881  Biso   1.000  H
  H10      1.0000 0.69138  0.28872  0.55839  Biso   1.000  H
  C18      1.0000 0.71259  0.42343  0.55289  Biso   1.000  C
  C19      1.0000 0.60647  0.09171  0.34689  Biso   1.000  C
  H11      1.0000 0.63618  0.16760  0.39900  Biso   1.000  H
  C20      1.0000 0.58967  0.19251  0.24899  Biso   1.000  C
  O3       1.0000 0.61008  0.35070  0.22038  Biso   1.000  O
  H12      1.0000 0.68838  0.42027  0.29217  Biso   1.000  H
  H13      1.0000 0.69568  0.42043  0.37010  Biso   1.000  H
  C21      1.0000 0.71936  0.33347  0.32338  Biso   1.000  C
  C22      1.0000 0.63086  0.17677  0.64942  Biso   1.000  C
  H14      1.0000 0.65467  0.20144  0.58307  Biso   1.000  H
  C23      1.0000 0.62197  0.33860  0.70511  Biso   1.000  C
  O4       1.0000 0.64234  0.50162  0.68077  Biso   1.000  O
  H15      1.0000 0.71298  0.49490  0.57257  Biso   1.000  H
  H16      1.0000 0.70668  0.43071  0.50529  Biso   1.000  H
  C24      1.0000 0.73919  0.37821  0.56241  Biso   1.000  C
  C25      1.0000 0.60741  0.99431  0.38870  Biso   1.000  C
  C26      1.0000 0.58882  0.10641  0.29060  Biso   1.000  C
  H17      1.0000 0.57729  0.19994  0.21130  Biso   1.000  H
  H18      1.0000 0.59849  0.35196  0.18799  Biso   1.000  H
  H19      1.0000 0.71749  0.28042  0.28771  Biso   1.000  H
  H20      1.0000 0.72619  0.29647  0.36441  Biso   1.000  H
  C27      1.0000 0.73853  0.41497  0.30861  Biso   1.000  C
  C28      1.0000 0.62624  0.05914  0.63700  Biso   1.000  C
  C29      1.0000 0.61855  0.23203  0.69481  Biso   1.000  C
  H21      1.0000 0.61318  0.37386  0.73598  Biso   1.000  H
  H22      1.0000 0.63188  0.52897  0.70300  Biso   1.000  H
  H23      1.0000 0.74578  0.38003  0.60982  Biso   1.000  H
  H24      1.0000 0.73829  0.30319  0.54858  Biso   1.000  H
  C30      1.0000 0.75776  0.43474  0.52551  Biso   1.000  C
  C31      1.0000 0.59871  0.01320  0.45578  Biso   1.000  C
  H25      1.0000 0.59510  0.94332  0.36490  Biso   1.000  H
  C32      1.0000 0.63377  0.94197  0.39258  Biso   1.000  C
  O5       1.0000 0.56996  0.03091  0.27691  Biso   1.000  O
  H26      1.0000 0.73008  0.46170  0.27348  Biso   1.000  H
  H27      1.0000 0.74279  0.45917  0.34831  Biso   1.000  H
  C33      1.0000 0.76140  0.38019  0.28918  Biso   1.000  C
  C34      1.0000 0.74348  0.44399  0.24948  Biso   1.000  C
  C35      1.0000 0.60740  0.04348  0.57507  Biso   1.000  C
  H28      1.0000 0.61757  0.03297  0.67410  Biso   1.000  H
  C36      1.0000 0.65074  0.99549  0.63990  Biso   1.000  C
  O6       1.0000 0.60261  0.17258  0.72872  Biso   1.000  O
  H29      1.0000 0.75809  0.51048  0.53748  Biso   1.000  H
  H30      1.0000 0.75178  0.42960  0.47791  Biso   1.000  H
  C37      1.0000 0.78480  0.39031  0.53920  Biso   1.000  C
  C38      1.0000 0.57264  0.01976  0.46088  Biso   1.000  C
  C39      1.0000 0.61502  0.02704  0.51418  Biso   1.000  C
  H31      1.0000 0.63850  0.93841  0.34782  Biso   1.000  H
  H32      1.0000 0.64628  0.98806  0.41898  Biso   1.000  H
  C40      1.0000 0.63580  0.83430  0.42138  Biso   1.000  C
  H33      1.0000 0.55859  0.05898  0.25100  Biso   1.000  H
  H34      1.0000 0.75728  0.32477  0.25542  Biso   1.000  H
  H35      1.0000 0.77139  0.34604  0.32760  Biso   1.000  H
  C41      1.0000 0.77838  0.46106  0.26200  Biso   1.000  C
  H36      1.0000 0.72849  0.48201  0.22681  Biso   1.000  H
  H37      1.0000 0.74579  0.37971  0.22372  Biso   1.000  H
  C42      1.0000 0.76669  0.51498  0.24899  Biso   1.000  C
  C43      1.0000 0.58135  0.04704  0.57748  Biso   1.000  C
  H38      1.0000 0.65898  0.01233  0.60079  Biso   1.000  H
  H39      1.0000 0.66248  0.01684  0.67930  Biso   1.000  H
  C44      1.0000 0.64616  0.87683  0.64230  Biso   1.000  C
  H40      1.0000 0.59717  0.21069  0.75718  Biso   1.000  H
  H41      1.0000 0.79149  0.40343  0.58592  Biso   1.000  H
  H42      1.0000 0.78407  0.31283  0.53258  Biso   1.000  H
  C45      1.0000 0.80226  0.43474  0.49872  Biso   1.000  C
  O7       1.0000 0.55469  0.00996  0.40612  Biso   1.000  O
  C46      1.0000 0.56425  0.03384  0.52021  Biso   1.000  C
  H43      1.0000 0.63269  0.02498  0.51211  Biso   1.000  H
  H44      1.0000 0.62248  0.78907  0.39729  Biso   1.000  H
  H45      1.0000 0.63258  0.83833  0.46761  Biso   1.000  H
  C47      1.0000 0.66207  0.78117  0.41932  Biso   1.000  C
  H46      1.0000 0.79408  0.42644  0.25292  Biso   1.000  H
  H47      1.0000 0.78270  0.51759  0.29419  Biso   1.000  H
  H48      1.0000 0.76959  0.49111  0.22122  Biso   1.000  H
  H49      1.0000 0.76939  0.52779  0.20360  Biso   1.000  H
  H50      1.0000 0.78158  0.47956  0.27269  Biso   1.000  H
  H51      1.0000 0.76389  0.58210  0.27039  Biso   1.000  H
  O8       1.0000 0.57060  0.06198  0.63391  Biso   1.000  O
  H52      1.0000 0.63667  0.85422  0.59971  Biso   1.000  H
  H53      1.0000 0.63537  0.86212  0.67660  Biso   1.000  H
  C48      1.0000 0.67048  0.81002  0.65639  Biso   1.000  C
  H54      1.0000 0.81898  0.40256  0.51040  Biso   1.000  H
  H55      1.0000 0.80348  0.51119  0.50569  Biso   1.000  H
  H56      1.0000 0.79609  0.42027  0.45239  Biso   1.000  H
  H57      1.0000 0.56119  0.00704  0.37201  Biso   1.000  H
  H58      1.0000 0.54659  0.03463  0.52252  Biso   1.000  H
  H59      1.0000 0.67549  0.82939  0.44018  Biso   1.000  H
  H60      1.0000 0.66289  0.71563  0.44582  Biso   1.000  H
  C49      1.0000 0.66758  0.75437  0.35229  Biso   1.000  C
  H61      1.0000 0.58149  0.08404  0.66399  Biso   1.000  H
  H62      1.0000 0.68067  0.83627  0.69712  Biso   1.000  H
  H63      1.0000 0.66568  0.73587  0.66429  Biso   1.000  H
  C50      1.0000 0.68636  0.81153  0.60319  Biso   1.000  C
  H64      1.0000 0.66570  0.81904  0.32481  Biso   1.000  H
  H65      1.0000 0.65489  0.70243  0.33241  Biso   1.000  H
  C51      1.0000 0.69427  0.70867  0.35140  Biso   1.000  C
  H66      1.0000 0.69138  0.88537  0.59559  Biso   1.000  H
  H67      1.0000 0.67617  0.78567  0.56232  Biso   1.000  H
  C52      1.0000 0.71042  0.74354  0.61772  Biso   1.000  C
  H68      1.0000 0.70700  0.76069  0.37098  Biso   1.000  H
  H69      1.0000 0.69619  0.64392  0.37859  Biso   1.000  H
  C53      1.0000 0.69930  0.68203  0.28172  Biso   1.000  C
  H70      1.0000 0.72017  0.76733  0.65967  Biso   1.000  H
  H71      1.0000 0.70537  0.66922  0.62351  Biso   1.000  H
  C54      1.0000 0.72739  0.74741  0.56560  Biso   1.000  C
  H72      1.0000 0.71640  0.65262  0.28339  Biso   1.000  H
  H73      1.0000 0.69790  0.74638  0.25488  Biso   1.000  H
  H74      1.0000 0.68689  0.63001  0.26219  Biso   1.000  H
  H75      1.0000 0.74219  0.70259  0.57841  Biso   1.000  H
  H76      1.0000 0.73288  0.82054  0.56021  Biso   1.000  H
  H77      1.0000 0.71809  0.72180  0.52409  Biso   1.000  H
  O9       1.0000 0.61005  0.64930  0.72038  Biso   1.000  O
  C55      1.0000 0.60856  0.73279  0.76228  Biso   1.000  C
  H78      1.0000 0.59848  0.64804  0.68799  Biso   1.000  H
  C56      1.0000 0.58965  0.80749  0.74898  Biso   1.000  C
  C57      1.0000 0.62656  0.74014  0.82009  Biso   1.000  C
  C58      1.0000 0.58880  0.89359  0.79060  Biso   1.000  C
  H79      1.0000 0.57727  0.80006  0.71130  Biso   1.000  H
  C59      1.0000 0.62449  0.82710  0.85979  Biso   1.000  C
  C60      1.0000 0.64753  0.65808  0.83619  Biso   1.000  C
  C61      1.0000 0.60645  0.90829  0.84688  Biso   1.000  C
  O10      1.0000 0.56994  0.96909  0.77691  Biso   1.000  O
  H80      1.0000 0.63616  0.83240  0.89900  Biso   1.000  H
  H81      1.0000 0.64537  0.60582  0.79928  Biso   1.000  H
  C62      1.0000 0.64445  0.59673  0.89802  Biso   1.000  C
  C63      1.0000 0.67382  0.70844  0.83628  Biso   1.000  C
  C64      1.0000 0.60741  0.00569  0.88869  Biso   1.000  C
  H82      1.0000 0.55857  0.94102  0.75100  Biso   1.000  H
  C65      1.0000 0.65654  0.62076  0.96068  Biso   1.000  C
  C66      1.0000 0.62884  0.50708  0.89350  Biso   1.000  C
  H83      1.0000 0.67837  0.74883  0.87750  Biso   1.000  H
  H84      1.0000 0.67317  0.75848  0.79919  Biso   1.000  H
  C67      1.0000 0.69413  0.62503  0.83049  Biso   1.000  C
  C68      1.0000 0.59869  0.98680  0.95577  Biso   1.000  C
  H85      1.0000 0.59508  0.05668  0.86489  Biso   1.000  H
  C69      1.0000 0.63375  0.05803  0.89257  Biso   1.000  C
  H86      1.0000 0.66727  0.68132  0.96539  Biso   1.000  H
  C70      1.0000 0.65415  0.56313  0.01667  Biso   1.000  C
  C71      1.0000 0.62561  0.44739  0.94787  Biso   1.000  C
  O11      1.0000 0.61602  0.48502  0.83241  Biso   1.000  O
  H87      1.0000 0.68838  0.57973  0.79222  Biso   1.000  H
  H88      1.0000 0.69566  0.57957  0.87009  Biso   1.000  H
  C72      1.0000 0.71934  0.66653  0.82338  Biso   1.000  C
  C73      1.0000 0.57262  0.98024  0.96088  Biso   1.000  C
  C74      1.0000 0.61503  0.97296  0.01417  Biso   1.000  C
  H89      1.0000 0.63848  0.06159  0.84782  Biso   1.000  H
  H90      1.0000 0.64626  0.01194  0.91897  Biso   1.000  H
  C75      1.0000 0.63578  0.16570  0.92137  Biso   1.000  C
  C76      1.0000 0.63823  0.47300  0.00867  Biso   1.000  C
  C77      1.0000 0.66798  0.59167  0.08400  Biso   1.000  C
  H91      1.0000 0.61456  0.38809  0.94321  Biso   1.000  H
  H92      1.0000 0.60787  0.42897  0.83800  Biso   1.000  H
  H93      1.0000 0.71747  0.71958  0.78770  Biso   1.000  H
  H94      1.0000 0.72617  0.70353  0.86440  Biso   1.000  H
  C78      1.0000 0.73853  0.58503  0.80861  Biso   1.000  C
  O12      1.0000 0.55467  0.99004  0.90611  Biso   1.000  O
  C79      1.0000 0.56426  0.96616  0.02021  Biso   1.000  C
  H95      1.0000 0.63270  0.97502  0.01211  Biso   1.000  H
  C80      1.0000 0.60740  0.95652  0.07507  Biso   1.000  C
  H96      1.0000 0.62247  0.21093  0.89728  Biso   1.000  H
  H97      1.0000 0.63256  0.16167  0.96760  Biso   1.000  H
  C81      1.0000 0.66205  0.21883  0.91931  Biso   1.000  C
  O13      1.0000 0.63438  0.40794  0.05897  Biso   1.000  O
  H98      1.0000 0.67149  0.52328  0.10790  Biso   1.000  H
  C82      1.0000 0.65093  0.65539  0.12409  Biso   1.000  C
  C83      1.0000 0.69386  0.64408  0.08307  Biso   1.000  C
  H99      1.0000 0.73008  0.53830  0.77347  Biso   1.000  H
  H100     1.0000 0.74277  0.54083  0.84831  Biso   1.000  H
  C84      1.0000 0.76138  0.61981  0.78917  Biso   1.000  C
  C85      1.0000 0.74348  0.55601  0.74948  Biso   1.000  C
  H101     1.0000 0.56117  0.99296  0.87201  Biso   1.000  H
  C86      1.0000 0.58137  0.95296  0.07747  Biso   1.000  C
  H102     1.0000 0.54660  0.96537  0.02251  Biso   1.000  H
  C87      1.0000 0.62623  0.94086  0.13700  Biso   1.000  C
  H103     1.0000 0.67547  0.17061  0.94017  Biso   1.000  H
  H104     1.0000 0.66287  0.28437  0.94581  Biso   1.000  H
  C88      1.0000 0.66758  0.24563  0.85228  Biso   1.000  C
  H105     1.0000 0.63739  0.43600  0.09597  Biso   1.000  H
  C89      1.0000 0.64647  0.76354  0.11511  Biso   1.000  C
  C90      1.0000 0.63816  0.60511  0.17071  Biso   1.000  C
  H106     1.0000 0.70119  0.66163  0.12880  Biso   1.000  H
  H107     1.0000 0.69140  0.71128  0.05838  Biso   1.000  H
  C91      1.0000 0.71260  0.57657  0.05289  Biso   1.000  C
  H108     1.0000 0.75728  0.67523  0.75541  Biso   1.000  H
  H109     1.0000 0.77137  0.65396  0.82760  Biso   1.000  H
  C92      1.0000 0.77838  0.53894  0.76199  Biso   1.000  C
  H110     1.0000 0.72847  0.51799  0.72680  Biso   1.000  H
  H111     1.0000 0.74577  0.62029  0.72371  Biso   1.000  H
  C93      1.0000 0.76666  0.48502  0.74898  Biso   1.000  C
  O14      1.0000 0.57062  0.93802  0.13391  Biso   1.000  O
  C94      1.0000 0.63088  0.82323  0.14936  Biso   1.000  C
  H112     1.0000 0.61759  0.96703  0.17410  Biso   1.000  H
  C95      1.0000 0.65076  0.00451  0.13989  Biso   1.000  C
  H113     1.0000 0.66568  0.18096  0.82480  Biso   1.000  H
  H114     1.0000 0.65487  0.29757  0.83241  Biso   1.000  H
  C96      1.0000 0.69427  0.29133  0.85140  Biso   1.000  C
  H115     1.0000 0.65469  0.79856  0.08307  Biso   1.000  H
  C97      1.0000 0.62199  0.66140  0.20511  Biso   1.000  C
  O15      1.0000 0.64236  0.49838  0.18077  Biso   1.000  O
  H116     1.0000 0.71300  0.50510  0.07257  Biso   1.000  H
  H117     1.0000 0.70670  0.56929  0.00529  Biso   1.000  H
  C98      1.0000 0.73921  0.62179  0.06241  Biso   1.000  C
  H118     1.0000 0.79408  0.57356  0.75291  Biso   1.000  H
  H119     1.0000 0.78267  0.48241  0.79418  Biso   1.000  H
  H120     1.0000 0.76957  0.50889  0.72121  Biso   1.000  H
  H121     1.0000 0.76938  0.47221  0.70359  Biso   1.000  H
  H122     1.0000 0.78158  0.52044  0.77269  Biso   1.000  H
  H123     1.0000 0.76386  0.41790  0.77038  Biso   1.000  H
  H124     1.0000 0.58148  0.91596  0.16399  Biso   1.000  H
  C99      1.0000 0.61856  0.76797  0.19480  Biso   1.000  C
  H125     1.0000 0.65900  0.98767  0.10078  Biso   1.000  H
  H126     1.0000 0.66250  0.98316  0.17930  Biso   1.000  H
  C100     1.0000 0.64618  0.12317  0.14230  Biso   1.000  C
  H127     1.0000 0.70698  0.23931  0.87098  Biso   1.000  H
  H128     1.0000 0.69617  0.35608  0.87858  Biso   1.000  H
  C101     1.0000 0.69928  0.31797  0.78172  Biso   1.000  C
  H129     1.0000 0.61320  0.62614  0.23597  Biso   1.000  H
  H130     1.0000 0.63188  0.47103  0.20300  Biso   1.000  H
  H131     1.0000 0.74580  0.61997  0.10981  Biso   1.000  H
  H132     1.0000 0.73830  0.69681  0.04857  Biso   1.000  H
  C102     1.0000 0.75778  0.56526  0.02551  Biso   1.000  C
  O16      1.0000 0.60261  0.82742  0.22866  Biso   1.000  O
  H133     1.0000 0.63669  0.14578  0.09970  Biso   1.000  H
  H134     1.0000 0.63539  0.13788  0.17660  Biso   1.000  H
  C103     1.0000 0.67049  0.18998  0.15638  Biso   1.000  C
  H135     1.0000 0.71638  0.34738  0.78338  Biso   1.000  H
  H136     1.0000 0.69788  0.25362  0.75487  Biso   1.000  H
  H137     1.0000 0.68687  0.36999  0.76219  Biso   1.000  H
  H138     1.0000 0.75176  0.57040  0.97791  Biso   1.000  H
  H139     1.0000 0.75810  0.48952  0.03748  Biso   1.000  H
  C104     1.0000 0.78482  0.60969  0.03920  Biso   1.000  C
  H140     1.0000 0.59719  0.78931  0.25717  Biso   1.000  H
  H141     1.0000 0.68069  0.16373  0.19711  Biso   1.000  H
  H142     1.0000 0.66570  0.26413  0.16428  Biso   1.000  H
  C105     1.0000 0.68637  0.18847  0.10319  Biso   1.000  C
  C106     1.0000 0.80224  0.56526  0.99871  Biso   1.000  C
  H143     1.0000 0.79150  0.59657  0.08586  Biso   1.000  H
  H144     1.0000 0.78409  0.68717  0.03257  Biso   1.000  H
  H145     1.0000 0.69139  0.11463  0.09558  Biso   1.000  H
  H146     1.0000 0.67619  0.21433  0.06231  Biso   1.000  H
  C107     1.0000 0.71041  0.25646  0.11771  Biso   1.000  C
  H147     1.0000 0.79607  0.57973  0.95239  Biso   1.000  H
  H148     1.0000 0.81900  0.59744  0.01039  Biso   1.000  H
  H149     1.0000 0.80350  0.48881  0.00568  Biso   1.000  H
  H150     1.0000 0.72019  0.23267  0.15967  Biso   1.000  H
  H151     1.0000 0.70539  0.33078  0.12350  Biso   1.000  H
  C108     1.0000 0.72740  0.25259  0.06560  Biso   1.000  C
  H152     1.0000 0.74219  0.29741  0.07840  Biso   1.000  H
  H153     1.0000 0.73290  0.17946  0.06020  Biso   1.000  H
  H154     1.0000 0.71810  0.27820  0.02408  Biso   1.000  H
  C109     1.0000 0.43571  0.96616  0.47978  Biso   1.000  C
  C110     1.0000 0.41861  0.95296  0.42251  Biso   1.000  C
  C111     1.0000 0.42734  0.98024  0.53910  Biso   1.000  C
  H155     1.0000 0.45339  0.96537  0.47752  Biso   1.000  H
  C112     1.0000 0.39258  0.95652  0.42491  Biso   1.000  C
  O17      1.0000 0.42938  0.93802  0.36608  Biso   1.000  O
  C113     1.0000 0.40125  0.98680  0.54421  Biso   1.000  C
  O18      1.0000 0.44527  0.99004  0.59392  Biso   1.000  O
  C114     1.0000 0.37374  0.94086  0.36299  Biso   1.000  C
  C115     1.0000 0.38496  0.97296  0.48581  Biso   1.000  C
  H156     1.0000 0.41849  0.91596  0.33600  Biso   1.000  H
  C116     1.0000 0.39255  0.00569  0.61129  Biso   1.000  C
  H157     1.0000 0.43877  0.99296  0.62797  Biso   1.000  H
  C117     1.0000 0.36910  0.82323  0.35062  Biso   1.000  C
  H158     1.0000 0.38239  0.96703  0.32589  Biso   1.000  H
  C118     1.0000 0.34921  0.00451  0.36009  Biso   1.000  C
  H159     1.0000 0.36729  0.97502  0.48787  Biso   1.000  H
  C119     1.0000 0.39351  0.90829  0.65310  Biso   1.000  C
  H160     1.0000 0.40488  0.05668  0.63509  Biso   1.000  H
  C120     1.0000 0.36619  0.05803  0.60741  Biso   1.000  C
  C121     1.0000 0.35351  0.76354  0.38492  Biso   1.000  C
  C122     1.0000 0.38141  0.76797  0.30518  Biso   1.000  C
  H161     1.0000 0.34100  0.98767  0.39920  Biso   1.000  H
  H162     1.0000 0.33749  0.98316  0.32069  Biso   1.000  H
  C123     1.0000 0.35380  0.12317  0.35769  Biso   1.000  C
  C124     1.0000 0.37547  0.82710  0.64019  Biso   1.000  C
  C125     1.0000 0.41114  0.89359  0.70938  Biso   1.000  C
  H163     1.0000 0.36148  0.06159  0.65222  Biso   1.000  H
  H164     1.0000 0.35368  0.01194  0.58101  Biso   1.000  H
  C126     1.0000 0.36416  0.16570  0.57861  Biso   1.000  C
  C127     1.0000 0.34906  0.65539  0.37589  Biso   1.000  C
  H165     1.0000 0.34528  0.79856  0.41692  Biso   1.000  H
  C128     1.0000 0.37801  0.66140  0.29492  Biso   1.000  C
  O19      1.0000 0.39737  0.82742  0.27132  Biso   1.000  O
  H166     1.0000 0.36329  0.14578  0.40028  Biso   1.000  H
  H167     1.0000 0.36458  0.13788  0.32338  Biso   1.000  H
  C129     1.0000 0.32948  0.18998  0.34360  Biso   1.000  C
  C130     1.0000 0.37340  0.74014  0.67989  Biso   1.000  C
  H168     1.0000 0.36378  0.83240  0.60098  Biso   1.000  H
  C131     1.0000 0.41029  0.80749  0.75100  Biso   1.000  C
  O20      1.0000 0.43001  0.96909  0.72307  Biso   1.000  O
  H169     1.0000 0.37748  0.21093  0.60270  Biso   1.000  H
  H170     1.0000 0.36738  0.16167  0.53238  Biso   1.000  H
  C132     1.0000 0.33791  0.21883  0.58072  Biso   1.000  C
  C133     1.0000 0.33200  0.59167  0.41598  Biso   1.000  C
  C134     1.0000 0.36182  0.60511  0.32932  Biso   1.000  C
  H171     1.0000 0.38680  0.62614  0.26401  Biso   1.000  H
  H172     1.0000 0.40279  0.78931  0.24281  Biso   1.000  H
  H173     1.0000 0.31929  0.16373  0.30292  Biso   1.000  H
  H174     1.0000 0.33430  0.26413  0.33570  Biso   1.000  H
  C135     1.0000 0.31360  0.18847  0.39680  Biso   1.000  C
  C136     1.0000 0.35241  0.65808  0.66380  Biso   1.000  C
  C137     1.0000 0.39140  0.73279  0.73770  Biso   1.000  C
  H175     1.0000 0.42267  0.80006  0.78868  Biso   1.000  H
  H176     1.0000 0.44137  0.94102  0.74898  Biso   1.000  H
  H177     1.0000 0.32447  0.17061  0.55981  Biso   1.000  H
  H178     1.0000 0.33707  0.28437  0.55422  Biso   1.000  H
  C138     1.0000 0.33238  0.24563  0.64770  Biso   1.000  C
  C139     1.0000 0.30613  0.64408  0.41692  Biso   1.000  C
  C140     1.0000 0.34583  0.56313  0.48331  Biso   1.000  C
  H179     1.0000 0.32849  0.52328  0.39208  Biso   1.000  H
  O21      1.0000 0.35762  0.49838  0.31921  Biso   1.000  O
  H180     1.0000 0.30858  0.11463  0.40440  Biso   1.000  H
  H181     1.0000 0.32379  0.21433  0.43767  Biso   1.000  H
  C141     1.0000 0.28956  0.25646  0.38232  Biso   1.000  C
  C142     1.0000 0.35549  0.59673  0.60201  Biso   1.000  C
  H182     1.0000 0.35457  0.60582  0.70070  Biso   1.000  H
  C143     1.0000 0.32614  0.70844  0.66370  Biso   1.000  C
  O22      1.0000 0.38990  0.64930  0.77961  Biso   1.000  O
  H183     1.0000 0.33428  0.18096  0.67518  Biso   1.000  H
  H184     1.0000 0.34508  0.29757  0.66757  Biso   1.000  H
  C144     1.0000 0.30569  0.29133  0.64858  Biso   1.000  C
  C145     1.0000 0.28739  0.57657  0.44709  Biso   1.000  C
  H185     1.0000 0.29879  0.66163  0.37118  Biso   1.000  H
  H186     1.0000 0.30858  0.71128  0.44160  Biso   1.000  H
  C146     1.0000 0.34339  0.62076  0.53930  Biso   1.000  C
  C147     1.0000 0.36175  0.47300  0.49131  Biso   1.000  C
  H187     1.0000 0.36809  0.47103  0.29698  Biso   1.000  H
  H188     1.0000 0.27979  0.23267  0.34031  Biso   1.000  H
  H189     1.0000 0.29458  0.33078  0.37648  Biso   1.000  H
  C148     1.0000 0.27259  0.25259  0.43438  Biso   1.000  C
  C149     1.0000 0.37111  0.50708  0.60648  Biso   1.000  C
  H190     1.0000 0.32157  0.74883  0.62248  Biso   1.000  H
  H191     1.0000 0.32677  0.75848  0.70080  Biso   1.000  H
  C150     1.0000 0.30581  0.62503  0.66949  Biso   1.000  C
  H192     1.0000 0.40147  0.64804  0.81199  Biso   1.000  H
  H193     1.0000 0.29298  0.23931  0.62900  Biso   1.000  H
  H194     1.0000 0.30379  0.35608  0.62140  Biso   1.000  H
  C151     1.0000 0.30068  0.31797  0.71831  Biso   1.000  C
  H195     1.0000 0.28698  0.50510  0.42742  Biso   1.000  H
  H196     1.0000 0.29328  0.56929  0.49469  Biso   1.000  H
  C152     1.0000 0.26078  0.62179  0.43757  Biso   1.000  C
  H197     1.0000 0.33268  0.68132  0.53459  Biso   1.000  H
  O23      1.0000 0.36559  0.40794  0.44101  Biso   1.000  O
  C153     1.0000 0.37433  0.44739  0.55211  Biso   1.000  C
  H198     1.0000 0.25779  0.29741  0.42158  Biso   1.000  H
  H199     1.0000 0.26708  0.17946  0.43978  Biso   1.000  H
  H200     1.0000 0.28189  0.27820  0.47590  Biso   1.000  H
  O24      1.0000 0.38393  0.48502  0.66757  Biso   1.000  O
  H201     1.0000 0.31158  0.57973  0.70781  Biso   1.000  H
  H202     1.0000 0.30428  0.57957  0.62989  Biso   1.000  H
  C154     1.0000 0.28062  0.66653  0.67660  Biso   1.000  C
  H203     1.0000 0.28358  0.34738  0.71660  Biso   1.000  H
  H204     1.0000 0.30208  0.25362  0.74511  Biso   1.000  H
  H205     1.0000 0.31307  0.36999  0.73780  Biso   1.000  H
  H206     1.0000 0.25420  0.61997  0.39022  Biso   1.000  H
  H207     1.0000 0.26169  0.69681  0.45141  Biso   1.000  H
  C155     1.0000 0.24219  0.56526  0.47448  Biso   1.000  C
  H208     1.0000 0.36258  0.43600  0.40401  Biso   1.000  H
  H209     1.0000 0.38538  0.38809  0.55682  Biso   1.000  H
  H210     1.0000 0.39209  0.42897  0.66198  Biso   1.000  H
  H211     1.0000 0.28247  0.71958  0.71228  Biso   1.000  H
  H212     1.0000 0.27379  0.70353  0.63558  Biso   1.000  H
  C156     1.0000 0.26143  0.58503  0.69137  Biso   1.000  C
  H213     1.0000 0.24189  0.48952  0.46250  Biso   1.000  H
  H214     1.0000 0.24817  0.57040  0.52208  Biso   1.000  H
  C157     1.0000 0.21516  0.60969  0.46079  Biso   1.000  C
  H215     1.0000 0.26988  0.53830  0.72651  Biso   1.000  H
  H216     1.0000 0.25718  0.54083  0.65168  Biso   1.000  H
  C158     1.0000 0.23858  0.61981  0.71081  Biso   1.000  C
  C159     1.0000 0.25647  0.55601  0.75051  Biso   1.000  C
  H217     1.0000 0.20849  0.59657  0.41412  Biso   1.000  H
  H218     1.0000 0.21589  0.68717  0.46741  Biso   1.000  H
  C160     1.0000 0.19770  0.56526  0.50132  Biso   1.000  C
  H219     1.0000 0.24268  0.67523  0.74462  Biso   1.000  H
  H220     1.0000 0.22858  0.65396  0.67238  Biso   1.000  H
  C161     1.0000 0.22158  0.53894  0.73799  Biso   1.000  C
  H221     1.0000 0.27147  0.51799  0.77318  Biso   1.000  H
  H222     1.0000 0.25417  0.62029  0.77632  Biso   1.000  H
  C162     1.0000 0.23327  0.48502  0.75100  Biso   1.000  C
  H223     1.0000 0.18098  0.59744  0.48959  Biso   1.000  H
  H224     1.0000 0.19648  0.48881  0.49430  Biso   1.000  H
  H225     1.0000 0.20389  0.57973  0.54759  Biso   1.000  H
  H226     1.0000 0.20587  0.57356  0.74707  Biso   1.000  H
  H227     1.0000 0.21728  0.48241  0.70580  Biso   1.000  H
  H228     1.0000 0.23036  0.50889  0.77877  Biso   1.000  H
  H229     1.0000 0.23057  0.47221  0.79639  Biso   1.000  H
  H230     1.0000 0.21837  0.52044  0.72730  Biso   1.000  H
  H231     1.0000 0.23607  0.41790  0.72960  Biso   1.000  H
  O25      1.0000 0.38990  0.35070  0.27961  Biso   1.000  O
  C163     1.0000 0.39142  0.26721  0.23770  Biso   1.000  C
  H232     1.0000 0.40149  0.35196  0.31200  Biso   1.000  H
  C164     1.0000 0.37342  0.25986  0.17990  Biso   1.000  C
  C165     1.0000 0.41031  0.19251  0.25100  Biso   1.000  C
  C166     1.0000 0.35243  0.34192  0.16380  Biso   1.000  C
  C167     1.0000 0.37547  0.17290  0.14020  Biso   1.000  C
  C168     1.0000 0.41116  0.10641  0.20939  Biso   1.000  C
  H233     1.0000 0.42269  0.19994  0.28869  Biso   1.000  H
  C169     1.0000 0.32616  0.29156  0.16370  Biso   1.000  C
  H234     1.0000 0.35459  0.39418  0.20070  Biso   1.000  H
  C170     1.0000 0.35552  0.40327  0.10202  Biso   1.000  C
  H235     1.0000 0.36380  0.16760  0.10099  Biso   1.000  H
  C171     1.0000 0.39351  0.09171  0.15310  Biso   1.000  C
  O26      1.0000 0.43001  0.03091  0.22308  Biso   1.000  O
  C172     1.0000 0.30583  0.37497  0.16949  Biso   1.000  C
  H236     1.0000 0.32159  0.25117  0.12248  Biso   1.000  H
  H237     1.0000 0.32679  0.24152  0.20080  Biso   1.000  H
  C173     1.0000 0.34341  0.37924  0.03931  Biso   1.000  C
  C174     1.0000 0.37113  0.49292  0.10649  Biso   1.000  C
  C175     1.0000 0.39257  0.99431  0.11130  Biso   1.000  C
  H238     1.0000 0.44139  0.05898  0.24899  Biso   1.000  H
  C176     1.0000 0.28062  0.33347  0.17661  Biso   1.000  C
  H239     1.0000 0.31160  0.42027  0.20782  Biso   1.000  H
  H240     1.0000 0.30430  0.42043  0.12989  Biso   1.000  H
  H241     1.0000 0.33270  0.31868  0.03460  Biso   1.000  H
  C177     1.0000 0.34583  0.43687  0.98332  Biso   1.000  C
  C178     1.0000 0.37435  0.55261  0.05211  Biso   1.000  C
  O27      1.0000 0.38394  0.51498  0.16758  Biso   1.000  O
  C179     1.0000 0.40127  0.01320  0.04421  Biso   1.000  C
  H242     1.0000 0.40490  0.94332  0.13510  Biso   1.000  H
  C180     1.0000 0.36621  0.94197  0.10742  Biso   1.000  C
  C181     1.0000 0.26145  0.41497  0.19138  Biso   1.000  C
  H243     1.0000 0.28249  0.28042  0.21229  Biso   1.000  H
  H244     1.0000 0.27379  0.29647  0.13559  Biso   1.000  H
  C182     1.0000 0.36175  0.52700  0.99131  Biso   1.000  C
  C183     1.0000 0.33198  0.40833  0.91599  Biso   1.000  C
  H245     1.0000 0.38539  0.61191  0.05678  Biso   1.000  H
  H246     1.0000 0.39209  0.57103  0.16199  Biso   1.000  H
  C184     1.0000 0.42736  0.01976  0.03911  Biso   1.000  C
  C185     1.0000 0.38495  0.02704  0.98582  Biso   1.000  C
  H247     1.0000 0.36150  0.93841  0.15222  Biso   1.000  H
  H248     1.0000 0.35370  0.98806  0.08102  Biso   1.000  H
  C186     1.0000 0.36418  0.83430  0.07861  Biso   1.000  C
  C187     1.0000 0.23860  0.38019  0.21081  Biso   1.000  C
  C188     1.0000 0.25650  0.44399  0.25051  Biso   1.000  C
  H249     1.0000 0.26990  0.46170  0.22652  Biso   1.000  H
  H250     1.0000 0.25719  0.45917  0.15168  Biso   1.000  H
  O28      1.0000 0.36558  0.59206  0.94102  Biso   1.000  O
  H251     1.0000 0.32847  0.47672  0.89209  Biso   1.000  H
  C189     1.0000 0.34905  0.34461  0.87590  Biso   1.000  C
  C190     1.0000 0.30612  0.35592  0.91692  Biso   1.000  C
  O29      1.0000 0.44529  0.00996  0.09392  Biso   1.000  O
  C191     1.0000 0.43570  0.03384  0.97978  Biso   1.000  C
  H252     1.0000 0.36728  0.02498  0.98793  Biso   1.000  H
  C192     1.0000 0.39256  0.04348  0.92492  Biso   1.000  C
  H253     1.0000 0.37750  0.78907  0.10271  Biso   1.000  H
  H254     1.0000 0.36740  0.83833  0.03239  Biso   1.000  H
  C193     1.0000 0.33791  0.78117  0.08072  Biso   1.000  C
  H255     1.0000 0.24270  0.32477  0.24457  Biso   1.000  H
  H256     1.0000 0.22859  0.34604  0.17239  Biso   1.000  H
  C194     1.0000 0.22160  0.46106  0.23800  Biso   1.000  C
  H257     1.0000 0.27149  0.48201  0.27318  Biso   1.000  H
  H258     1.0000 0.25419  0.37971  0.27627  Biso   1.000  H
  C195     1.0000 0.23329  0.51498  0.25100  Biso   1.000  C
  H259     1.0000 0.36257  0.56400  0.90402  Biso   1.000  H
  C196     1.0000 0.35349  0.23646  0.88493  Biso   1.000  C
  C197     1.0000 0.36182  0.39489  0.82933  Biso   1.000  C
  H260     1.0000 0.29877  0.33837  0.87119  Biso   1.000  H
  H261     1.0000 0.30856  0.28872  0.94160  Biso   1.000  H
  C198     1.0000 0.28738  0.42343  0.94710  Biso   1.000  C
  H262     1.0000 0.43879  0.00704  0.12798  Biso   1.000  H
  C199     1.0000 0.41859  0.04704  0.92252  Biso   1.000  C
  H263     1.0000 0.45338  0.03463  0.97753  Biso   1.000  H
  C200     1.0000 0.37372  0.05914  0.86299  Biso   1.000  C
  H264     1.0000 0.32449  0.82939  0.05982  Biso   1.000  H
  H265     1.0000 0.33709  0.71563  0.05418  Biso   1.000  H
  C201     1.0000 0.33240  0.75437  0.14771  Biso   1.000  C
  H266     1.0000 0.20589  0.42644  0.24708  Biso   1.000  H
  H267     1.0000 0.21728  0.51759  0.20581  Biso   1.000  H
  H268     1.0000 0.23038  0.49111  0.27878  Biso   1.000  H
  H269     1.0000 0.23059  0.52779  0.29639  Biso   1.000  H
  H270     1.0000 0.21840  0.47956  0.22730  Biso   1.000  H
  H271     1.0000 0.23609  0.58210  0.22961  Biso   1.000  H
  H272     1.0000 0.34527  0.20144  0.91692  Biso   1.000  H
  C202     1.0000 0.36910  0.17677  0.85063  Biso   1.000  C
  C203     1.0000 0.37799  0.33860  0.79493  Biso   1.000  C
  O30      1.0000 0.35760  0.50162  0.81922  Biso   1.000  O
  H273     1.0000 0.28698  0.49490  0.92742  Biso   1.000  H
  H274     1.0000 0.29326  0.43071  0.99470  Biso   1.000  H
  C204     1.0000 0.26077  0.37821  0.93763  Biso   1.000  C
  O31      1.0000 0.42936  0.06198  0.86608  Biso   1.000  O
  C205     1.0000 0.34920  0.99549  0.86010  Biso   1.000  C
  H275     1.0000 0.38237  0.03297  0.82589  Biso   1.000  H
  H276     1.0000 0.33430  0.81904  0.17519  Biso   1.000  H
  H277     1.0000 0.34509  0.70243  0.16758  Biso   1.000  H
  C206     1.0000 0.30571  0.70867  0.14859  Biso   1.000  C
  C207     1.0000 0.38141  0.23203  0.80518  Biso   1.000  C
  H278     1.0000 0.38678  0.37386  0.76401  Biso   1.000  H
  H279     1.0000 0.36808  0.52897  0.79699  Biso   1.000  H
  H280     1.0000 0.25418  0.38003  0.89023  Biso   1.000  H
  H281     1.0000 0.26167  0.30319  0.95142  Biso   1.000  H
  C208     1.0000 0.24218  0.43474  0.97448  Biso   1.000  C
  H282     1.0000 0.41847  0.08404  0.83600  Biso   1.000  H
  C209     1.0000 0.35378  0.87683  0.85769  Biso   1.000  C
  H283     1.0000 0.34098  0.01233  0.89921  Biso   1.000  H
  H284     1.0000 0.33748  0.01684  0.82069  Biso   1.000  H
  H285     1.0000 0.29300  0.76069  0.12901  Biso   1.000  H
  H286     1.0000 0.30379  0.64392  0.12140  Biso   1.000  H
  C210     1.0000 0.30069  0.68203  0.21832  Biso   1.000  C
  O32      1.0000 0.39735  0.17258  0.77132  Biso   1.000  O
  H287     1.0000 0.24819  0.42960  0.02208  Biso   1.000  H
  H288     1.0000 0.24188  0.51048  0.96251  Biso   1.000  H
  C211     1.0000 0.21514  0.39031  0.96079  Biso   1.000  C
  H289     1.0000 0.36327  0.85422  0.90029  Biso   1.000  H
  H290     1.0000 0.36457  0.86212  0.82339  Biso   1.000  H
  C212     1.0000 0.32948  0.81002  0.84361  Biso   1.000  C
  H291     1.0000 0.28360  0.65262  0.21660  Biso   1.000  H
  H292     1.0000 0.30210  0.74638  0.24511  Biso   1.000  H
  H293     1.0000 0.31309  0.63001  0.23780  Biso   1.000  H
  H294     1.0000 0.40277  0.21069  0.74281  Biso   1.000  H
  C213     1.0000 0.19772  0.43474  0.00128  Biso   1.000  C
  H295     1.0000 0.20848  0.40343  0.91412  Biso   1.000  H
  H296     1.0000 0.21587  0.31283  0.96742  Biso   1.000  H
  H297     1.0000 0.31927  0.83627  0.80293  Biso   1.000  H
  H298     1.0000 0.33428  0.73587  0.83571  Biso   1.000  H
  C214     1.0000 0.31359  0.81153  0.89680  Biso   1.000  C
  H299     1.0000 0.20389  0.42027  0.04760  Biso   1.000  H
  H300     1.0000 0.18096  0.40256  0.98960  Biso   1.000  H
  H301     1.0000 0.19646  0.51119  0.99431  Biso   1.000  H
  H302     1.0000 0.30857  0.88537  0.90441  Biso   1.000  H
  H303     1.0000 0.32377  0.78567  0.93773  Biso   1.000  H
  C215     1.0000 0.28955  0.74354  0.88233  Biso   1.000  C
  H304     1.0000 0.27977  0.76733  0.84032  Biso   1.000  H
  H305     1.0000 0.29457  0.66922  0.87649  Biso   1.000  H
  C216     1.0000 0.27258  0.74741  0.93439  Biso   1.000  C
  H306     1.0000 0.25777  0.70259  0.92158  Biso   1.000  H
  H307     1.0000 0.26706  0.82054  0.93979  Biso   1.000  H
  H308     1.0000 0.28187  0.72180  0.97591  Biso   1.000  H
  C217     1.0000 0.69770  0.06530  0.50132  Biso   1.000  C
  C218     1.0000 0.71516  0.10973  0.46079  Biso   1.000  C
  H309     1.0000 0.68098  0.09740  0.48959  Biso   1.000  H
  H310     1.0000 0.70389  0.07969  0.54759  Biso   1.000  H
  H311     1.0000 0.69648  0.98877  0.49430  Biso   1.000  H
  C219     1.0000 0.74219  0.06530  0.47448  Biso   1.000  C
  H312     1.0000 0.70849  0.09661  0.41412  Biso   1.000  H
  H313     1.0000 0.71589  0.18721  0.46741  Biso   1.000  H
  C220     1.0000 0.76078  0.12183  0.43757  Biso   1.000  C
  H314     1.0000 0.74817  0.07036  0.52208  Biso   1.000  H
  H315     1.0000 0.74189  0.98949  0.46250  Biso   1.000  H
  C221     1.0000 0.78739  0.07661  0.44709  Biso   1.000  C
  H316     1.0000 0.75420  0.12001  0.39022  Biso   1.000  H
  H317     1.0000 0.76169  0.19677  0.45141  Biso   1.000  H
  C222     1.0000 0.80613  0.14412  0.41692  Biso   1.000  C
  H318     1.0000 0.78698  0.00514  0.42742  Biso   1.000  H
  H319     1.0000 0.79328  0.06933  0.49469  Biso   1.000  H
  C223     1.0000 0.83200  0.09171  0.41598  Biso   1.000  C
  H320     1.0000 0.79879  0.16159  0.37118  Biso   1.000  H
  H321     1.0000 0.80858  0.21132  0.44160  Biso   1.000  H
  C224     1.0000 0.84583  0.06309  0.48331  Biso   1.000  C
  H322     1.0000 0.82849  0.02332  0.39208  Biso   1.000  H
  C225     1.0000 0.84906  0.15543  0.37589  Biso   1.000  C
  C226     1.0000 0.84339  0.12080  0.53930  Biso   1.000  C
  C227     1.0000 0.86175  0.97296  0.49131  Biso   1.000  C
  C228     1.0000 0.85351  0.26350  0.38492  Biso   1.000  C
  C229     1.0000 0.86182  0.10507  0.32932  Biso   1.000  C
  C230     1.0000 0.85549  0.09669  0.60201  Biso   1.000  C
  H323     1.0000 0.83268  0.18128  0.53459  Biso   1.000  H
  O33      1.0000 0.86559  0.90790  0.44101  Biso   1.000  O
  C231     1.0000 0.87433  0.94743  0.55211  Biso   1.000  C
  H324     1.0000 0.84528  0.29860  0.41692  Biso   1.000  H
  C232     1.0000 0.86910  0.32319  0.35062  Biso   1.000  C
  C233     1.0000 0.87801  0.16144  0.29492  Biso   1.000  C
  O34      1.0000 0.85762  0.99842  0.31921  Biso   1.000  O
  C234     1.0000 0.85241  0.15812  0.66380  Biso   1.000  C
  C235     1.0000 0.87111  0.00712  0.60648  Biso   1.000  C
  H325     1.0000 0.86258  0.93596  0.40401  Biso   1.000  H
  H326     1.0000 0.88538  0.88813  0.55682  Biso   1.000  H
  C236     1.0000 0.88141  0.26801  0.30518  Biso   1.000  C
  C237     1.0000 0.87374  0.44090  0.36299  Biso   1.000  C
  H327     1.0000 0.88680  0.12610  0.26401  Biso   1.000  H
  H328     1.0000 0.86809  0.97099  0.29698  Biso   1.000  H
  C238     1.0000 0.87340  0.24010  0.67989  Biso   1.000  C
  H329     1.0000 0.85457  0.10578  0.70070  Biso   1.000  H
  C239     1.0000 0.82614  0.20840  0.66370  Biso   1.000  C
  O35      1.0000 0.88393  0.98498  0.66757  Biso   1.000  O
  O36      1.0000 0.89737  0.32738  0.27132  Biso   1.000  O
  C240     1.0000 0.89258  0.45648  0.42491  Biso   1.000  C
  H330     1.0000 0.88239  0.46699  0.32589  Biso   1.000  H
  C241     1.0000 0.84921  0.50447  0.36009  Biso   1.000  C
  C242     1.0000 0.87547  0.32706  0.64019  Biso   1.000  C
  C243     1.0000 0.89140  0.23282  0.73770  Biso   1.000  C
  H331     1.0000 0.82157  0.24879  0.62248  Biso   1.000  H
  H332     1.0000 0.82677  0.25852  0.70080  Biso   1.000  H
  C244     1.0000 0.80581  0.12499  0.66949  Biso   1.000  C
  H333     1.0000 0.89209  0.92901  0.66198  Biso   1.000  H
  H334     1.0000 0.90279  0.28927  0.24281  Biso   1.000  H
  C245     1.0000 0.88496  0.47300  0.48581  Biso   1.000  C
  C246     1.0000 0.91861  0.45300  0.42251  Biso   1.000  C
  H335     1.0000 0.84100  0.48771  0.39920  Biso   1.000  H
  H336     1.0000 0.83749  0.48320  0.32069  Biso   1.000  H
  C247     1.0000 0.85380  0.62321  0.35769  Biso   1.000  C
  H337     1.0000 0.86378  0.33244  0.60098  Biso   1.000  H
  C248     1.0000 0.89351  0.40833  0.65310  Biso   1.000  C
  C249     1.0000 0.91029  0.30753  0.75100  Biso   1.000  C
  O37      1.0000 0.88990  0.14926  0.77961  Biso   1.000  O
  H338     1.0000 0.81158  0.07969  0.70781  Biso   1.000  H
  H339     1.0000 0.80428  0.07961  0.62989  Biso   1.000  H
  C250     1.0000 0.78062  0.16650  0.67660  Biso   1.000  C
  C251     1.0000 0.90125  0.48684  0.54421  Biso   1.000  C
  H340     1.0000 0.86729  0.47498  0.48787  Biso   1.000  H
  O38      1.0000 0.92938  0.43798  0.36608  Biso   1.000  O
  C252     1.0000 0.93571  0.46620  0.47978  Biso   1.000  C
  H341     1.0000 0.86329  0.64582  0.40028  Biso   1.000  H
  H342     1.0000 0.86458  0.63792  0.32338  Biso   1.000  H
  C253     1.0000 0.82948  0.69002  0.34360  Biso   1.000  C
  C254     1.0000 0.91114  0.39363  0.70938  Biso   1.000  C
  C255     1.0000 0.89255  0.50573  0.61129  Biso   1.000  C
  H343     1.0000 0.92267  0.30010  0.78868  Biso   1.000  H
  H344     1.0000 0.90147  0.14800  0.81199  Biso   1.000  H
  H345     1.0000 0.78247  0.21962  0.71228  Biso   1.000  H
  H346     1.0000 0.77379  0.20349  0.63558  Biso   1.000  H
  C256     1.0000 0.76143  0.08499  0.69137  Biso   1.000  C
  C257     1.0000 0.92734  0.48020  0.53910  Biso   1.000  C
  H347     1.0000 0.91849  0.41600  0.33600  Biso   1.000  H
  H348     1.0000 0.95339  0.46541  0.47752  Biso   1.000  H
  H349     1.0000 0.81929  0.66369  0.30292  Biso   1.000  H
  H350     1.0000 0.83430  0.76409  0.33570  Biso   1.000  H
  C258     1.0000 0.81360  0.68851  0.39680  Biso   1.000  C
  O39      1.0000 0.93001  0.46913  0.72307  Biso   1.000  O
  H351     1.0000 0.90488  0.55672  0.63509  Biso   1.000  H
  C259     1.0000 0.86619  0.55799  0.60741  Biso   1.000  C
  H352     1.0000 0.76988  0.03826  0.72651  Biso   1.000  H
  H353     1.0000 0.75718  0.04079  0.65168  Biso   1.000  H
  C260     1.0000 0.73858  0.11977  0.71081  Biso   1.000  C
  C261     1.0000 0.75647  0.05597  0.75051  Biso   1.000  C
  O40      1.0000 0.94527  0.49000  0.59392  Biso   1.000  O
  H354     1.0000 0.80858  0.61459  0.40440  Biso   1.000  H
  H355     1.0000 0.82379  0.71429  0.43767  Biso   1.000  H
  C262     1.0000 0.78956  0.75650  0.38232  Biso   1.000  C
  H356     1.0000 0.94137  0.44098  0.74898  Biso   1.000  H
  H357     1.0000 0.86148  0.56163  0.65222  Biso   1.000  H
  H358     1.0000 0.85368  0.51190  0.58101  Biso   1.000  H
  C263     1.0000 0.86416  0.66567  0.57861  Biso   1.000  C
  H359     1.0000 0.74268  0.17519  0.74462  Biso   1.000  H
  H360     1.0000 0.72858  0.15400  0.67238  Biso   1.000  H
  C264     1.0000 0.72158  0.03890  0.73799  Biso   1.000  C
  H361     1.0000 0.77147  0.01803  0.77318  Biso   1.000  H
  H362     1.0000 0.75417  0.12033  0.77632  Biso   1.000  H
  C265     1.0000 0.73327  0.98498  0.75100  Biso   1.000  C
  H363     1.0000 0.93877  0.49300  0.62797  Biso   1.000  H
  H364     1.0000 0.77979  0.73271  0.34031  Biso   1.000  H
  H365     1.0000 0.79458  0.83082  0.37648  Biso   1.000  H
  C266     1.0000 0.77259  0.75263  0.43438  Biso   1.000  C
  H366     1.0000 0.87748  0.71089  0.60270  Biso   1.000  H
  H367     1.0000 0.86738  0.66171  0.53238  Biso   1.000  H
  C267     1.0000 0.83791  0.71879  0.58072  Biso   1.000  C
  H368     1.0000 0.70587  0.07360  0.74707  Biso   1.000  H
  H369     1.0000 0.73036  0.00893  0.77877  Biso   1.000  H
  H370     1.0000 0.71728  0.98237  0.70580  Biso   1.000  H
  H371     1.0000 0.71837  0.02040  0.72730  Biso   1.000  H
  H372     1.0000 0.73057  0.97217  0.79639  Biso   1.000  H
  H373     1.0000 0.73607  0.91794  0.72960  Biso   1.000  H
  H374     1.0000 0.75779  0.79738  0.42158  Biso   1.000  H
  H375     1.0000 0.76708  0.67950  0.43978  Biso   1.000  H
  H376     1.0000 0.78189  0.77816  0.47590  Biso   1.000  H
  H377     1.0000 0.82447  0.67057  0.55981  Biso   1.000  H
  H378     1.0000 0.83707  0.78441  0.55422  Biso   1.000  H
  C268     1.0000 0.83238  0.74559  0.64770  Biso   1.000  C
  H379     1.0000 0.83428  0.68100  0.67518  Biso   1.000  H
  H380     1.0000 0.84508  0.79761  0.66757  Biso   1.000  H
  C269     1.0000 0.80569  0.79129  0.64858  Biso   1.000  C
  H381     1.0000 0.79298  0.73927  0.62900  Biso   1.000  H
  H382     1.0000 0.80379  0.85612  0.62140  Biso   1.000  H
  C270     1.0000 0.80068  0.81801  0.71831  Biso   1.000  C
  H383     1.0000 0.78358  0.84742  0.71660  Biso   1.000  H
  H384     1.0000 0.80208  0.75358  0.74511  Biso   1.000  H
  H385     1.0000 0.81307  0.87003  0.73780  Biso   1.000  H
  C271     1.0000 0.30226  0.93470  0.49872  Biso   1.000  C
  C272     1.0000 0.28480  0.89027  0.53920  Biso   1.000  C
  H386     1.0000 0.31898  0.90260  0.51040  Biso   1.000  H
  H387     1.0000 0.29609  0.92031  0.45239  Biso   1.000  H
  H388     1.0000 0.30348  0.01123  0.50569  Biso   1.000  H
  C273     1.0000 0.25776  0.93470  0.52551  Biso   1.000  C
  H389     1.0000 0.29149  0.90339  0.58592  Biso   1.000  H
  H390     1.0000 0.28407  0.81279  0.53258  Biso   1.000  H
  C274     1.0000 0.23919  0.87817  0.56241  Biso   1.000  C
  H391     1.0000 0.25178  0.92964  0.47791  Biso   1.000  H
  H392     1.0000 0.25809  0.01051  0.53748  Biso   1.000  H
  C275     1.0000 0.21259  0.92339  0.55289  Biso   1.000  C
  H393     1.0000 0.24578  0.87999  0.60982  Biso   1.000  H
  H394     1.0000 0.23829  0.80323  0.54858  Biso   1.000  H
  C276     1.0000 0.19384  0.85588  0.58307  Biso   1.000  C
  H395     1.0000 0.21298  0.99486  0.57257  Biso   1.000  H
  H396     1.0000 0.20668  0.93067  0.50529  Biso   1.000  H
  C277     1.0000 0.16796  0.90829  0.58401  Biso   1.000  C
  H397     1.0000 0.20119  0.83841  0.62881  Biso   1.000  H
  H398     1.0000 0.19138  0.78868  0.55839  Biso   1.000  H
  C278     1.0000 0.15413  0.93691  0.51668  Biso   1.000  C
  C279     1.0000 0.15091  0.84457  0.62410  Biso   1.000  C
  H399     1.0000 0.17147  0.97668  0.60790  Biso   1.000  H
  C280     1.0000 0.15657  0.87920  0.46069  Biso   1.000  C
  C281     1.0000 0.13821  0.02704  0.50868  Biso   1.000  C
  C282     1.0000 0.14645  0.73650  0.61512  Biso   1.000  C
  C283     1.0000 0.13814  0.89493  0.67072  Biso   1.000  C
  C284     1.0000 0.14446  0.90331  0.39797  Biso   1.000  C
  H400     1.0000 0.16728  0.81872  0.46540  Biso   1.000  H
  C285     1.0000 0.12563  0.05257  0.44788  Biso   1.000  C
  O41      1.0000 0.13437  0.09210  0.55898  Biso   1.000  O
  C286     1.0000 0.13086  0.67681  0.64942  Biso   1.000  C
  H401     1.0000 0.15467  0.70140  0.58307  Biso   1.000  H
  C287     1.0000 0.12197  0.83856  0.70511  Biso   1.000  C
  O42      1.0000 0.14234  0.00158  0.68077  Biso   1.000  O
  C288     1.0000 0.14755  0.84188  0.33619  Biso   1.000  C
  C289     1.0000 0.12887  0.99288  0.39351  Biso   1.000  C
  H402     1.0000 0.11458  0.11187  0.44322  Biso   1.000  H
  H403     1.0000 0.13738  0.06404  0.59598  Biso   1.000  H
  C290     1.0000 0.12624  0.55910  0.63700  Biso   1.000  C
  C291     1.0000 0.11855  0.73199  0.69481  Biso   1.000  C
  H404     1.0000 0.11318  0.87390  0.73598  Biso   1.000  H
  H405     1.0000 0.13188  0.02901  0.70300  Biso   1.000  H
  C292     1.0000 0.12658  0.75990  0.32010  Biso   1.000  C
  H406     1.0000 0.14539  0.89422  0.29929  Biso   1.000  H
  C293     1.0000 0.17382  0.79160  0.33629  Biso   1.000  C
  O43      1.0000 0.11604  0.01502  0.33241  Biso   1.000  O
  C294     1.0000 0.10740  0.54352  0.57507  Biso   1.000  C
  H407     1.0000 0.11757  0.53301  0.67410  Biso   1.000  H
  C295     1.0000 0.15074  0.49553  0.63990  Biso   1.000  C
  O44      1.0000 0.10261  0.67262  0.72872  Biso   1.000  O
  C296     1.0000 0.12451  0.67294  0.35980  Biso   1.000  C
  C297     1.0000 0.10858  0.76718  0.26229  Biso   1.000  C
  H408     1.0000 0.17839  0.75121  0.37751  Biso   1.000  H
  H409     1.0000 0.17319  0.74148  0.29919  Biso   1.000  H
  C298     1.0000 0.19415  0.87501  0.33050  Biso   1.000  C
  H410     1.0000 0.10789  0.07099  0.33801  Biso   1.000  H
  C299     1.0000 0.11502  0.52700  0.51418  Biso   1.000  C
  C300     1.0000 0.08135  0.54700  0.57748  Biso   1.000  C
  H411     1.0000 0.15898  0.51229  0.60079  Biso   1.000  H
  H412     1.0000 0.16248  0.51680  0.67930  Biso   1.000  H
  C301     1.0000 0.14616  0.37679  0.64230  Biso   1.000  C
  H413     1.0000 0.09717  0.71073  0.75718  Biso   1.000  H
  C302     1.0000 0.10647  0.59167  0.34689  Biso   1.000  C
  H414     1.0000 0.13618  0.66756  0.39900  Biso   1.000  H
  C303     1.0000 0.08967  0.69247  0.24899  Biso   1.000  C
  O45      1.0000 0.11008  0.85074  0.22038  Biso   1.000  O
  H415     1.0000 0.18838  0.92031  0.29217  Biso   1.000  H
  H416     1.0000 0.19568  0.92039  0.37010  Biso   1.000  H
  C304     1.0000 0.21936  0.83350  0.32338  Biso   1.000  C
  C305     1.0000 0.09871  0.51316  0.45578  Biso   1.000  C
  H417     1.0000 0.13269  0.52502  0.51211  Biso   1.000  H
  C306     1.0000 0.06425  0.53380  0.52021  Biso   1.000  C
  O46      1.0000 0.07060  0.56202  0.63391  Biso   1.000  O
  H418     1.0000 0.13667  0.35418  0.59971  Biso   1.000  H
  H419     1.0000 0.13537  0.36208  0.67660  Biso   1.000  H
  C307     1.0000 0.17048  0.30998  0.65639  Biso   1.000  C
  C308     1.0000 0.10741  0.49427  0.38870  Biso   1.000  C
  C309     1.0000 0.08882  0.60637  0.29060  Biso   1.000  C
  H420     1.0000 0.07729  0.69990  0.21130  Biso   1.000  H
  H421     1.0000 0.09849  0.85200  0.18799  Biso   1.000  H
  H422     1.0000 0.21749  0.78038  0.28771  Biso   1.000  H
  H423     1.0000 0.22619  0.79651  0.36441  Biso   1.000  H
  C310     1.0000 0.23853  0.91501  0.30861  Biso   1.000  C
  C311     1.0000 0.07264  0.51980  0.46088  Biso   1.000  C
  H424     1.0000 0.04659  0.53459  0.52252  Biso   1.000  H
  H425     1.0000 0.08149  0.58400  0.66399  Biso   1.000  H
  H426     1.0000 0.18067  0.33631  0.69712  Biso   1.000  H
  H427     1.0000 0.16568  0.23591  0.66429  Biso   1.000  H
  C312     1.0000 0.18636  0.31149  0.60319  Biso   1.000  C
  C313     1.0000 0.13377  0.44201  0.39258  Biso   1.000  C
  H428     1.0000 0.09510  0.44328  0.36490  Biso   1.000  H
  O47      1.0000 0.06996  0.53087  0.27691  Biso   1.000  O
  H429     1.0000 0.23008  0.96174  0.27348  Biso   1.000  H
  H430     1.0000 0.24279  0.95921  0.34831  Biso   1.000  H
  C314     1.0000 0.26140  0.88023  0.28918  Biso   1.000  C
  C315     1.0000 0.24348  0.94403  0.24948  Biso   1.000  C
  O48      1.0000 0.05469  0.51000  0.40612  Biso   1.000  O
  H431     1.0000 0.19138  0.38541  0.59559  Biso   1.000  H
  H432     1.0000 0.17617  0.28571  0.56232  Biso   1.000  H
  C316     1.0000 0.21042  0.24350  0.61772  Biso   1.000  C
  C317     1.0000 0.13580  0.33433  0.42138  Biso   1.000  C
  H433     1.0000 0.13850  0.43837  0.34782  Biso   1.000  H
  H434     1.0000 0.14628  0.48810  0.41898  Biso   1.000  H
  H435     1.0000 0.05859  0.55902  0.25100  Biso   1.000  H
  H436     1.0000 0.25728  0.82481  0.25542  Biso   1.000  H
  H437     1.0000 0.27139  0.84600  0.32760  Biso   1.000  H
  C318     1.0000 0.27838  0.96110  0.26200  Biso   1.000  C
  H438     1.0000 0.22849  0.98197  0.22681  Biso   1.000  H
  H439     1.0000 0.24579  0.87967  0.22372  Biso   1.000  H
  C319     1.0000 0.26669  0.01502  0.24899  Biso   1.000  C
  H440     1.0000 0.06119  0.50700  0.37201  Biso   1.000  H
  H441     1.0000 0.22017  0.26729  0.65967  Biso   1.000  H
  H442     1.0000 0.20537  0.16918  0.62351  Biso   1.000  H
  C320     1.0000 0.22739  0.24737  0.56560  Biso   1.000  C
  C321     1.0000 0.16207  0.28121  0.41932  Biso   1.000  C
  H443     1.0000 0.12248  0.28911  0.39729  Biso   1.000  H
  H444     1.0000 0.13258  0.33829  0.46761  Biso   1.000  H
  H445     1.0000 0.29408  0.92640  0.25292  Biso   1.000  H
  H446     1.0000 0.26959  0.99107  0.22122  Biso   1.000  H
  H447     1.0000 0.28270  0.01763  0.29419  Biso   1.000  H
  H448     1.0000 0.28158  0.97960  0.27269  Biso   1.000  H
  H449     1.0000 0.26939  0.02783  0.20360  Biso   1.000  H
  H450     1.0000 0.26389  0.08206  0.27039  Biso   1.000  H
  H451     1.0000 0.24219  0.20262  0.57841  Biso   1.000  H
  H452     1.0000 0.23288  0.32050  0.56021  Biso   1.000  H
  H453     1.0000 0.21809  0.22184  0.52409  Biso   1.000  H
  C322     1.0000 0.16758  0.25441  0.35229  Biso   1.000  C
  H454     1.0000 0.17549  0.32943  0.44018  Biso   1.000  H
  H455     1.0000 0.16289  0.21559  0.44582  Biso   1.000  H
  C323     1.0000 0.19427  0.20871  0.35140  Biso   1.000  C
  H456     1.0000 0.16570  0.31900  0.32481  Biso   1.000  H
  H457     1.0000 0.15489  0.20239  0.33241  Biso   1.000  H
  C324     1.0000 0.19930  0.18199  0.28172  Biso   1.000  C
  H458     1.0000 0.20700  0.26073  0.37098  Biso   1.000  H
  H459     1.0000 0.19619  0.14388  0.37859  Biso   1.000  H
  H460     1.0000 0.21640  0.15258  0.28339  Biso   1.000  H
  H461     1.0000 0.19790  0.24642  0.25488  Biso   1.000  H
  H462     1.0000 0.18689  0.12997  0.26219  Biso   1.000  H
  C325     1.0000 0.72160  0.96110  0.23800  Biso   1.000  C
  C326     1.0000 0.73860  0.88023  0.21081  Biso   1.000  C
  H463     1.0000 0.70589  0.92640  0.24708  Biso   1.000  H
  H464     1.0000 0.73038  0.99107  0.27878  Biso   1.000  H
  H465     1.0000 0.71728  0.01763  0.20581  Biso   1.000  H
  C327     1.0000 0.76145  0.91501  0.19138  Biso   1.000  C
  C328     1.0000 0.75650  0.94403  0.25051  Biso   1.000  C
  H466     1.0000 0.74270  0.82481  0.24457  Biso   1.000  H
  H467     1.0000 0.72859  0.84600  0.17239  Biso   1.000  H
  C329     1.0000 0.78062  0.83350  0.17661  Biso   1.000  C
  H468     1.0000 0.76990  0.96174  0.22652  Biso   1.000  H
  H469     1.0000 0.75719  0.95921  0.15168  Biso   1.000  H
  H470     1.0000 0.77149  0.98197  0.27318  Biso   1.000  H
  H471     1.0000 0.75419  0.87967  0.27627  Biso   1.000  H
  C330     1.0000 0.73329  0.01502  0.25100  Biso   1.000  C
  C331     1.0000 0.80583  0.87501  0.16949  Biso   1.000  C
  H472     1.0000 0.78249  0.78038  0.21229  Biso   1.000  H
  H473     1.0000 0.77379  0.79651  0.13559  Biso   1.000  H
  H474     1.0000 0.71840  0.97960  0.22730  Biso   1.000  H
  H475     1.0000 0.73059  0.02783  0.29639  Biso   1.000  H
  H476     1.0000 0.73609  0.08206  0.22961  Biso   1.000  H
  C332     1.0000 0.82616  0.79160  0.16370  Biso   1.000  C
  H477     1.0000 0.81160  0.92031  0.20782  Biso   1.000  H
  H478     1.0000 0.80430  0.92039  0.12989  Biso   1.000  H
  C333     1.0000 0.85243  0.84188  0.16380  Biso   1.000  C
  H479     1.0000 0.82159  0.75121  0.12248  Biso   1.000  H
  H480     1.0000 0.82679  0.74148  0.20080  Biso   1.000  H
  C334     1.0000 0.85552  0.90331  0.10202  Biso   1.000  C
  C335     1.0000 0.87342  0.75990  0.17990  Biso   1.000  C
  H481     1.0000 0.85459  0.89422  0.20070  Biso   1.000  H
  C336     1.0000 0.84341  0.87920  0.03931  Biso   1.000  C
  C337     1.0000 0.87113  0.99288  0.10649  Biso   1.000  C
  C338     1.0000 0.87547  0.67294  0.14020  Biso   1.000  C
  C339     1.0000 0.89142  0.76718  0.23770  Biso   1.000  C
  C340     1.0000 0.84583  0.93691  0.98332  Biso   1.000  C
  H482     1.0000 0.83270  0.81872  0.03460  Biso   1.000  H
  C341     1.0000 0.87435  0.05257  0.05211  Biso   1.000  C
  O49      1.0000 0.88394  0.01502  0.16758  Biso   1.000  O
  H483     1.0000 0.86380  0.66756  0.10099  Biso   1.000  H
  C342     1.0000 0.89351  0.59167  0.15310  Biso   1.000  C
  C343     1.0000 0.91031  0.69247  0.25100  Biso   1.000  C
  O50      1.0000 0.88990  0.85074  0.27961  Biso   1.000  O
  C344     1.0000 0.83198  0.90829  0.91599  Biso   1.000  C
  C345     1.0000 0.86175  0.02704  0.99131  Biso   1.000  C
  H484     1.0000 0.88539  0.11187  0.05678  Biso   1.000  H
  H485     1.0000 0.89209  0.07099  0.16199  Biso   1.000  H
  C346     1.0000 0.91116  0.60637  0.20939  Biso   1.000  C
  C347     1.0000 0.89257  0.49427  0.11130  Biso   1.000  C
  H486     1.0000 0.92269  0.69990  0.28869  Biso   1.000  H
  H487     1.0000 0.90149  0.85200  0.31200  Biso   1.000  H
  C348     1.0000 0.80612  0.85588  0.91692  Biso   1.000  C
  H488     1.0000 0.82847  0.97668  0.89209  Biso   1.000  H
  C349     1.0000 0.84905  0.84457  0.87590  Biso   1.000  C
  O51      1.0000 0.86558  0.09210  0.94102  Biso   1.000  O
  O52      1.0000 0.93001  0.53087  0.22308  Biso   1.000  O
  C350     1.0000 0.90127  0.51316  0.04421  Biso   1.000  C
  H489     1.0000 0.90490  0.44328  0.13510  Biso   1.000  H
  C351     1.0000 0.86621  0.44201  0.10742  Biso   1.000  C
  C352     1.0000 0.78738  0.92339  0.94710  Biso   1.000  C
  H490     1.0000 0.79877  0.83841  0.87119  Biso   1.000  H
  H491     1.0000 0.80856  0.78868  0.94160  Biso   1.000  H
  C353     1.0000 0.85349  0.73650  0.88493  Biso   1.000  C
  C354     1.0000 0.86182  0.89493  0.82933  Biso   1.000  C
  H492     1.0000 0.86257  0.06404  0.90402  Biso   1.000  H
  H493     1.0000 0.94139  0.55902  0.24899  Biso   1.000  H
  C355     1.0000 0.88495  0.52700  0.98582  Biso   1.000  C
  C356     1.0000 0.92736  0.51980  0.03911  Biso   1.000  C
  H494     1.0000 0.86150  0.43837  0.15222  Biso   1.000  H
  H495     1.0000 0.85370  0.48810  0.08102  Biso   1.000  H
  C357     1.0000 0.86418  0.33433  0.07861  Biso   1.000  C
  C358     1.0000 0.76077  0.87817  0.93763  Biso   1.000  C
  H496     1.0000 0.78698  0.99486  0.92742  Biso   1.000  H
  H497     1.0000 0.79326  0.93067  0.99470  Biso   1.000  H
  H498     1.0000 0.84527  0.70140  0.91692  Biso   1.000  H
  C359     1.0000 0.86910  0.67681  0.85063  Biso   1.000  C
  C360     1.0000 0.87799  0.83856  0.79493  Biso   1.000  C
  O53      1.0000 0.85760  0.00158  0.81922  Biso   1.000  O
  C361     1.0000 0.89256  0.54352  0.92492  Biso   1.000  C
  H499     1.0000 0.86728  0.52502  0.98793  Biso   1.000  H
  C362     1.0000 0.93570  0.53380  0.97978  Biso   1.000  C
  O54      1.0000 0.94529  0.51000  0.09392  Biso   1.000  O
  H500     1.0000 0.87750  0.28911  0.10271  Biso   1.000  H
  H501     1.0000 0.86740  0.33829  0.03239  Biso   1.000  H
  C363     1.0000 0.83791  0.28121  0.08072  Biso   1.000  C
  C364     1.0000 0.74218  0.93470  0.97448  Biso   1.000  C
  H502     1.0000 0.75418  0.87999  0.89023  Biso   1.000  H
  H503     1.0000 0.76167  0.80323  0.95142  Biso   1.000  H
  C365     1.0000 0.88141  0.73199  0.80518  Biso   1.000  C
  C366     1.0000 0.87372  0.55910  0.86299  Biso   1.000  C
  H504     1.0000 0.88678  0.87390  0.76401  Biso   1.000  H
  H505     1.0000 0.86808  0.02901  0.79699  Biso   1.000  H
  C367     1.0000 0.91859  0.54700  0.92252  Biso   1.000  C
  H506     1.0000 0.95338  0.53459  0.97753  Biso   1.000  H
  H507     1.0000 0.93879  0.50700  0.12798  Biso   1.000  H
  H508     1.0000 0.82449  0.32943  0.05982  Biso   1.000  H
  H509     1.0000 0.83709  0.21559  0.05418  Biso   1.000  H
  C368     1.0000 0.83240  0.25441  0.14771  Biso   1.000  C
  C369     1.0000 0.71514  0.89027  0.96079  Biso   1.000  C
  H510     1.0000 0.74819  0.92964  0.02208  Biso   1.000  H
  H511     1.0000 0.74188  0.01051  0.96251  Biso   1.000  H
  O55      1.0000 0.89735  0.67262  0.77132  Biso   1.000  O
  H512     1.0000 0.88237  0.53301  0.82589  Biso   1.000  H
  C370     1.0000 0.84920  0.49553  0.86010  Biso   1.000  C
  O56      1.0000 0.92936  0.56202  0.86608  Biso   1.000  O
  H513     1.0000 0.83430  0.31900  0.17519  Biso   1.000  H
  H514     1.0000 0.84509  0.20239  0.16758  Biso   1.000  H
  C371     1.0000 0.80571  0.20871  0.14859  Biso   1.000  C
  C372     1.0000 0.69772  0.93470  0.00128  Biso   1.000  C
  H515     1.0000 0.70848  0.90339  0.91412  Biso   1.000  H
  H516     1.0000 0.71587  0.81279  0.96742  Biso   1.000  H
  H517     1.0000 0.90277  0.71073  0.74281  Biso   1.000  H
  H518     1.0000 0.84098  0.51229  0.89921  Biso   1.000  H
  H519     1.0000 0.83748  0.51680  0.82069  Biso   1.000  H
  C373     1.0000 0.85378  0.37679  0.85769  Biso   1.000  C
  H520     1.0000 0.91847  0.58400  0.83600  Biso   1.000  H
  H521     1.0000 0.79300  0.26073  0.12901  Biso   1.000  H
  H522     1.0000 0.80379  0.14388  0.12140  Biso   1.000  H
  C374     1.0000 0.80069  0.18199  0.21832  Biso   1.000  C
  H523     1.0000 0.70389  0.92031  0.04760  Biso   1.000  H
  H524     1.0000 0.68096  0.90260  0.98960  Biso   1.000  H
  H525     1.0000 0.69646  0.01123  0.99431  Biso   1.000  H
  H526     1.0000 0.86327  0.35418  0.90029  Biso   1.000  H
  H527     1.0000 0.86457  0.36208  0.82339  Biso   1.000  H
  C375     1.0000 0.82948  0.30998  0.84361  Biso   1.000  C
  H528     1.0000 0.78360  0.15258  0.21660  Biso   1.000  H
  H529     1.0000 0.80210  0.24642  0.24511  Biso   1.000  H
  H530     1.0000 0.81309  0.12997  0.23780  Biso   1.000  H
  H531     1.0000 0.81927  0.33631  0.80293  Biso   1.000  H
  H532     1.0000 0.83428  0.23591  0.83571  Biso   1.000  H
  C376     1.0000 0.81359  0.31149  0.89680  Biso   1.000  C
  H533     1.0000 0.80857  0.38541  0.90441  Biso   1.000  H
  H534     1.0000 0.82377  0.28571  0.93773  Biso   1.000  H
  C377     1.0000 0.78955  0.24350  0.88233  Biso   1.000  C
  H535     1.0000 0.77977  0.26729  0.84032  Biso   1.000  H
  H536     1.0000 0.79457  0.16918  0.87649  Biso   1.000  H
  C378     1.0000 0.77258  0.24737  0.93439  Biso   1.000  C
  H537     1.0000 0.75777  0.20262  0.92158  Biso   1.000  H
  H538     1.0000 0.76706  0.32050  0.93979  Biso   1.000  H
  H539     1.0000 0.78187  0.22184  0.97591  Biso   1.000  H
  C379     1.0000 0.27838  0.03890  0.76199  Biso   1.000  C
  C380     1.0000 0.26138  0.11977  0.78917  Biso   1.000  C
  H540     1.0000 0.26957  0.00893  0.72121  Biso   1.000  H
  H541     1.0000 0.28267  0.98237  0.79418  Biso   1.000  H
  H542     1.0000 0.29408  0.07360  0.75291  Biso   1.000  H
  C381     1.0000 0.24348  0.05597  0.74948  Biso   1.000  C
  C382     1.0000 0.23853  0.08499  0.80861  Biso   1.000  C
  H543     1.0000 0.25728  0.17519  0.75541  Biso   1.000  H
  H544     1.0000 0.27137  0.15400  0.82760  Biso   1.000  H
  H545     1.0000 0.23008  0.03826  0.77347  Biso   1.000  H
  H546     1.0000 0.22847  0.01803  0.72680  Biso   1.000  H
  H547     1.0000 0.24577  0.12033  0.72371  Biso   1.000  H
  C383     1.0000 0.26666  0.98498  0.74898  Biso   1.000  C
  C384     1.0000 0.21934  0.16650  0.82338  Biso   1.000  C
  H548     1.0000 0.24277  0.04079  0.84831  Biso   1.000  H
  H549     1.0000 0.28158  0.02040  0.77269  Biso   1.000  H
  H550     1.0000 0.26938  0.97217  0.70359  Biso   1.000  H
  H551     1.0000 0.26386  0.91794  0.77038  Biso   1.000  H
  C385     1.0000 0.19413  0.12499  0.83049  Biso   1.000  C
  H552     1.0000 0.21747  0.21962  0.78770  Biso   1.000  H
  H553     1.0000 0.22617  0.20349  0.86440  Biso   1.000  H
  C386     1.0000 0.17382  0.20840  0.83628  Biso   1.000  C
  H554     1.0000 0.18838  0.07969  0.79222  Biso   1.000  H
  H555     1.0000 0.19566  0.07961  0.87009  Biso   1.000  H
  C387     1.0000 0.14753  0.15812  0.83619  Biso   1.000  C
  H556     1.0000 0.17837  0.24879  0.87750  Biso   1.000  H
  H557     1.0000 0.17317  0.25852  0.79919  Biso   1.000  H
  C388     1.0000 0.12656  0.24010  0.82009  Biso   1.000  C
  H558     1.0000 0.14537  0.10578  0.79928  Biso   1.000  H
  C389     1.0000 0.14445  0.09669  0.89802  Biso   1.000  C
  C390     1.0000 0.12449  0.32706  0.85979  Biso   1.000  C
  C391     1.0000 0.10856  0.23282  0.76228  Biso   1.000  C
  C392     1.0000 0.15654  0.12080  0.96068  Biso   1.000  C
  C393     1.0000 0.12884  0.00712  0.89350  Biso   1.000  C
  H559     1.0000 0.13616  0.33244  0.89900  Biso   1.000  H
  C394     1.0000 0.10645  0.40833  0.84688  Biso   1.000  C
  C395     1.0000 0.08965  0.30753  0.74898  Biso   1.000  C
  O57      1.0000 0.11005  0.14926  0.72038  Biso   1.000  O
  H560     1.0000 0.16727  0.18128  0.96539  Biso   1.000  H
  C396     1.0000 0.15415  0.06309  0.01667  Biso   1.000  C
  C397     1.0000 0.12561  0.94743  0.94787  Biso   1.000  C
  O58      1.0000 0.11602  0.98498  0.83241  Biso   1.000  O
  C398     1.0000 0.08880  0.39363  0.79060  Biso   1.000  C
  C399     1.0000 0.10741  0.50573  0.88869  Biso   1.000  C
  H561     1.0000 0.07727  0.30010  0.71130  Biso   1.000  H
  H562     1.0000 0.09848  0.14800  0.68799  Biso   1.000  H
  C400     1.0000 0.13823  0.97296  0.00867  Biso   1.000  C
  C401     1.0000 0.16798  0.09171  0.08400  Biso   1.000  C
  H563     1.0000 0.11456  0.88813  0.94321  Biso   1.000  H
  H564     1.0000 0.10787  0.92901  0.83800  Biso   1.000  H
  O59      1.0000 0.06994  0.46913  0.77691  Biso   1.000  O
  H565     1.0000 0.09508  0.55672  0.86489  Biso   1.000  H
  C402     1.0000 0.09869  0.48684  0.95577  Biso   1.000  C
  C403     1.0000 0.13375  0.55799  0.89257  Biso   1.000  C
  O60      1.0000 0.13438  0.90790  0.05897  Biso   1.000  O
  H566     1.0000 0.17149  0.02332  0.10790  Biso   1.000  H
  C404     1.0000 0.15093  0.15543  0.12409  Biso   1.000  C
  C405     1.0000 0.19386  0.14412  0.08307  Biso   1.000  C
  H567     1.0000 0.05857  0.44098  0.75100  Biso   1.000  H
  C406     1.0000 0.07262  0.48020  0.96088  Biso   1.000  C
  C407     1.0000 0.11503  0.47300  0.01417  Biso   1.000  C
  H568     1.0000 0.13848  0.56163  0.84782  Biso   1.000  H
  H569     1.0000 0.14626  0.51190  0.91897  Biso   1.000  H
  C408     1.0000 0.13578  0.66567  0.92137  Biso   1.000  C
  H570     1.0000 0.13739  0.93596  0.09597  Biso   1.000  H
  C409     1.0000 0.14647  0.26350  0.11511  Biso   1.000  C
  C410     1.0000 0.13816  0.10507  0.17071  Biso   1.000  C
  H571     1.0000 0.20119  0.16159  0.12880  Biso   1.000  H
  H572     1.0000 0.19140  0.21132  0.05838  Biso   1.000  H
  C411     1.0000 0.21260  0.07661  0.05289  Biso   1.000  C
  O61      1.0000 0.05467  0.49000  0.90611  Biso   1.000  O
  C412     1.0000 0.06426  0.46620  0.02021  Biso   1.000  C
  H573     1.0000 0.13270  0.47498  0.01211  Biso   1.000  H
  C413     1.0000 0.10740  0.45648  0.07507  Biso   1.000  C
  H574     1.0000 0.12247  0.71089  0.89728  Biso   1.000  H
  H575     1.0000 0.13256  0.66171  0.96760  Biso   1.000  H
  C414     1.0000 0.16205  0.71879  0.91931  Biso   1.000  C
  H576     1.0000 0.15469  0.29860  0.08307  Biso   1.000  H
  C415     1.0000 0.13088  0.32319  0.14936  Biso   1.000  C
  O62      1.0000 0.14236  0.99842  0.18077  Biso   1.000  O
  C416     1.0000 0.12199  0.16144  0.20511  Biso   1.000  C
  H577     1.0000 0.21300  0.00514  0.07257  Biso   1.000  H
  H578     1.0000 0.20670  0.06933  0.00529  Biso   1.000  H
  C417     1.0000 0.23921  0.12183  0.06241  Biso   1.000  C
  H579     1.0000 0.06117  0.49300  0.87201  Biso   1.000  H
  C418     1.0000 0.08137  0.45300  0.07747  Biso   1.000  C
  H580     1.0000 0.04660  0.46541  0.02251  Biso   1.000  H
  C419     1.0000 0.12623  0.44090  0.13700  Biso   1.000  C
  H581     1.0000 0.17547  0.67057  0.94017  Biso   1.000  H
  H582     1.0000 0.16287  0.78441  0.94581  Biso   1.000  H
  C420     1.0000 0.16758  0.74559  0.85228  Biso   1.000  C
  C421     1.0000 0.11856  0.26801  0.19480  Biso   1.000  C
  H583     1.0000 0.13188  0.97099  0.20300  Biso   1.000  H
  H584     1.0000 0.11320  0.12610  0.23597  Biso   1.000  H
  H585     1.0000 0.24580  0.12001  0.10981  Biso   1.000  H
  H586     1.0000 0.23830  0.19677  0.04857  Biso   1.000  H
  C422     1.0000 0.25778  0.06530  0.02551  Biso   1.000  C
  O63      1.0000 0.07062  0.43798  0.13391  Biso   1.000  O
  H587     1.0000 0.11759  0.46699  0.17410  Biso   1.000  H
  C423     1.0000 0.15076  0.50447  0.13989  Biso   1.000  C
  H588     1.0000 0.16568  0.68100  0.82480  Biso   1.000  H
  H589     1.0000 0.15487  0.79761  0.83241  Biso   1.000  H
  C424     1.0000 0.19427  0.79129  0.85140  Biso   1.000  C
  O64      1.0000 0.10261  0.32738  0.22866  Biso   1.000  O
  H590     1.0000 0.25176  0.07036  0.97791  Biso   1.000  H
  H591     1.0000 0.25810  0.98949  0.03748  Biso   1.000  H
  C425     1.0000 0.28482  0.10973  0.03920  Biso   1.000  C
  H592     1.0000 0.08148  0.41600  0.16399  Biso   1.000  H
  H593     1.0000 0.15900  0.48771  0.10078  Biso   1.000  H
  H594     1.0000 0.16250  0.48320  0.17930  Biso   1.000  H
  C426     1.0000 0.14618  0.62321  0.14230  Biso   1.000  C
  H595     1.0000 0.20698  0.73927  0.87098  Biso   1.000  H
  H596     1.0000 0.19617  0.85612  0.87858  Biso   1.000  H
  C427     1.0000 0.19928  0.81801  0.78172  Biso   1.000  C
  H597     1.0000 0.09719  0.28927  0.25717  Biso   1.000  H
  C428     1.0000 0.30224  0.06530  0.99871  Biso   1.000  C
  H598     1.0000 0.29150  0.09661  0.08586  Biso   1.000  H
  H599     1.0000 0.28409  0.18721  0.03257  Biso   1.000  H
  H600     1.0000 0.13669  0.64582  0.09970  Biso   1.000  H
  H601     1.0000 0.13539  0.63792  0.17660  Biso   1.000  H
  C429     1.0000 0.17049  0.69002  0.15638  Biso   1.000  C
  H602     1.0000 0.21638  0.84742  0.78338  Biso   1.000  H
  H603     1.0000 0.19788  0.75358  0.75487  Biso   1.000  H
  H604     1.0000 0.18687  0.87003  0.76219  Biso   1.000  H
  H605     1.0000 0.29607  0.07969  0.95239  Biso   1.000  H
  H606     1.0000 0.30350  0.98877  0.00568  Biso   1.000  H
  H607     1.0000 0.31900  0.09740  0.01039  Biso   1.000  H
  H608     1.0000 0.18069  0.66369  0.19711  Biso   1.000  H
  H609     1.0000 0.16570  0.76409  0.16428  Biso   1.000  H
  C430     1.0000 0.18637  0.68851  0.10319  Biso   1.000  C
  H610     1.0000 0.19139  0.61459  0.09558  Biso   1.000  H
  H611     1.0000 0.17619  0.71429  0.06231  Biso   1.000  H
  C431     1.0000 0.21041  0.75650  0.11771  Biso   1.000  C
  H612     1.0000 0.22019  0.73271  0.15967  Biso   1.000  H
  H613     1.0000 0.20539  0.83082  0.12350  Biso   1.000  H
  C432     1.0000 0.22740  0.75263  0.06560  Biso   1.000  C
  H614     1.0000 0.24219  0.79738  0.07840  Biso   1.000  H
  H615     1.0000 0.23290  0.67950  0.06020  Biso   1.000  H
  H616     1.0000 0.21810  0.77816  0.02408  Biso   1.000  H
