data_image0
_cell_length_a       33.479
_cell_length_b       33.479
_cell_length_c       42.914
_cell_angle_alpha    90
_cell_angle_beta     90
_cell_angle_gamma    90

_symmetry_space_group_name_H-M    "P 1"
_symmetry_int_tables_number       1

loop_
  _symmetry_equiv_pos_as_xyz
  'x, y, z'

loop_
  _atom_site_label
  _atom_site_occupancy
  _atom_site_fract_x
  _atom_site_fract_y
  _atom_site_fract_z
  _atom_site_thermal_displace_type
  _atom_site_B_iso_or_equiv
  _atom_site_type_symbol
  C1       1.0000 0.55459  0.47579  0.46199  Biso   1.000  C
  C2       1.0000 0.60190  0.48950  0.45801  Biso   1.000  C
  C3       1.0000 0.54840  0.44371  0.48229  Biso   1.000  C
  H1       1.0000 0.53911  0.49900  0.46971  Biso   1.000  H
  H2       1.0000 0.54389  0.46859  0.44130  Biso   1.000  H
  C4       1.0000 0.61289  0.45539  0.43559  Biso   1.000  C
  Cl1      1.0000 0.57101  0.46581  0.48001  Biso   1.000  Cl
  C5       1.0000 0.62251  0.48191  0.49010  Biso   1.000  C
  H3       1.0000 0.60581  0.51689  0.44929  Biso   1.000  H
  C6       1.0000 0.56391  0.40879  0.45540  Biso   1.000  C
  C7       1.0000 0.57331  0.43771  0.50690  Biso   1.000  C
  H4       1.0000 0.51961  0.44040  0.48809  Biso   1.000  H
  C8       1.0000 0.60910  0.41411  0.44960  Biso   1.000  C
  H5       1.0000 0.64240  0.46540  0.42080  Biso   1.000  H
  H6       1.0000 0.59551  0.45700  0.41700  Biso   1.000  H
  H7       1.0000 0.64079  0.45921  0.42851  Biso   1.000  H
  Cl2      1.0000 0.65071  0.43729  0.49420  Biso   1.000  Cl
  C9       1.0000 0.61639  0.44389  0.50340  Biso   1.000  C
  H8       1.0000 0.65160  0.48601  0.48751  Biso   1.000  H
  H9       1.0000 0.61280  0.50231  0.50501  Biso   1.000  H
  C10      1.0000 0.59861  0.42400  0.48250  Biso   1.000  C
  H10      1.0000 0.59909  0.41059  0.46169  Biso   1.000  H
  H11      1.0000 0.55850  0.38149  0.46330  Biso   1.000  H
  H12      1.0000 0.54909  0.41241  0.43559  Biso   1.000  H
  Cl3      1.0000 0.58260  0.38971  0.51098  Biso   1.000  Cl
  H13      1.0000 0.56931  0.40990  0.51410  Biso   1.000  H
  H14      1.0000 0.56411  0.45539  0.52400  Biso   1.000  H
  C11      1.0000 0.61949  0.37979  0.42730  Biso   1.000  C
  C12      1.0000 0.63290  0.40960  0.48101  Biso   1.000  C
  H15      1.0000 0.62980  0.44240  0.52409  Biso   1.000  H
  O1       1.0000 0.59351  0.35569  0.41979  Biso   1.000  O
  N1       1.0000 0.65931  0.37050  0.41839  Biso   1.000  N
  H16      1.0000 0.66191  0.41301  0.47730  Biso   1.000  H
  H17      1.0000 0.62830  0.38290  0.49031  Biso   1.000  H
  C13      1.0000 0.58691  0.36029  0.39789  Biso   1.000  C
  C14      1.0000 0.66639  0.33980  0.39801  Biso   1.000  C
  C15      1.0000 0.68981  0.40079  0.42166  Biso   1.000  C
  H18      1.0000 0.66749  0.38800  0.43301  Biso   1.000  H
  N2       1.0000 0.60999  0.34239  0.37489  Biso   1.000  N
  O2       1.0000 0.59981  0.36710  0.42340  Biso   1.000  O
  C16      1.0000 0.54350  0.37080  0.38990  Biso   1.000  C
  C17      1.0000 0.67601  0.35279  0.36410  Biso   1.000  C
  C18      1.0000 0.68449  0.35631  0.37580  Biso   1.000  C
  H19      1.0000 0.64960  0.32671  0.40870  Biso   1.000  H
  H20      1.0000 0.64270  0.32220  0.39761  Biso   1.000  H
  H21      1.0000 0.68909  0.32390  0.40600  Biso   1.000  H
  N3       1.0000 0.68350  0.39619  0.38766  Biso   1.000  N
  C19      1.0000 0.73037  0.38131  0.43205  Biso   1.000  C
  H22      1.0000 0.69001  0.42949  0.42711  Biso   1.000  H
  C20      1.0000 0.60399  0.34141  0.34220  Biso   1.000  C
  N4       1.0000 0.63801  0.36820  0.34900  Biso   1.000  N
  C21      1.0000 0.64981  0.32871  0.38570  Biso   1.000  C
  C22      1.0000 0.51940  0.33609  0.37750  Biso   1.000  C
  C23      1.0000 0.54159  0.40700  0.36629  Biso   1.000  C
  C24      1.0000 0.52361  0.38451  0.42040  Biso   1.000  C
  H23      1.0000 0.53051  0.34971  0.40870  Biso   1.000  H
  H24      1.0000 0.68479  0.35769  0.35280  Biso   1.000  H
  H25      1.0000 0.69659  0.37400  0.36410  Biso   1.000  H
  H26      1.0000 0.68640  0.32979  0.35210  Biso   1.000  H
  H27      1.0000 0.70979  0.34380  0.38251  Biso   1.000  H
  C25      1.0000 0.67069  0.42710  0.36750  Biso   1.000  C
  C26      1.0000 0.73061  0.35440  0.45580  Biso   1.000  C
  C27      1.0000 0.76529  0.39240  0.41688  Biso   1.000  C
  C28      1.0000 0.61680  0.30240  0.32670  Biso   1.000  C
  H28      1.0000 0.61910  0.36369  0.33260  Biso   1.000  H
  H29      1.0000 0.57529  0.34601  0.33791  Biso   1.000  H
  C29      1.0000 0.63410  0.41160  0.34800  Biso   1.000  C
  H30      1.0000 0.65489  0.30159  0.37729  Biso   1.000  H
  H31      1.0000 0.52039  0.31420  0.39309  Biso   1.000  H
  H32      1.0000 0.53239  0.32620  0.35830  Biso   1.000  H
  C30      1.0000 0.47510  0.34511  0.37009  Biso   1.000  C
  C31      1.0000 0.50240  0.33971  0.40730  Biso   1.000  C
  C32      1.0000 0.49530  0.41659  0.36219  Biso   1.000  C
  H33      1.0000 0.55381  0.39950  0.34611  Biso   1.000  H
  H34      1.0000 0.55599  0.43039  0.37480  Biso   1.000  H
  H35      1.0000 0.56140  0.42719  0.38030  Biso   1.000  H
  H36      1.0000 0.55229  0.38899  0.35900  Biso   1.000  H
  C33      1.0000 0.51680  0.43819  0.34730  Biso   1.000  C
  H37      1.0000 0.53759  0.40841  0.42860  Biso   1.000  H
  H38      1.0000 0.52570  0.36300  0.43620  Biso   1.000  H
  C34      1.0000 0.47430  0.39559  0.41390  Biso   1.000  C
  Cl4      1.0000 0.46710  0.38030  0.41620  Biso   1.000  Cl
  O3       1.0000 0.66071  0.41889  0.34089  Biso   1.000  O
  C35      1.0000 0.67439  0.47101  0.37820  Biso   1.000  C
  H39      1.0000 0.70629  0.34610  0.46521  Biso   1.000  H
  C36      1.0000 0.76750  0.33899  0.46630  Biso   1.000  C
  C37      1.0000 0.80161  0.37791  0.42681  Biso   1.000  C
  H40      1.0000 0.76409  0.40999  0.39959  Biso   1.000  H
  C38      1.0000 0.60262  0.26590  0.33602  Biso   1.000  C
  C39      1.0000 0.64321  0.30419  0.30158  Biso   1.000  C
  O4       1.0000 0.65799  0.42660  0.35459  Biso   1.000  O
  C40      1.0000 0.59249  0.42800  0.33870  Biso   1.000  C
  H41      1.0000 0.46011  0.32211  0.36100  Biso   1.000  H
  C41      1.0000 0.47501  0.38391  0.34930  Biso   1.000  C
  C42      1.0000 0.46071  0.35781  0.40551  Biso   1.000  C
  H42      1.0000 0.47101  0.33791  0.42049  Biso   1.000  H
  Cl5      1.0000 0.49120  0.32561  0.36920  Biso   1.000  Cl
  Cl6      1.0000 0.49500  0.30329  0.43319  Biso   1.000  Cl
  H43      1.0000 0.49219  0.44031  0.34821  Biso   1.000  H
  C43      1.0000 0.47681  0.42549  0.39281  Biso   1.000  C
  H44      1.0000 0.49270  0.43149  0.36000  Biso   1.000  H
  C44      1.0000 0.55611  0.41841  0.35860  Biso   1.000  C
  C45      1.0000 0.51280  0.42910  0.31139  Biso   1.000  C
  C46      1.0000 0.53030  0.48571  0.34851  Biso   1.000  C
  H45      1.0000 0.46101  0.40500  0.43349  Biso   1.000  H
  C47      1.0000 0.71469  0.48141  0.39181  Biso   1.000  C
  C48      1.0000 0.63959  0.48120  0.40150  Biso   1.000  C
  C49      1.0000 0.67099  0.49691  0.34909  Biso   1.000  C
  C50      1.0000 0.76938  0.31091  0.49415  Biso   1.000  C
  C51      1.0000 0.80274  0.35180  0.45218  Biso   1.000  C
  C52      1.0000 0.83999  0.38980  0.41119  Biso   1.000  C
  C53      1.0000 0.61379  0.23119  0.32083  Biso   1.000  C
  H46      1.0000 0.58481  0.26429  0.35319  Biso   1.000  H
  C54      1.0000 0.65569  0.26960  0.28601  Biso   1.000  C
  H47      1.0000 0.65289  0.32940  0.29489  Biso   1.000  H
  C55      1.0000 0.58520  0.41569  0.30370  Biso   1.000  C
  C56      1.0000 0.59760  0.47331  0.34290  Biso   1.000  C
  H48      1.0000 0.48729  0.37740  0.32889  Biso   1.000  H
  H49      1.0000 0.44700  0.39180  0.34530  Biso   1.000  H
  H50      1.0000 0.43120  0.35730  0.40651  Biso   1.000  H
  H51      1.0000 0.49210  0.44759  0.40241  Biso   1.000  H
  H52      1.0000 0.44951  0.43550  0.38889  Biso   1.000  H
  C57      1.0000 0.54569  0.43819  0.29219  Biso   1.000  C
  H53      1.0000 0.50680  0.40019  0.30899  Biso   1.000  H
  H54      1.0000 0.48929  0.44389  0.30349  Biso   1.000  H
  C58      1.0000 0.55790  0.49679  0.32521  Biso   1.000  C
  H55      1.0000 0.50611  0.50249  0.34639  Biso   1.000  H
  H56      1.0000 0.49389  0.49751  0.34639  Biso   1.000  H
  H57      1.0000 0.54219  0.49129  0.36920  Biso   1.000  H
  H58      1.0000 0.71991  0.46381  0.40989  Biso   1.000  H
  H59      1.0000 0.73551  0.47600  0.37601  Biso   1.000  H
  C59      1.0000 0.71779  0.52451  0.40211  Biso   1.000  C
  C60      1.0000 0.64291  0.52821  0.40910  Biso   1.000  C
  H60      1.0000 0.61340  0.47501  0.39190  Biso   1.000  H
  H61      1.0000 0.64509  0.49159  0.33870  Biso   1.000  H
  H62      1.0000 0.69261  0.48980  0.33430  Biso   1.000  H
  C61      1.0000 0.67451  0.54769  0.35851  Biso   1.000  C
  N5       1.0000 0.73712  0.28080  0.49480  Biso   1.000  N
  H63      1.0000 0.79539  0.29690  0.49389  Biso   1.000  H
  H64      1.0000 0.76809  0.32701  0.51349  Biso   1.000  H
  H65      1.0000 0.82771  0.34269  0.45990  Biso   1.000  H
  N6       1.0000 0.86837  0.35861  0.40635  Biso   1.000  N
  H66      1.0000 0.83351  0.40171  0.39069  Biso   1.000  H
  H67      1.0000 0.85280  0.41091  0.42389  Biso   1.000  H
  C62      1.0000 0.59590  0.19119  0.33008  Biso   1.000  C
  C63      1.0000 0.64061  0.23289  0.29617  Biso   1.000  C
  C64      1.0000 0.68279  0.27351  0.25831  Biso   1.000  C
  C65      1.0000 0.60369  0.44619  0.28839  Biso   1.000  C
  Cl7      1.0000 0.58481  0.40210  0.27294  Biso   1.000  Cl
  H68      1.0000 0.58171  0.38639  0.30200  Biso   1.000  H
  H69      1.0000 0.60829  0.42361  0.29070  Biso   1.000  H
  H70      1.0000 0.62299  0.48221  0.33329  Biso   1.000  H
  H71      1.0000 0.59829  0.48000  0.36529  Biso   1.000  H
  Cl8      1.0000 0.56471  0.47929  0.29960  Biso   1.000  Cl
  H72      1.0000 0.53971  0.43200  0.26980  Biso   1.000  H
  C66      1.0000 0.55599  0.48030  0.29620  Biso   1.000  C
  H73      1.0000 0.56170  0.52639  0.32430  Biso   1.000  H
  H74      1.0000 0.74369  0.53030  0.41280  Biso   1.000  H
  C67      1.0000 0.68111  0.53529  0.42271  Biso   1.000  C
  C68      1.0000 0.71469  0.54589  0.36729  Biso   1.000  C
  H75      1.0000 0.62051  0.53789  0.42250  Biso   1.000  H
  C69      1.0000 0.64649  0.55029  0.38099  Biso   1.000  C
  H76      1.0000 0.66940  0.56591  0.34049  Biso   1.000  H
  C70      1.0000 0.73739  0.25320  0.46819  Biso   1.000  C
  C71      1.0000 0.71269  0.27271  0.51941  Biso   1.000  C
  C72      1.0000 0.85570  0.32190  0.38850  Biso   1.000  C
  C73      1.0000 0.90881  0.35560  0.41700  Biso   1.000  C
  N7       1.0000 0.59694  0.18403  0.36319  Biso   1.000  N
  H77      1.0000 0.56779  0.19009  0.32290  Biso   1.000  H
  H78      1.0000 0.61071  0.16960  0.31941  Biso   1.000  H
  H79      1.0000 0.64871  0.20900  0.28611  Biso   1.000  H
  N8       1.0000 0.71140  0.24078  0.25516  Biso   1.000  N
  H80      1.0000 0.66630  0.27471  0.23920  Biso   1.000  H
  H81      1.0000 0.69769  0.29890  0.25989  Biso   1.000  H
  H82      1.0000 0.61851  0.43899  0.30780  Biso   1.000  H
  Cl9      1.0000 0.63697  0.47077  0.26444  Biso   1.000  Cl
  H83      1.0000 0.58231  0.48451  0.28620  Biso   1.000  H
  H84      1.0000 0.53631  0.49610  0.28410  Biso   1.000  H
  H85      1.0000 0.68279  0.51979  0.44230  Biso   1.000  H
  H86      1.0000 0.68291  0.56391  0.42830  Biso   1.000  H
  H87      1.0000 0.72619  0.57320  0.36820  Biso   1.000  H
  H88      1.0000 0.73010  0.53021  0.35189  Biso   1.000  H
  H89      1.0000 0.62081  0.54640  0.37021  Biso   1.000  H
  H90      1.0000 0.64691  0.57860  0.38771  Biso   1.000  H
  C74      1.0000 0.77051  0.22181  0.46901  Biso   1.000  C
  H91      1.0000 0.74011  0.26900  0.44880  Biso   1.000  H
  H92      1.0000 0.71131  0.23940  0.46731  Biso   1.000  H
  O5       1.0000 0.69297  0.24155  0.51892  Biso   1.000  O
  C75      1.0000 0.70719  0.30091  0.54619  Biso   1.000  C
  C76      1.0000 0.85179  0.33149  0.35511  Biso   1.000  C
  H93      1.0000 0.87571  0.30049  0.39129  Biso   1.000  H
  H94      1.0000 0.82980  0.31220  0.39661  Biso   1.000  H
  O6       1.0000 0.92849  0.33089  0.40989  Biso   1.000  O
  C77      1.0000 0.92521  0.38950  0.43790  Biso   1.000  C
  C78      1.0000 0.56531  0.17130  0.38239  Biso   1.000  C
  C79      1.0000 0.63700  0.18510  0.37762  Biso   1.000  C
  C80      1.0000 0.73999  0.23669  0.28112  Biso   1.000  C
  C81      1.0000 0.71911  0.22011  0.22813  Biso   1.000  C
  N9       1.0000 0.76896  0.19311  0.49450  Biso   1.000  N
  H95      1.0000 0.76989  0.20691  0.44911  Biso   1.000  H
  H96      1.0000 0.79650  0.23591  0.47001  Biso   1.000  H
  C82      1.0000 0.69611  0.34401  0.53600  Biso   1.000  C
  C83      1.0000 0.74459  0.30120  0.56909  Biso   1.000  C
  C84      1.0000 0.67251  0.28439  0.56620  Biso   1.000  C
  N10      1.0000 0.89020  0.33639  0.33893  Biso   1.000  N
  H97      1.0000 0.83649  0.30990  0.34469  Biso   1.000  H
  H98      1.0000 0.83620  0.35640  0.35289  Biso   1.000  H
  C85      1.0000 0.96679  0.37501  0.44720  Biso   1.000  C
  C86      1.0000 0.90131  0.40070  0.46649  Biso   1.000  C
  C87      1.0000 0.93169  0.42770  0.41809  Biso   1.000  C
  C88      1.0000 0.52131  0.17471  0.37039  Biso   1.000  C
  O7       1.0000 0.57221  0.15810  0.40742  Biso   1.000  O
  C89      1.0000 0.66379  0.15120  0.36659  Biso   1.000  C
  H99      1.0000 0.63410  0.18349  0.40050  Biso   1.000  H
  H100     1.0000 0.64990  0.21091  0.37261  Biso   1.000  H
  H101     1.0000 0.75370  0.21061  0.27909  Biso   1.000  H
  H102     1.0000 0.72481  0.23630  0.30090  Biso   1.000  H
  C90      1.0000 0.77150  0.26909  0.28336  Biso   1.000  C
  O8       1.0000 0.75008  0.19953  0.22650  Biso   1.000  O
  C91      1.0000 0.68861  0.21939  0.20110  Biso   1.000  C
  C92      1.0000 0.73539  0.16530  0.49382  Biso   1.000  C
  C93      1.0000 0.79151  0.20030  0.52090  Biso   1.000  C
  H103     1.0000 0.71779  0.35521  0.52309  Biso   1.000  H
  H104     1.0000 0.67141  0.34341  0.52330  Biso   1.000  H
  C94      1.0000 0.68960  0.37011  0.56441  Biso   1.000  C
  C95      1.0000 0.73560  0.32809  0.59610  Biso   1.000  C
  H105     1.0000 0.74999  0.27381  0.57660  Biso   1.000  H
  H106     1.0000 0.76860  0.31091  0.55791  Biso   1.000  H
  H107     1.0000 0.64829  0.28179  0.55311  Biso   1.000  H
  H108     1.0000 0.67959  0.25750  0.57389  Biso   1.000  H
  C96      1.0000 0.66361  0.31100  0.59321  Biso   1.000  C
  C97      1.0000 0.91469  0.30291  0.33851  Biso   1.000  C
  C98      1.0000 0.90161  0.37450  0.33281  Biso   1.000  C
  H109     1.0000 0.98339  0.37179  0.42830  Biso   1.000  H
  H110     1.0000 0.96460  0.34870  0.45750  Biso   1.000  H
  C99      1.0000 0.98769  0.40479  0.46959  Biso   1.000  C
  C100     1.0000 0.92189  0.43209  0.48660  Biso   1.000  C
  H111     1.0000 0.89671  0.37639  0.47919  Biso   1.000  H
  H112     1.0000 0.87500  0.41100  0.45980  Biso   1.000  H
  H113     1.0000 0.94740  0.42080  0.39931  Biso   1.000  H
  H114     1.0000 0.90549  0.43810  0.41119  Biso   1.000  H
  C101     1.0000 0.95319  0.45900  0.43610  Biso   1.000  C
  C102     1.0000 0.51220  0.14051  0.34700  Biso   1.000  C
  C103     1.0000 0.51011  0.21410  0.35690  Biso   1.000  C
  C104     1.0000 0.49449  0.16951  0.39971  Biso   1.000  C
  N11      1.0000 0.64939  0.11114  0.37557  Biso   1.000  N
  H115     1.0000 0.66600  0.15239  0.34359  Biso   1.000  H
  H116     1.0000 0.69091  0.15511  0.37531  Biso   1.000  H
  N12      1.0000 0.79946  0.27038  0.25677  Biso   1.000  N
  H117     1.0000 0.75800  0.29529  0.28511  Biso   1.000  H
  H118     1.0000 0.78709  0.26500  0.30270  Biso   1.000  H
  C105     1.0000 0.64661  0.20780  0.21196  Biso   1.000  C
  C106     1.0000 0.70331  0.18501  0.17901  Biso   1.000  C
  C107     1.0000 0.69031  0.25891  0.18246  Biso   1.000  C
  C108     1.0000 0.73330  0.14110  0.46351  Biso   1.000  C
  H119     1.0000 0.71021  0.18041  0.49641  Biso   1.000  H
  H120     1.0000 0.73781  0.14660  0.51170  Biso   1.000  H
  O9       1.0000 0.81197  0.23209  0.52132  Biso   1.000  O
  C109     1.0000 0.79489  0.17109  0.54749  Biso   1.000  C
  H121     1.0000 0.68320  0.39789  0.55751  Biso   1.000  H
  C110     1.0000 0.72451  0.37089  0.58419  Biso   1.000  C
  C111     1.0000 0.65351  0.35291  0.58380  Biso   1.000  C
  H122     1.0000 0.75979  0.32991  0.60980  Biso   1.000  H
  C112     1.0000 0.70050  0.31151  0.61509  Biso   1.000  C
  H123     1.0000 0.64040  0.29959  0.60491  Biso   1.000  H
  C113     1.0000 0.89531  0.26661  0.32379  Biso   1.000  C
  H124     1.0000 0.92249  0.29631  0.36021  Biso   1.000  H
  H125     1.0000 0.93939  0.30939  0.32691  Biso   1.000  H
  O10      1.0000 0.87739  0.40165  0.33947  Biso   1.000  O
  C114     1.0000 0.94241  0.38251  0.31470  Biso   1.000  C
  C115     1.0000 0.96239  0.41731  0.49599  Biso   1.000  C
  C116     1.0000 0.99220  0.44550  0.44650  Biso   1.000  C
  H126     1.0000 0.01419  0.39461  0.47679  Biso   1.000  H
  H127     1.0000 0.90540  0.43830  0.50541  Biso   1.000  H
  C117     1.0000 0.92580  0.46889  0.46591  Biso   1.000  C
  H128     1.0000 0.95621  0.48350  0.42301  Biso   1.000  H
  C118     1.0000 0.46599  0.14200  0.33910  Biso   1.000  C
  H129     1.0000 0.51919  0.11431  0.35641  Biso   1.000  H
  H130     1.0000 0.52821  0.14400  0.32780  Biso   1.000  H
  C119     1.0000 0.46680  0.21599  0.34520  Biso   1.000  C
  H131     1.0000 0.52830  0.22029  0.33940  Biso   1.000  H
  H132     1.0000 0.51390  0.23501  0.37300  Biso   1.000  H
  C120     1.0000 0.45031  0.17220  0.38999  Biso   1.000  C
  H133     1.0000 0.49990  0.14319  0.40949  Biso   1.000  H
  H134     1.0000 0.50070  0.19060  0.41511  Biso   1.000  H
  C121     1.0000 0.65130  0.10260  0.40870  Biso   1.000  C
  C122     1.0000 0.63171  0.08889  0.35271  Biso   1.000  C
  C123     1.0000 0.82900  0.23749  0.25588  Biso   1.000  C
  C124     1.0000 0.79091  0.29639  0.23349  Biso   1.000  C
  H135     1.0000 0.64739  0.18179  0.22279  Biso   1.000  H
  H136     1.0000 0.63631  0.22811  0.22671  Biso   1.000  H
  C125     1.0000 0.61910  0.20520  0.18381  Biso   1.000  C
  C126     1.0000 0.67541  0.18229  0.15091  Biso   1.000  C
  H137     1.0000 0.73091  0.19051  0.17190  Biso   1.000  H
  H138     1.0000 0.70331  0.15929  0.19040  Biso   1.000  H
  H139     1.0000 0.71770  0.26390  0.17479  Biso   1.000  H
  H140     1.0000 0.68201  0.28161  0.19569  Biso   1.000  H
  C127     1.0000 0.66050  0.25371  0.15419  Biso   1.000  C
  C128     1.0000 0.69659  0.13361  0.44962  Biso   1.000  C
  C129     1.0000 0.76791  0.12429  0.44985  Biso   1.000  C
  C130     1.0000 0.82909  0.18489  0.56839  Biso   1.000  C
  C131     1.0000 0.80710  0.12859  0.53514  Biso   1.000  C
  C132     1.0000 0.75731  0.16781  0.56760  Biso   1.000  C
  H141     1.0000 0.71929  0.38851  0.60220  Biso   1.000  H
  H142     1.0000 0.74730  0.38209  0.57240  Biso   1.000  H
  H143     1.0000 0.64891  0.36949  0.60251  Biso   1.000  H
  H144     1.0000 0.62890  0.35300  0.57100  Biso   1.000  H
  H145     1.0000 0.69539  0.32859  0.63350  Biso   1.000  H
  H146     1.0000 0.70659  0.28409  0.62250  Biso   1.000  H
  C133     1.0000 0.87180  0.26951  0.29776  Biso   1.000  C
  C134     1.0000 0.90170  0.23029  0.33814  Biso   1.000  C
  C135     1.0000 0.94301  0.36041  0.28240  Biso   1.000  C
  C136     1.0000 0.97861  0.37540  0.33600  Biso   1.000  C
  C137     1.0000 0.94250  0.42821  0.30729  Biso   1.000  C
  H147     1.0000 0.97631  0.43869  0.50750  Biso   1.000  H
  H148     1.0000 0.95911  0.39440  0.51030  Biso   1.000  H
  H149     1.0000 0.00559  0.46719  0.45820  Biso   1.000  H
  H150     1.0000 0.00890  0.43881  0.42821  Biso   1.000  H
  H151     1.0000 0.93790  0.49099  0.47791  Biso   1.000  H
  H152     1.0000 0.89901  0.47749  0.45880  Biso   1.000  H
  C138     1.0000 0.45891  0.18101  0.32320  Biso   1.000  C
  H153     1.0000 0.45880  0.11939  0.32491  Biso   1.000  H
  C139     1.0000 0.44201  0.13901  0.36951  Biso   1.000  C
  H154     1.0000 0.46089  0.24209  0.33490  Biso   1.000  H
  C140     1.0000 0.44150  0.21040  0.37589  Biso   1.000  C
  H155     1.0000 0.43341  0.16930  0.40910  Biso   1.000  H
  C141     1.0000 0.69309  0.11097  0.42373  Biso   1.000  C
  H156     1.0000 0.64440  0.07420  0.41210  Biso   1.000  H
  H157     1.0000 0.63099  0.11900  0.41961  Biso   1.000  H
  O11      1.0000 0.62678  0.10206  0.32719  Biso   1.000  O
  C142     1.0000 0.61731  0.04519  0.35921  Biso   1.000  C
  C143     1.0000 0.85391  0.23561  0.28524  Biso   1.000  C
  H158     1.0000 0.84689  0.24129  0.23771  Biso   1.000  H
  H159     1.0000 0.81481  0.21180  0.25311  Biso   1.000  H
  O12      1.0000 0.76051  0.31653  0.23480  Biso   1.000  O
  C144     1.0000 0.81869  0.30261  0.20539  Biso   1.000  C
  H160     1.0000 0.59151  0.19881  0.19110  Biso   1.000  H
  C145     1.0000 0.63290  0.17211  0.16191  Biso   1.000  C
  C146     1.0000 0.61809  0.24541  0.16610  Biso   1.000  C
  H161     1.0000 0.68500  0.16040  0.13699  Biso   1.000  H
  C147     1.0000 0.67371  0.22091  0.13201  Biso   1.000  C
  H162     1.0000 0.65991  0.27940  0.14231  Biso   1.000  H
  H163     1.0000 0.67320  0.14481  0.45859  Biso   1.000  H
  C148     1.0000 0.76379  0.10141  0.42334  Biso   1.000  C
  H164     1.0000 0.79339  0.12880  0.45880  Biso   1.000  H
  H165     1.0000 0.82311  0.21189  0.57660  Biso   1.000  H
  H166     1.0000 0.85400  0.18650  0.55609  Biso   1.000  H
  C149     1.0000 0.83491  0.15541  0.59589  Biso   1.000  C
  C150     1.0000 0.81251  0.09979  0.56329  Biso   1.000  C
  H167     1.0000 0.78599  0.11819  0.52109  Biso   1.000  H
  H168     1.0000 0.83231  0.13041  0.52321  Biso   1.000  H
  H169     1.0000 0.75101  0.19421  0.57671  Biso   1.000  H
  H170     1.0000 0.73449  0.15959  0.55441  Biso   1.000  H
  C151     1.0000 0.76260  0.13779  0.59361  Biso   1.000  C
  H171     1.0000 0.86780  0.29469  0.28820  Biso   1.000  H
  C152     1.0000 0.88521  0.19559  0.32516  Biso   1.000  C
  H172     1.0000 0.91720  0.22889  0.35660  Biso   1.000  H
  H173     1.0000 0.92040  0.36949  0.26931  Biso   1.000  H
  H174     1.0000 0.94080  0.33119  0.28541  Biso   1.000  H
  C153     1.0000 0.98471  0.37140  0.26621  Biso   1.000  C
  H175     1.0000 0.97969  0.34711  0.34250  Biso   1.000  H
  H176     1.0000 0.97661  0.39231  0.35480  Biso   1.000  H
  C154     1.0000 0.01691  0.38651  0.31710  Biso   1.000  C
  H177     1.0000 0.91720  0.43499  0.29650  Biso   1.000  H
  H178     1.0000 0.94301  0.44311  0.32719  Biso   1.000  H
  C155     1.0000 0.97700  0.44201  0.28739  Biso   1.000  C
  H179     1.0000 0.43090  0.18220  0.31579  Biso   1.000  H
  H180     1.0000 0.47660  0.18319  0.30480  Biso   1.000  H
  H181     1.0000 0.41309  0.13850  0.36459  Biso   1.000  H
  H182     1.0000 0.44879  0.11371  0.38020  Biso   1.000  H
  H183     1.0000 0.44789  0.23209  0.39069  Biso   1.000  H
  H184     1.0000 0.41271  0.21189  0.37090  Biso   1.000  H
  C156     1.0000 0.72649  0.09460  0.41003  Biso   1.000  C
  C157     1.0000 0.65250  0.01789  0.37030  Biso   1.000  C
  C158     1.0000 0.60309  0.02820  0.32810  Biso   1.000  C
  C159     1.0000 0.58299  0.04310  0.38400  Biso   1.000  C
  C160     1.0000 0.86120  0.19851  0.29850  Biso   1.000  C
  C161     1.0000 0.82099  0.26739  0.18281  Biso   1.000  C
  C162     1.0000 0.86161  0.31459  0.21711  Biso   1.000  C
  C163     1.0000 0.80280  0.33800  0.18609  Biso   1.000  C
  H185     1.0000 0.61471  0.17020  0.14380  Biso   1.000  H
  H186     1.0000 0.63281  0.14609  0.17290  Biso   1.000  H
  H187     1.0000 0.59921  0.24391  0.14851  Biso   1.000  H
  H188     1.0000 0.60940  0.26709  0.18029  Biso   1.000  H
  H189     1.0000 0.70041  0.22719  0.12320  Biso   1.000  H
  H190     1.0000 0.65450  0.21829  0.11460  Biso   1.000  H
  C164     1.0000 0.80059  0.08211  0.40805  Biso   1.000  C
  H191     1.0000 0.85749  0.16491  0.60931  Biso   1.000  H
  C165     1.0000 0.84489  0.11380  0.58310  Biso   1.000  C
  C166     1.0000 0.79590  0.15451  0.61570  Biso   1.000  C
  H192     1.0000 0.81950  0.07270  0.55520  Biso   1.000  H
  C167     1.0000 0.77311  0.09711  0.58079  Biso   1.000  C
  H193     1.0000 0.73700  0.13579  0.60549  Biso   1.000  H
  C168     1.0000 0.89340  0.15571  0.34049  Biso   1.000  C
  H194     1.0000 0.98719  0.35581  0.24640  Biso   1.000  H
  C169     1.0000 0.98351  0.41411  0.25849  Biso   1.000  C
  C170     1.0000 0.02079  0.36181  0.28720  Biso   1.000  C
  H195     1.0000 0.04059  0.38081  0.33050  Biso   1.000  H
  C171     1.0000 0.01720  0.43090  0.30941  Biso   1.000  C
  H196     1.0000 0.97551  0.47101  0.28180  Biso   1.000  H
  H197     1.0000 0.72419  0.07889  0.39169  Biso   1.000  H
  H198     1.0000 0.67421  0.01831  0.35459  Biso   1.000  H
  H199     1.0000 0.66331  0.02811  0.39020  Biso   1.000  H
  C172     1.0000 0.63759  0.97500  0.37470  Biso   1.000  C
  H200     1.0000 0.58111  0.04510  0.32011  Biso   1.000  H
  H201     1.0000 0.62541  0.02981  0.31290  Biso   1.000  H
  C173     1.0000 0.58900  0.98569  0.32989  Biso   1.000  C
  H202     1.0000 0.59279  0.05260  0.40439  Biso   1.000  H
  H203     1.0000 0.56029  0.06019  0.37750  Biso   1.000  H
  C174     1.0000 0.56940  0.99910  0.38640  Biso   1.000  C
  H204     1.0000 0.84991  0.17509  0.28951  Biso   1.000  H
  H205     1.0000 0.79399  0.26070  0.17500  Biso   1.000  H
  H206     1.0000 0.83201  0.24371  0.19350  Biso   1.000  H
  C175     1.0000 0.84880  0.27961  0.15489  Biso   1.000  C
  C176     1.0000 0.88871  0.32489  0.18800  Biso   1.000  C
  H207     1.0000 0.87350  0.29230  0.22899  Biso   1.000  H
  H208     1.0000 0.85979  0.33809  0.23100  Biso   1.000  H
  H209     1.0000 0.77550  0.33149  0.17880  Biso   1.000  H
  H210     1.0000 0.80071  0.36169  0.19991  Biso   1.000  H
  C177     1.0000 0.82789  0.34899  0.15841  Biso   1.000  C
  N13      1.0000 0.83584  0.10738  0.40914  Biso   1.000  N
  H211     1.0000 0.80651  0.05660  0.41879  Biso   1.000  H
  H212     1.0000 0.79429  0.07581  0.38600  Biso   1.000  H
  H213     1.0000 0.87001  0.11500  0.57100  Biso   1.000  H
  H214     1.0000 0.84889  0.09490  0.60060  Biso   1.000  H
  H215     1.0000 0.78891  0.18161  0.62299  Biso   1.000  H
  H216     1.0000 0.79919  0.13689  0.63411  Biso   1.000  H
  H217     1.0000 0.75170  0.08779  0.56660  Biso   1.000  H
  H218     1.0000 0.77550  0.07769  0.59810  Biso   1.000  H
  N14      1.0000 0.85797  0.12966  0.34171  Biso   1.000  N
  H219     1.0000 0.91490  0.14179  0.32889  Biso   1.000  H
  H220     1.0000 0.90310  0.16040  0.36200  Biso   1.000  H
  H221     1.0000 0.96171  0.41880  0.24339  Biso   1.000  H
  H222     1.0000 0.00890  0.42161  0.24819  Biso   1.000  H
  H223     1.0000 0.02121  0.33301  0.29231  Biso   1.000  H
  H224     1.0000 0.04600  0.36859  0.27639  Biso   1.000  H
  H225     1.0000 0.04191  0.43771  0.29790  Biso   1.000  H
  H226     1.0000 0.01661  0.44670  0.32889  Biso   1.000  H
  H227     1.0000 0.65979  0.95750  0.38209  Biso   1.000  H
  C178     1.0000 0.62200  0.96060  0.34140  Biso   1.000  C
  C179     1.0000 0.60330  0.97431  0.39770  Biso   1.000  C
  H228     1.0000 0.57989  0.97631  0.30899  Biso   1.000  H
  C180     1.0000 0.55611  0.98599  0.35131  Biso   1.000  C
  H229     1.0000 0.54619  0.99680  0.40089  Biso   1.000  H
  H230     1.0000 0.85110  0.25589  0.14091  Biso   1.000  H
  C181     1.0000 0.89190  0.28869  0.16810  Biso   1.000  C
  C182     1.0000 0.83109  0.31169  0.13681  Biso   1.000  C
  H231     1.0000 0.91601  0.33230  0.19551  Biso   1.000  H
  C183     1.0000 0.87129  0.35969  0.16999  Biso   1.000  C
  H232     1.0000 0.81579  0.37199  0.14690  Biso   1.000  H
  C184     1.0000 0.83091  0.14651  0.39451  Biso   1.000  C
  C185     1.0000 0.87371  0.09531  0.41625  Biso   1.000  C
  C186     1.0000 0.82410  0.14529  0.35951  Biso   1.000  C
  C187     1.0000 0.85549  0.09200  0.33050  Biso   1.000  C
  H233     1.0000 0.64431  0.96159  0.32630  Biso   1.000  H
  H234     1.0000 0.61280  0.93261  0.34290  Biso   1.000  H
  H235     1.0000 0.59419  0.94650  0.40071  Biso   1.000  H
  H236     1.0000 0.61259  0.98459  0.41809  Biso   1.000  H
  H237     1.0000 0.53550  0.00469  0.34359  Biso   1.000  H
  H238     1.0000 0.54410  0.95899  0.35210  Biso   1.000  H
  H239     1.0000 0.90161  0.26581  0.18050  Biso   1.000  H
  H240     1.0000 0.91081  0.29350  0.15079  Biso   1.000  H
  H241     1.0000 0.80430  0.30380  0.12931  Biso   1.000  H
  H242     1.0000 0.84811  0.31790  0.11849  Biso   1.000  H
  H243     1.0000 0.88850  0.36590  0.15191  Biso   1.000  H
  H244     1.0000 0.87031  0.38361  0.18351  Biso   1.000  H
  H245     1.0000 0.85501  0.16270  0.39870  Biso   1.000  H
  H246     1.0000 0.80791  0.16010  0.40430  Biso   1.000  H
  O13      1.0000 0.90170  0.11751  0.41001  Biso   1.000  O
  C188     1.0000 0.88121  0.05529  0.43384  Biso   1.000  C
  H247     1.0000 0.80041  0.12850  0.35511  Biso   1.000  H
  H248     1.0000 0.81821  0.17271  0.35210  Biso   1.000  H
  O14      1.0000 0.82631  0.07202  0.33637  Biso   1.000  O
  C189     1.0000 0.88880  0.07231  0.30911  Biso   1.000  C
  C190     1.0000 0.87311  0.01849  0.41301  Biso   1.000  C
  C191     1.0000 0.85681  0.05230  0.46467  Biso   1.000  C
  C192     1.0000 0.92571  0.05469  0.44240  Biso   1.000  C
  C193     1.0000 0.90230  0.10060  0.28100  Biso   1.000  C
  C194     1.0000 0.87329  0.03480  0.29531  Biso   1.000  C
  C195     1.0000 0.92521  0.06180  0.32931  Biso   1.000  C
  H249     1.0000 0.84459  0.01789  0.40700  Biso   1.000  H
  H250     1.0000 0.88930  0.02040  0.39381  Biso   1.000  H
  C196     1.0000 0.88381  0.97951  0.43049  Biso   1.000  C
  C197     1.0000 0.86669  0.01249  0.48106  Biso   1.000  C
  H251     1.0000 0.86359  0.07491  0.47849  Biso   1.000  H
  H252     1.0000 0.82789  0.05350  0.45999  Biso   1.000  H
  H253     1.0000 0.93220  0.07841  0.45519  Biso   1.000  H
  H254     1.0000 0.94199  0.05580  0.42310  Biso   1.000  H
  C198     1.0000 0.93560  0.01550  0.46111  Biso   1.000  C
  H255     1.0000 0.87930  0.10690  0.26749  Biso   1.000  H
  H256     1.0000 0.91359  0.12590  0.28909  Biso   1.000  H
  C199     1.0000 0.93261  0.07850  0.26360  Biso   1.000  C
  C200     1.0000 0.89859  0.01189  0.27469  Biso   1.000  C
  H257     1.0000 0.86529  0.01700  0.31270  Biso   1.000  H
  H258     1.0000 0.84859  0.04149  0.28359  Biso   1.000  H
  H259     1.0000 0.93671  0.08659  0.33830  Biso   1.000  H
  H260     1.0000 0.91660  0.04451  0.34681  Biso   1.000  H
  C201     1.0000 0.95690  0.04029  0.30999  Biso   1.000  C
  H261     1.0000 0.87810  0.95591  0.41700  Biso   1.000  H
  C202     1.0000 0.85761  0.97739  0.46081  Biso   1.000  C
  C203     1.0000 0.92709  0.97999  0.43951  Biso   1.000  C
  H262     1.0000 0.85041  0.01039  0.50049  Biso   1.000  H
  C204     1.0000 0.91120  0.01389  0.49000  Biso   1.000  C
  H263     1.0000 0.96460  0.01550  0.46679  Biso   1.000  H
  H264     1.0000 0.94140  0.09519  0.24561  Biso   1.000  H
  C205     1.0000 0.91619  0.04029  0.25129  Biso   1.000  C
  C206     1.0000 0.96759  0.06819  0.28201  Biso   1.000  C
  C207     1.0000 0.93990  0.00269  0.29750  Biso   1.000  C
  H265     1.0000 0.88590  0.98760  0.26551  Biso   1.000  H
  H266     1.0000 0.98109  0.03471  0.32290  Biso   1.000  H
  H267     1.0000 0.82900  0.97760  0.45510  Biso   1.000  H
  H268     1.0000 0.86341  0.95239  0.47220  Biso   1.000  H
  H269     1.0000 0.94379  0.98211  0.42049  Biso   1.000  H
  H270     1.0000 0.93399  0.95481  0.45030  Biso   1.000  H
  H271     1.0000 0.91651  0.03781  0.50301  Biso   1.000  H
  H272     1.0000 0.91831  0.98990  0.50231  Biso   1.000  H
  H273     1.0000 0.93790  0.02620  0.24011  Biso   1.000  H
  H274     1.0000 0.89531  0.04681  0.23580  Biso   1.000  H
  H275     1.0000 0.97999  0.09301  0.29000  Biso   1.000  H
  H276     1.0000 0.98740  0.05469  0.26840  Biso   1.000  H
  H277     1.0000 0.93220  0.98501  0.31500  Biso   1.000  H
  H278     1.0000 0.96039  0.98871  0.28499  Biso   1.000  H
  C208     1.0000 0.52421  0.55459  0.53801  Biso   1.000  C
  C209     1.0000 0.55629  0.54840  0.51771  Biso   1.000  C
  C210     1.0000 0.51050  0.60190  0.54199  Biso   1.000  C
  H279     1.0000 0.50100  0.53911  0.53029  Biso   1.000  H
  H280     1.0000 0.53141  0.54389  0.55870  Biso   1.000  H
  C211     1.0000 0.56229  0.57331  0.49310  Biso   1.000  C
  C212     1.0000 0.59121  0.56391  0.54460  Biso   1.000  C
  H281     1.0000 0.55960  0.51961  0.51191  Biso   1.000  H
  Cl10     1.0000 0.53419  0.57101  0.51999  Biso   1.000  Cl
  C213     1.0000 0.51809  0.62251  0.50990  Biso   1.000  C
  C214     1.0000 0.54461  0.61289  0.56441  Biso   1.000  C
  H282     1.0000 0.48311  0.60581  0.55071  Biso   1.000  H
  C215     1.0000 0.57600  0.59861  0.51750  Biso   1.000  C
  Cl11     1.0000 0.61029  0.58260  0.48902  Biso   1.000  Cl
  C216     1.0000 0.55611  0.61639  0.49660  Biso   1.000  C
  H283     1.0000 0.59010  0.56931  0.48590  Biso   1.000  H
  H284     1.0000 0.54461  0.56411  0.47600  Biso   1.000  H
  H285     1.0000 0.58941  0.59909  0.53831  Biso   1.000  H
  C217     1.0000 0.58589  0.60910  0.55040  Biso   1.000  C
  H286     1.0000 0.61851  0.55850  0.53670  Biso   1.000  H
  H287     1.0000 0.58759  0.54909  0.56441  Biso   1.000  H
  Cl12     1.0000 0.56271  0.65071  0.50580  Biso   1.000  Cl
  H288     1.0000 0.51399  0.65160  0.51249  Biso   1.000  H
  H289     1.0000 0.49769  0.61280  0.49499  Biso   1.000  H
  H290     1.0000 0.53460  0.64240  0.57920  Biso   1.000  H
  H291     1.0000 0.54300  0.59551  0.58300  Biso   1.000  H
  H292     1.0000 0.54079  0.64079  0.57149  Biso   1.000  H
  C218     1.0000 0.59040  0.63290  0.51899  Biso   1.000  C
  H293     1.0000 0.55760  0.62980  0.47591  Biso   1.000  H
  C219     1.0000 0.62021  0.61949  0.57270  Biso   1.000  C
  H294     1.0000 0.58699  0.66191  0.52270  Biso   1.000  H
  H295     1.0000 0.61710  0.62830  0.50969  Biso   1.000  H
  O15      1.0000 0.64431  0.59351  0.58021  Biso   1.000  O
  N15      1.0000 0.62950  0.65931  0.58161  Biso   1.000  N
  C220     1.0000 0.63971  0.58691  0.60211  Biso   1.000  C
  C221     1.0000 0.59921  0.68981  0.57834  Biso   1.000  C
  H296     1.0000 0.61200  0.66749  0.56699  Biso   1.000  H
  C222     1.0000 0.66020  0.66639  0.60199  Biso   1.000  C
  O16      1.0000 0.63290  0.59981  0.57660  Biso   1.000  O
  N16      1.0000 0.65761  0.60999  0.62511  Biso   1.000  N
  C223     1.0000 0.62920  0.54350  0.61010  Biso   1.000  C
  N17      1.0000 0.60381  0.68350  0.61234  Biso   1.000  N
  C224     1.0000 0.61869  0.73037  0.56795  Biso   1.000  C
  H297     1.0000 0.57051  0.69001  0.57289  Biso   1.000  H
  C225     1.0000 0.64369  0.68449  0.62420  Biso   1.000  C
  H298     1.0000 0.67329  0.64960  0.59130  Biso   1.000  H
  C226     1.0000 0.64721  0.67601  0.63590  Biso   1.000  C
  H299     1.0000 0.67780  0.64270  0.60239  Biso   1.000  H
  H300     1.0000 0.67610  0.68909  0.59400  Biso   1.000  H
  C227     1.0000 0.65859  0.60399  0.65780  Biso   1.000  C
  C228     1.0000 0.67129  0.64981  0.61430  Biso   1.000  C
  N18      1.0000 0.63180  0.63801  0.65100  Biso   1.000  N
  C229     1.0000 0.66391  0.51940  0.62250  Biso   1.000  C
  C230     1.0000 0.59300  0.54159  0.63371  Biso   1.000  C
  C231     1.0000 0.61549  0.52361  0.57960  Biso   1.000  C
  H301     1.0000 0.65029  0.53051  0.59130  Biso   1.000  H
  C232     1.0000 0.57290  0.67069  0.63250  Biso   1.000  C
  C233     1.0000 0.64560  0.73061  0.54420  Biso   1.000  C
  C234     1.0000 0.60760  0.76529  0.58312  Biso   1.000  C
  H302     1.0000 0.65620  0.70979  0.61749  Biso   1.000  H
  H303     1.0000 0.64231  0.68479  0.64720  Biso   1.000  H
  H304     1.0000 0.62600  0.69659  0.63590  Biso   1.000  H
  H305     1.0000 0.67021  0.68640  0.64790  Biso   1.000  H
  C235     1.0000 0.69760  0.61680  0.67330  Biso   1.000  C
  H306     1.0000 0.63631  0.61910  0.66740  Biso   1.000  H
  H307     1.0000 0.65399  0.57529  0.66209  Biso   1.000  H
  H308     1.0000 0.69841  0.65489  0.62271  Biso   1.000  H
  C236     1.0000 0.58840  0.63410  0.65200  Biso   1.000  C
  H309     1.0000 0.68580  0.52039  0.60691  Biso   1.000  H
  H310     1.0000 0.67380  0.53239  0.64170  Biso   1.000  H
  C237     1.0000 0.65489  0.47510  0.62991  Biso   1.000  C
  C238     1.0000 0.66029  0.50240  0.59270  Biso   1.000  C
  C239     1.0000 0.58341  0.49530  0.63781  Biso   1.000  C
  H311     1.0000 0.60050  0.55381  0.65389  Biso   1.000  H
  H312     1.0000 0.56961  0.55599  0.62520  Biso   1.000  H
  H313     1.0000 0.57281  0.56140  0.61970  Biso   1.000  H
  H314     1.0000 0.61101  0.55229  0.64100  Biso   1.000  H
  C240     1.0000 0.56181  0.51680  0.65270  Biso   1.000  C
  H315     1.0000 0.59159  0.53759  0.57140  Biso   1.000  H
  H316     1.0000 0.63700  0.52570  0.56380  Biso   1.000  H
  C241     1.0000 0.60441  0.47430  0.58610  Biso   1.000  C
  Cl13     1.0000 0.61970  0.46710  0.58380  Biso   1.000  Cl
  O17      1.0000 0.58111  0.66071  0.65911  Biso   1.000  O
  C242     1.0000 0.52899  0.67439  0.62180  Biso   1.000  C
  H317     1.0000 0.65390  0.70629  0.53479  Biso   1.000  H
  C243     1.0000 0.66101  0.76750  0.53370  Biso   1.000  C
  C244     1.0000 0.62209  0.80161  0.57319  Biso   1.000  C
  H318     1.0000 0.59001  0.76409  0.60041  Biso   1.000  H
  C245     1.0000 0.73410  0.60262  0.66398  Biso   1.000  C
  C246     1.0000 0.69581  0.64321  0.69842  Biso   1.000  C
  O18      1.0000 0.57340  0.65799  0.64541  Biso   1.000  O
  C247     1.0000 0.57200  0.59249  0.66130  Biso   1.000  C
  H319     1.0000 0.67789  0.46011  0.63900  Biso   1.000  H
  C248     1.0000 0.61609  0.47501  0.65070  Biso   1.000  C
  C249     1.0000 0.64219  0.46071  0.59449  Biso   1.000  C
  H320     1.0000 0.66209  0.47101  0.57951  Biso   1.000  H
  Cl14     1.0000 0.67439  0.49120  0.63080  Biso   1.000  Cl
  Cl15     1.0000 0.69671  0.49500  0.56681  Biso   1.000  Cl
  H321     1.0000 0.55969  0.49219  0.65179  Biso   1.000  H
  C250     1.0000 0.57451  0.47681  0.60719  Biso   1.000  C
  H322     1.0000 0.56851  0.49270  0.64000  Biso   1.000  H
  C251     1.0000 0.58159  0.55611  0.64140  Biso   1.000  C
  C252     1.0000 0.57090  0.51280  0.68861  Biso   1.000  C
  C253     1.0000 0.51429  0.53030  0.65149  Biso   1.000  C
  H323     1.0000 0.59500  0.46101  0.56651  Biso   1.000  H
  C254     1.0000 0.51859  0.71469  0.60819  Biso   1.000  C
  C255     1.0000 0.51880  0.63959  0.59850  Biso   1.000  C
  C256     1.0000 0.50309  0.67099  0.65091  Biso   1.000  C
  C257     1.0000 0.64820  0.80274  0.54782  Biso   1.000  C
  C258     1.0000 0.68909  0.76938  0.50585  Biso   1.000  C
  C259     1.0000 0.61020  0.83999  0.58881  Biso   1.000  C
  C260     1.0000 0.76881  0.61379  0.67917  Biso   1.000  C
  H324     1.0000 0.73571  0.58481  0.64681  Biso   1.000  H
  H325     1.0000 0.67060  0.65289  0.70511  Biso   1.000  H
  C261     1.0000 0.73040  0.65569  0.71399  Biso   1.000  C
  C262     1.0000 0.58431  0.58520  0.69630  Biso   1.000  C
  C263     1.0000 0.52669  0.59760  0.65710  Biso   1.000  C
  H326     1.0000 0.62260  0.48729  0.67111  Biso   1.000  H
  H327     1.0000 0.60820  0.44700  0.65470  Biso   1.000  H
  H328     1.0000 0.64270  0.43120  0.59349  Biso   1.000  H
  H329     1.0000 0.55241  0.49210  0.59759  Biso   1.000  H
  H330     1.0000 0.56450  0.44951  0.61111  Biso   1.000  H
  H331     1.0000 0.59981  0.50680  0.69101  Biso   1.000  H
  H332     1.0000 0.55611  0.48929  0.69651  Biso   1.000  H
  C264     1.0000 0.56181  0.54569  0.70781  Biso   1.000  C
  H333     1.0000 0.50249  0.49389  0.65361  Biso   1.000  H
  H334     1.0000 0.49751  0.50611  0.65361  Biso   1.000  H
  H335     1.0000 0.50871  0.54219  0.63080  Biso   1.000  H
  C265     1.0000 0.50321  0.55790  0.67479  Biso   1.000  C
  H336     1.0000 0.53619  0.71991  0.59011  Biso   1.000  H
  H337     1.0000 0.52400  0.73551  0.62399  Biso   1.000  H
  C266     1.0000 0.47549  0.71779  0.59789  Biso   1.000  C
  C267     1.0000 0.47179  0.64291  0.59090  Biso   1.000  C
  H338     1.0000 0.52499  0.61340  0.60810  Biso   1.000  H
  H339     1.0000 0.50841  0.64509  0.66130  Biso   1.000  H
  H340     1.0000 0.51020  0.69261  0.66570  Biso   1.000  H
  C268     1.0000 0.45231  0.67451  0.64149  Biso   1.000  C
  H341     1.0000 0.65731  0.82771  0.54010  Biso   1.000  H
  N19      1.0000 0.71920  0.73712  0.50520  Biso   1.000  N
  H342     1.0000 0.70310  0.79539  0.50611  Biso   1.000  H
  H343     1.0000 0.67299  0.76809  0.48651  Biso   1.000  H
  N20      1.0000 0.64139  0.86837  0.59365  Biso   1.000  N
  H344     1.0000 0.59829  0.83351  0.60931  Biso   1.000  H
  H345     1.0000 0.58909  0.85280  0.57611  Biso   1.000  H
  C269     1.0000 0.76711  0.64061  0.70383  Biso   1.000  C
  C270     1.0000 0.80881  0.59590  0.66992  Biso   1.000  C
  C271     1.0000 0.72649  0.68279  0.74169  Biso   1.000  C
  C272     1.0000 0.55381  0.60369  0.71161  Biso   1.000  C
  Cl16     1.0000 0.59790  0.58481  0.72706  Biso   1.000  Cl
  H346     1.0000 0.61361  0.58171  0.69800  Biso   1.000  H
  H347     1.0000 0.57639  0.60829  0.70930  Biso   1.000  H
  H348     1.0000 0.51779  0.62299  0.66671  Biso   1.000  H
  H349     1.0000 0.52000  0.59829  0.63471  Biso   1.000  H
  Cl17     1.0000 0.52071  0.56471  0.70040  Biso   1.000  Cl
  H350     1.0000 0.56800  0.53971  0.73020  Biso   1.000  H
  C273     1.0000 0.51970  0.55599  0.70380  Biso   1.000  C
  H351     1.0000 0.47361  0.56170  0.67570  Biso   1.000  H
  H352     1.0000 0.46970  0.74369  0.58720  Biso   1.000  H
  C274     1.0000 0.46471  0.68111  0.57729  Biso   1.000  C
  C275     1.0000 0.45411  0.71469  0.63271  Biso   1.000  C
  H353     1.0000 0.46211  0.62051  0.57750  Biso   1.000  H
  C276     1.0000 0.44971  0.64649  0.61901  Biso   1.000  C
  H354     1.0000 0.43409  0.66940  0.65951  Biso   1.000  H
  C277     1.0000 0.74680  0.73739  0.53181  Biso   1.000  C
  C278     1.0000 0.72729  0.71269  0.48059  Biso   1.000  C
  C279     1.0000 0.67810  0.85570  0.61150  Biso   1.000  C
  C280     1.0000 0.64440  0.90881  0.58300  Biso   1.000  C
  H355     1.0000 0.79100  0.64871  0.71389  Biso   1.000  H
  N21      1.0000 0.81597  0.59694  0.63681  Biso   1.000  N
  H356     1.0000 0.80991  0.56779  0.67710  Biso   1.000  H
  H357     1.0000 0.83040  0.61071  0.68059  Biso   1.000  H
  N22      1.0000 0.75922  0.71140  0.74484  Biso   1.000  N
  H358     1.0000 0.72529  0.66630  0.76080  Biso   1.000  H
  H359     1.0000 0.70110  0.69769  0.74011  Biso   1.000  H
  H360     1.0000 0.56101  0.61851  0.69220  Biso   1.000  H
  Cl18     1.0000 0.52923  0.63697  0.73556  Biso   1.000  Cl
  H361     1.0000 0.51549  0.58231  0.71380  Biso   1.000  H
  H362     1.0000 0.50390  0.53631  0.71590  Biso   1.000  H
  H363     1.0000 0.48021  0.68279  0.55770  Biso   1.000  H
  H364     1.0000 0.43609  0.68291  0.57170  Biso   1.000  H
  H365     1.0000 0.42680  0.72619  0.63180  Biso   1.000  H
  H366     1.0000 0.46979  0.73010  0.64811  Biso   1.000  H
  H367     1.0000 0.45360  0.62081  0.62979  Biso   1.000  H
  H368     1.0000 0.42140  0.64691  0.61229  Biso   1.000  H
  H369     1.0000 0.73100  0.74011  0.55120  Biso   1.000  H
  H370     1.0000 0.76060  0.71131  0.53269  Biso   1.000  H
  C281     1.0000 0.77819  0.77051  0.53099  Biso   1.000  C
  O19      1.0000 0.75845  0.69297  0.48108  Biso   1.000  O
  C282     1.0000 0.69909  0.70719  0.45381  Biso   1.000  C
  C283     1.0000 0.66851  0.85179  0.64489  Biso   1.000  C
  H371     1.0000 0.69951  0.87571  0.60871  Biso   1.000  H
  H372     1.0000 0.68780  0.82980  0.60339  Biso   1.000  H
  O20      1.0000 0.66911  0.92849  0.59011  Biso   1.000  O
  C284     1.0000 0.61050  0.92521  0.56210  Biso   1.000  C
  C285     1.0000 0.81490  0.63700  0.62238  Biso   1.000  C
  C286     1.0000 0.82870  0.56531  0.61761  Biso   1.000  C
  C287     1.0000 0.76331  0.73999  0.71888  Biso   1.000  C
  C288     1.0000 0.77989  0.71911  0.77187  Biso   1.000  C
  N23      1.0000 0.80689  0.76896  0.50550  Biso   1.000  N
  H373     1.0000 0.79309  0.76989  0.55089  Biso   1.000  H
  H374     1.0000 0.76409  0.79650  0.52999  Biso   1.000  H
  C289     1.0000 0.65599  0.69611  0.46400  Biso   1.000  C
  C290     1.0000 0.69880  0.74459  0.43091  Biso   1.000  C
  C291     1.0000 0.71561  0.67251  0.43380  Biso   1.000  C
  N24      1.0000 0.66361  0.89020  0.66107  Biso   1.000  N
  H375     1.0000 0.69010  0.83649  0.65531  Biso   1.000  H
  H376     1.0000 0.64360  0.83620  0.64711  Biso   1.000  H
  C292     1.0000 0.62499  0.96679  0.55280  Biso   1.000  C
  C293     1.0000 0.59930  0.90131  0.53351  Biso   1.000  C
  C294     1.0000 0.57230  0.93169  0.58191  Biso   1.000  C
  C295     1.0000 0.84880  0.66379  0.63341  Biso   1.000  C
  H377     1.0000 0.81651  0.63410  0.59950  Biso   1.000  H
  H378     1.0000 0.78909  0.64990  0.62739  Biso   1.000  H
  O21      1.0000 0.84190  0.57221  0.59258  Biso   1.000  O
  C296     1.0000 0.82529  0.52131  0.62961  Biso   1.000  C
  H379     1.0000 0.78939  0.75370  0.72091  Biso   1.000  H
  H380     1.0000 0.76370  0.72481  0.69910  Biso   1.000  H
  C297     1.0000 0.73091  0.77150  0.71664  Biso   1.000  C
  O22      1.0000 0.80047  0.75008  0.77350  Biso   1.000  O
  C298     1.0000 0.78061  0.68861  0.79890  Biso   1.000  C
  C299     1.0000 0.83470  0.73539  0.50618  Biso   1.000  C
  C300     1.0000 0.79970  0.79151  0.47910  Biso   1.000  C
  H381     1.0000 0.64479  0.71779  0.47691  Biso   1.000  H
  H382     1.0000 0.65659  0.67141  0.47670  Biso   1.000  H
  C301     1.0000 0.62989  0.68960  0.43559  Biso   1.000  C
  C302     1.0000 0.67191  0.73560  0.40390  Biso   1.000  C
  H383     1.0000 0.72619  0.74999  0.42340  Biso   1.000  H
  H384     1.0000 0.68909  0.76860  0.44209  Biso   1.000  H
  H385     1.0000 0.71821  0.64829  0.44689  Biso   1.000  H
  H386     1.0000 0.74250  0.67959  0.42611  Biso   1.000  H
  C303     1.0000 0.68900  0.66361  0.40679  Biso   1.000  C
  C304     1.0000 0.69709  0.91469  0.66149  Biso   1.000  C
  C305     1.0000 0.62550  0.90161  0.66719  Biso   1.000  C
  H387     1.0000 0.62821  0.98339  0.57170  Biso   1.000  H
  H388     1.0000 0.65130  0.96460  0.54250  Biso   1.000  H
  C306     1.0000 0.59521  0.98769  0.53041  Biso   1.000  C
  C307     1.0000 0.56791  0.92189  0.51340  Biso   1.000  C
  H389     1.0000 0.62361  0.89671  0.52081  Biso   1.000  H
  H390     1.0000 0.58900  0.87500  0.54020  Biso   1.000  H
  H391     1.0000 0.57920  0.94740  0.60069  Biso   1.000  H
  H392     1.0000 0.56190  0.90549  0.58881  Biso   1.000  H
  C308     1.0000 0.54100  0.95319  0.56390  Biso   1.000  C
  N25      1.0000 0.88886  0.64939  0.62443  Biso   1.000  N
  H393     1.0000 0.84761  0.66600  0.65641  Biso   1.000  H
  H394     1.0000 0.84489  0.69091  0.62469  Biso   1.000  H
  C309     1.0000 0.85949  0.51220  0.65300  Biso   1.000  C
  C310     1.0000 0.78590  0.51011  0.64310  Biso   1.000  C
  C311     1.0000 0.83049  0.49449  0.60029  Biso   1.000  C
  N26      1.0000 0.72962  0.79946  0.74323  Biso   1.000  N
  H395     1.0000 0.70471  0.75800  0.71489  Biso   1.000  H
  H396     1.0000 0.73500  0.78709  0.69730  Biso   1.000  H
  C312     1.0000 0.79220  0.64661  0.78804  Biso   1.000  C
  C313     1.0000 0.81499  0.70331  0.82099  Biso   1.000  C
  C314     1.0000 0.74109  0.69031  0.81754  Biso   1.000  C
  C315     1.0000 0.85890  0.73330  0.53649  Biso   1.000  C
  H397     1.0000 0.81959  0.71021  0.50359  Biso   1.000  H
  H398     1.0000 0.85340  0.73781  0.48830  Biso   1.000  H
  O23      1.0000 0.76791  0.81197  0.47868  Biso   1.000  O
  C316     1.0000 0.82891  0.79489  0.45251  Biso   1.000  C
  H399     1.0000 0.60211  0.68320  0.44249  Biso   1.000  H
  C317     1.0000 0.62911  0.72451  0.41581  Biso   1.000  C
  C318     1.0000 0.64709  0.65351  0.41620  Biso   1.000  C
  H400     1.0000 0.67009  0.75979  0.39020  Biso   1.000  H
  C319     1.0000 0.68849  0.70050  0.38491  Biso   1.000  C
  H401     1.0000 0.70041  0.64040  0.39509  Biso   1.000  H
  C320     1.0000 0.73339  0.89531  0.67621  Biso   1.000  C
  H402     1.0000 0.70369  0.92249  0.63979  Biso   1.000  H
  H403     1.0000 0.69061  0.93939  0.67309  Biso   1.000  H
  O24      1.0000 0.59835  0.87739  0.66053  Biso   1.000  O
  C321     1.0000 0.61749  0.94241  0.68530  Biso   1.000  C
  C322     1.0000 0.58269  0.96239  0.50401  Biso   1.000  C
  C323     1.0000 0.55450  0.99220  0.55350  Biso   1.000  C
  H404     1.0000 0.60539  0.01419  0.52321  Biso   1.000  H
  H405     1.0000 0.56170  0.90540  0.49459  Biso   1.000  H
  C324     1.0000 0.53111  0.92580  0.53409  Biso   1.000  C
  H406     1.0000 0.51650  0.95621  0.57699  Biso   1.000  H
  C325     1.0000 0.89740  0.65130  0.59130  Biso   1.000  C
  C326     1.0000 0.91111  0.63171  0.64729  Biso   1.000  C
  H407     1.0000 0.88569  0.51919  0.64359  Biso   1.000  H
  H408     1.0000 0.85600  0.52821  0.67220  Biso   1.000  H
  C327     1.0000 0.85800  0.46599  0.66090  Biso   1.000  C
  C328     1.0000 0.78401  0.46680  0.65480  Biso   1.000  C
  H409     1.0000 0.77971  0.52830  0.66060  Biso   1.000  H
  H410     1.0000 0.76499  0.51390  0.62700  Biso   1.000  H
  H411     1.0000 0.85681  0.49990  0.59051  Biso   1.000  H
  H412     1.0000 0.80940  0.50070  0.58489  Biso   1.000  H
  C329     1.0000 0.82780  0.45031  0.61001  Biso   1.000  C
  C330     1.0000 0.76251  0.82900  0.74412  Biso   1.000  C
  C331     1.0000 0.70361  0.79091  0.76651  Biso   1.000  C
  H413     1.0000 0.81821  0.64739  0.77721  Biso   1.000  H
  H414     1.0000 0.77189  0.63631  0.77329  Biso   1.000  H
  C332     1.0000 0.79480  0.61910  0.81619  Biso   1.000  C
  C333     1.0000 0.81771  0.67541  0.84909  Biso   1.000  C
  H415     1.0000 0.80949  0.73091  0.82810  Biso   1.000  H
  H416     1.0000 0.84071  0.70331  0.80960  Biso   1.000  H
  H417     1.0000 0.73610  0.71770  0.82521  Biso   1.000  H
  H418     1.0000 0.71839  0.68201  0.80431  Biso   1.000  H
  C334     1.0000 0.74629  0.66050  0.84581  Biso   1.000  C
  C335     1.0000 0.87571  0.76791  0.55015  Biso   1.000  C
  C336     1.0000 0.86639  0.69659  0.55038  Biso   1.000  C
  C337     1.0000 0.81511  0.82909  0.43161  Biso   1.000  C
  C338     1.0000 0.87141  0.80710  0.46486  Biso   1.000  C
  C339     1.0000 0.83219  0.75731  0.43240  Biso   1.000  C
  H419     1.0000 0.61149  0.71929  0.39780  Biso   1.000  H
  H420     1.0000 0.61791  0.74730  0.42760  Biso   1.000  H
  H421     1.0000 0.63051  0.64891  0.39749  Biso   1.000  H
  H422     1.0000 0.64700  0.62890  0.42900  Biso   1.000  H
  H423     1.0000 0.67141  0.69539  0.36650  Biso   1.000  H
  H424     1.0000 0.71591  0.70659  0.37750  Biso   1.000  H
  C340     1.0000 0.76971  0.90170  0.66186  Biso   1.000  C
  C341     1.0000 0.73049  0.87180  0.70224  Biso   1.000  C
  C342     1.0000 0.63959  0.94301  0.71760  Biso   1.000  C
  C343     1.0000 0.62460  0.97861  0.66400  Biso   1.000  C
  C344     1.0000 0.57179  0.94250  0.69271  Biso   1.000  C
  H425     1.0000 0.56131  0.97631  0.49250  Biso   1.000  H
  H426     1.0000 0.60560  0.95911  0.48970  Biso   1.000  H
  H427     1.0000 0.53281  0.00559  0.54180  Biso   1.000  H
  H428     1.0000 0.56119  0.00890  0.57179  Biso   1.000  H
  H429     1.0000 0.50901  0.93790  0.52209  Biso   1.000  H
  H430     1.0000 0.52251  0.89901  0.54120  Biso   1.000  H
  C345     1.0000 0.88903  0.69309  0.57627  Biso   1.000  C
  H431     1.0000 0.92580  0.64440  0.58790  Biso   1.000  H
  H432     1.0000 0.88100  0.63099  0.58039  Biso   1.000  H
  O25      1.0000 0.89794  0.62678  0.67281  Biso   1.000  O
  C346     1.0000 0.95481  0.61731  0.64079  Biso   1.000  C
  H433     1.0000 0.88061  0.45880  0.67509  Biso   1.000  H
  C347     1.0000 0.81899  0.45891  0.67680  Biso   1.000  C
  C348     1.0000 0.86099  0.44201  0.63049  Biso   1.000  C
  H434     1.0000 0.75791  0.46089  0.66510  Biso   1.000  H
  C349     1.0000 0.78960  0.44150  0.62411  Biso   1.000  C
  H435     1.0000 0.83070  0.43341  0.59090  Biso   1.000  H
  C350     1.0000 0.76439  0.85391  0.71476  Biso   1.000  C
  H436     1.0000 0.75871  0.84689  0.76229  Biso   1.000  H
  H437     1.0000 0.78820  0.81481  0.74689  Biso   1.000  H
  O26      1.0000 0.68347  0.76051  0.76520  Biso   1.000  O
  C351     1.0000 0.69739  0.81869  0.79461  Biso   1.000  C
  H438     1.0000 0.80119  0.59151  0.80890  Biso   1.000  H
  C352     1.0000 0.82789  0.63290  0.83809  Biso   1.000  C
  C353     1.0000 0.75459  0.61809  0.83390  Biso   1.000  C
  H439     1.0000 0.83960  0.68500  0.86301  Biso   1.000  H
  C354     1.0000 0.77909  0.67371  0.86799  Biso   1.000  C
  H440     1.0000 0.72060  0.65991  0.85769  Biso   1.000  H
  C355     1.0000 0.89859  0.76379  0.57666  Biso   1.000  C
  H441     1.0000 0.87120  0.79339  0.54120  Biso   1.000  H
  H442     1.0000 0.85519  0.67320  0.54141  Biso   1.000  H
  H443     1.0000 0.78811  0.82311  0.42340  Biso   1.000  H
  H444     1.0000 0.81350  0.85400  0.44391  Biso   1.000  H
  C356     1.0000 0.84459  0.83491  0.40411  Biso   1.000  C
  C357     1.0000 0.90021  0.81251  0.43671  Biso   1.000  C
  H445     1.0000 0.88181  0.78599  0.47891  Biso   1.000  H
  H446     1.0000 0.86959  0.83231  0.47679  Biso   1.000  H
  H447     1.0000 0.80579  0.75101  0.42329  Biso   1.000  H
  H448     1.0000 0.84041  0.73449  0.44559  Biso   1.000  H
  C358     1.0000 0.86221  0.76260  0.40639  Biso   1.000  C
  H449     1.0000 0.77111  0.91720  0.64340  Biso   1.000  H
  C359     1.0000 0.80441  0.88521  0.67484  Biso   1.000  C
  H450     1.0000 0.70531  0.86780  0.71180  Biso   1.000  H
  H451     1.0000 0.63051  0.92040  0.73069  Biso   1.000  H
  H452     1.0000 0.66881  0.94080  0.71459  Biso   1.000  H
  C360     1.0000 0.62860  0.98471  0.73379  Biso   1.000  C
  H453     1.0000 0.65289  0.97969  0.65750  Biso   1.000  H
  H454     1.0000 0.60769  0.97661  0.64520  Biso   1.000  H
  C361     1.0000 0.61349  0.01691  0.68290  Biso   1.000  C
  H455     1.0000 0.56501  0.91720  0.70350  Biso   1.000  H
  H456     1.0000 0.55689  0.94301  0.67281  Biso   1.000  H
  C362     1.0000 0.55799  0.97700  0.71261  Biso   1.000  C
  C363     1.0000 0.90540  0.72649  0.58997  Biso   1.000  C
  C364     1.0000 0.98211  0.65250  0.62970  Biso   1.000  C
  C365     1.0000 0.97180  0.60309  0.67190  Biso   1.000  C
  C366     1.0000 0.95690  0.58299  0.61600  Biso   1.000  C
  H457     1.0000 0.81780  0.43090  0.68421  Biso   1.000  H
  H458     1.0000 0.81681  0.47660  0.69520  Biso   1.000  H
  H459     1.0000 0.86150  0.41309  0.63541  Biso   1.000  H
  H460     1.0000 0.88629  0.44879  0.61980  Biso   1.000  H
  H461     1.0000 0.76791  0.44789  0.60931  Biso   1.000  H
  H462     1.0000 0.78811  0.41271  0.62910  Biso   1.000  H
  C367     1.0000 0.80149  0.86120  0.70150  Biso   1.000  C
  C368     1.0000 0.73261  0.82099  0.81719  Biso   1.000  C
  C369     1.0000 0.68541  0.86161  0.78289  Biso   1.000  C
  C370     1.0000 0.66200  0.80280  0.81391  Biso   1.000  C
  H463     1.0000 0.82980  0.61471  0.85620  Biso   1.000  H
  H464     1.0000 0.85391  0.63281  0.82710  Biso   1.000  H
  H465     1.0000 0.75609  0.59921  0.85149  Biso   1.000  H
  H466     1.0000 0.73291  0.60940  0.81971  Biso   1.000  H
  H467     1.0000 0.77281  0.70041  0.87680  Biso   1.000  H
  H468     1.0000 0.78171  0.65450  0.88540  Biso   1.000  H
  C371     1.0000 0.91789  0.80059  0.59195  Biso   1.000  C
  H469     1.0000 0.83509  0.85749  0.39069  Biso   1.000  H
  C372     1.0000 0.88620  0.84489  0.41690  Biso   1.000  C
  C373     1.0000 0.84549  0.79590  0.38430  Biso   1.000  C
  H470     1.0000 0.92730  0.81950  0.44480  Biso   1.000  H
  C374     1.0000 0.90289  0.77311  0.41921  Biso   1.000  C
  H471     1.0000 0.86421  0.73700  0.39451  Biso   1.000  H
  C375     1.0000 0.84429  0.89340  0.65951  Biso   1.000  C
  H472     1.0000 0.64419  0.98719  0.75360  Biso   1.000  H
  C376     1.0000 0.58589  0.98351  0.74151  Biso   1.000  C
  C377     1.0000 0.63819  0.02079  0.71280  Biso   1.000  C
  H473     1.0000 0.61919  0.04059  0.66950  Biso   1.000  H
  C378     1.0000 0.56910  0.01720  0.69059  Biso   1.000  C
  H474     1.0000 0.52899  0.97551  0.71820  Biso   1.000  H
  H475     1.0000 0.92111  0.72419  0.60831  Biso   1.000  H
  H476     1.0000 0.98169  0.67421  0.64541  Biso   1.000  H
  H477     1.0000 0.97189  0.66331  0.60980  Biso   1.000  H
  C379     1.0000 0.02500  0.63759  0.62530  Biso   1.000  C
  H478     1.0000 0.95490  0.58111  0.67989  Biso   1.000  H
  H479     1.0000 0.97019  0.62541  0.68710  Biso   1.000  H
  C380     1.0000 0.01431  0.58900  0.67011  Biso   1.000  C
  H480     1.0000 0.94740  0.59279  0.59561  Biso   1.000  H
  H481     1.0000 0.93981  0.56029  0.62250  Biso   1.000  H
  C381     1.0000 0.00090  0.56940  0.61360  Biso   1.000  C
  H482     1.0000 0.82491  0.84991  0.71049  Biso   1.000  H
  H483     1.0000 0.73930  0.79399  0.82500  Biso   1.000  H
  H484     1.0000 0.75629  0.83201  0.80650  Biso   1.000  H
  C382     1.0000 0.72039  0.84880  0.84511  Biso   1.000  C
  C383     1.0000 0.67511  0.88871  0.81200  Biso   1.000  C
  H485     1.0000 0.70770  0.87350  0.77101  Biso   1.000  H
  H486     1.0000 0.66191  0.85979  0.76900  Biso   1.000  H
  H487     1.0000 0.66851  0.77550  0.82120  Biso   1.000  H
  H488     1.0000 0.63831  0.80071  0.80009  Biso   1.000  H
  C384     1.0000 0.65101  0.82789  0.84159  Biso   1.000  C
  N27      1.0000 0.89262  0.83584  0.59086  Biso   1.000  N
  H489     1.0000 0.94340  0.80651  0.58121  Biso   1.000  H
  H490     1.0000 0.92419  0.79429  0.61400  Biso   1.000  H
  H491     1.0000 0.88500  0.87001  0.42900  Biso   1.000  H
  H492     1.0000 0.90510  0.84889  0.39940  Biso   1.000  H
  H493     1.0000 0.81839  0.78891  0.37701  Biso   1.000  H
  H494     1.0000 0.86311  0.79919  0.36589  Biso   1.000  H
  H495     1.0000 0.91221  0.75170  0.43340  Biso   1.000  H
  H496     1.0000 0.92231  0.77550  0.40190  Biso   1.000  H
  N28      1.0000 0.87034  0.85797  0.65829  Biso   1.000  N
  H497     1.0000 0.85821  0.91490  0.67111  Biso   1.000  H
  H498     1.0000 0.83960  0.90310  0.63800  Biso   1.000  H
  H499     1.0000 0.58120  0.96171  0.75661  Biso   1.000  H
  H500     1.0000 0.57839  0.00890  0.75181  Biso   1.000  H
  H501     1.0000 0.66699  0.02121  0.70769  Biso   1.000  H
  H502     1.0000 0.63141  0.04600  0.72361  Biso   1.000  H
  H503     1.0000 0.56229  0.04191  0.70210  Biso   1.000  H
  H504     1.0000 0.55330  0.01661  0.67111  Biso   1.000  H
  H505     1.0000 0.04250  0.65979  0.61791  Biso   1.000  H
  C385     1.0000 0.03940  0.62200  0.65860  Biso   1.000  C
  C386     1.0000 0.02569  0.60330  0.60230  Biso   1.000  C
  H506     1.0000 0.02369  0.57989  0.69101  Biso   1.000  H
  C387     1.0000 0.01401  0.55611  0.64869  Biso   1.000  C
  H507     1.0000 0.00320  0.54619  0.59911  Biso   1.000  H
  H508     1.0000 0.74411  0.85110  0.85909  Biso   1.000  H
  C388     1.0000 0.71131  0.89190  0.83190  Biso   1.000  C
  C389     1.0000 0.68831  0.83109  0.86319  Biso   1.000  C
  H509     1.0000 0.66770  0.91601  0.80449  Biso   1.000  H
  C390     1.0000 0.64031  0.87129  0.83001  Biso   1.000  C
  H510     1.0000 0.62801  0.81579  0.85310  Biso   1.000  H
  C391     1.0000 0.85349  0.83091  0.60549  Biso   1.000  C
  C392     1.0000 0.90469  0.87371  0.58375  Biso   1.000  C
  C393     1.0000 0.85471  0.82410  0.64049  Biso   1.000  C
  C394     1.0000 0.90800  0.85549  0.66950  Biso   1.000  C
  H511     1.0000 0.03841  0.64431  0.67370  Biso   1.000  H
  H512     1.0000 0.06739  0.61280  0.65710  Biso   1.000  H
  H513     1.0000 0.05350  0.59419  0.59929  Biso   1.000  H
  H514     1.0000 0.01541  0.61259  0.58191  Biso   1.000  H
  H515     1.0000 0.99531  0.53550  0.65641  Biso   1.000  H
  H516     1.0000 0.04101  0.54410  0.64790  Biso   1.000  H
  H517     1.0000 0.73419  0.90161  0.81950  Biso   1.000  H
  H518     1.0000 0.70650  0.91081  0.84921  Biso   1.000  H
  H519     1.0000 0.69620  0.80430  0.87069  Biso   1.000  H
  H520     1.0000 0.68210  0.84811  0.88151  Biso   1.000  H
  H521     1.0000 0.63410  0.88850  0.84809  Biso   1.000  H
  H522     1.0000 0.61639  0.87031  0.81649  Biso   1.000  H
  H523     1.0000 0.83730  0.85501  0.60130  Biso   1.000  H
  H524     1.0000 0.83990  0.80791  0.59570  Biso   1.000  H
  O27      1.0000 0.88249  0.90170  0.58999  Biso   1.000  O
  C395     1.0000 0.94471  0.88121  0.56616  Biso   1.000  C
  H525     1.0000 0.87150  0.80041  0.64489  Biso   1.000  H
  H526     1.0000 0.82729  0.81821  0.64790  Biso   1.000  H
  O28      1.0000 0.92798  0.82631  0.66363  Biso   1.000  O
  C396     1.0000 0.92769  0.88880  0.69089  Biso   1.000  C
  C397     1.0000 0.98151  0.87311  0.58699  Biso   1.000  C
  C398     1.0000 0.94770  0.85681  0.53533  Biso   1.000  C
  C399     1.0000 0.94531  0.92571  0.55760  Biso   1.000  C
  C400     1.0000 0.89940  0.90230  0.71900  Biso   1.000  C
  C401     1.0000 0.96520  0.87329  0.70469  Biso   1.000  C
  C402     1.0000 0.93820  0.92521  0.67069  Biso   1.000  C
  H527     1.0000 0.98211  0.84459  0.59300  Biso   1.000  H
  H528     1.0000 0.97960  0.88930  0.60619  Biso   1.000  H
  C403     1.0000 0.02049  0.88381  0.56951  Biso   1.000  C
  C404     1.0000 0.98751  0.86669  0.51894  Biso   1.000  C
  H529     1.0000 0.92509  0.86359  0.52151  Biso   1.000  H
  H530     1.0000 0.94650  0.82789  0.54001  Biso   1.000  H
  H531     1.0000 0.92159  0.93220  0.54481  Biso   1.000  H
  H532     1.0000 0.94420  0.94199  0.57690  Biso   1.000  H
  C405     1.0000 0.98450  0.93560  0.53889  Biso   1.000  C
  H533     1.0000 0.89310  0.87930  0.73251  Biso   1.000  H
  H534     1.0000 0.87410  0.91359  0.71091  Biso   1.000  H
  C406     1.0000 0.92150  0.93261  0.73640  Biso   1.000  C
  C407     1.0000 0.98811  0.89859  0.72531  Biso   1.000  C
  H535     1.0000 0.98300  0.86529  0.68730  Biso   1.000  H
  H536     1.0000 0.95851  0.84859  0.71641  Biso   1.000  H
  H537     1.0000 0.91341  0.93671  0.66170  Biso   1.000  H
  H538     1.0000 0.95549  0.91660  0.65319  Biso   1.000  H
  C408     1.0000 0.95971  0.95690  0.69001  Biso   1.000  C
  H539     1.0000 0.04409  0.87810  0.58300  Biso   1.000  H
  C409     1.0000 0.02261  0.85761  0.53919  Biso   1.000  C
  C410     1.0000 0.02001  0.92709  0.56049  Biso   1.000  C
  H540     1.0000 0.98961  0.85041  0.49951  Biso   1.000  H
  C411     1.0000 0.98611  0.91120  0.51000  Biso   1.000  C
  H541     1.0000 0.98450  0.96460  0.53321  Biso   1.000  H
  H542     1.0000 0.90481  0.94140  0.75439  Biso   1.000  H
  C412     1.0000 0.95971  0.91619  0.74871  Biso   1.000  C
  C413     1.0000 0.93181  0.96759  0.71799  Biso   1.000  C
  C414     1.0000 0.99731  0.93990  0.70250  Biso   1.000  C
  H543     1.0000 0.01240  0.88590  0.73449  Biso   1.000  H
  H544     1.0000 0.96529  0.98109  0.67710  Biso   1.000  H
  H545     1.0000 0.02240  0.82900  0.54490  Biso   1.000  H
  H546     1.0000 0.04761  0.86341  0.52780  Biso   1.000  H
  H547     1.0000 0.01789  0.94379  0.57951  Biso   1.000  H
  H548     1.0000 0.04519  0.93399  0.54970  Biso   1.000  H
  H549     1.0000 0.96219  0.91651  0.49699  Biso   1.000  H
  H550     1.0000 0.01010  0.91831  0.49769  Biso   1.000  H
  H551     1.0000 0.97380  0.93790  0.75989  Biso   1.000  H
  H552     1.0000 0.95319  0.89531  0.76420  Biso   1.000  H
  H553     1.0000 0.90699  0.97999  0.71000  Biso   1.000  H
  H554     1.0000 0.94531  0.98740  0.73160  Biso   1.000  H
  H555     1.0000 0.01499  0.93220  0.68500  Biso   1.000  H
  H556     1.0000 0.01129  0.96039  0.71501  Biso   1.000  H
  C415     1.0000 0.47579  0.44541  0.53801  Biso   1.000  C
  C416     1.0000 0.48950  0.39810  0.54199  Biso   1.000  C
  C417     1.0000 0.44371  0.45160  0.51771  Biso   1.000  C
  H557     1.0000 0.49900  0.46089  0.53029  Biso   1.000  H
  H558     1.0000 0.46859  0.45611  0.55870  Biso   1.000  H
  C418     1.0000 0.45539  0.38711  0.56441  Biso   1.000  C
  Cl19     1.0000 0.46581  0.42899  0.51999  Biso   1.000  Cl
  C419     1.0000 0.48191  0.37749  0.50990  Biso   1.000  C
  H559     1.0000 0.51689  0.39419  0.55071  Biso   1.000  H
  C420     1.0000 0.40879  0.43609  0.54460  Biso   1.000  C
  C421     1.0000 0.43771  0.42669  0.49310  Biso   1.000  C
  H560     1.0000 0.44040  0.48039  0.51191  Biso   1.000  H
  C422     1.0000 0.41411  0.39090  0.55040  Biso   1.000  C
  H561     1.0000 0.46540  0.35760  0.57920  Biso   1.000  H
  H562     1.0000 0.45700  0.40449  0.58300  Biso   1.000  H
  H563     1.0000 0.45921  0.35921  0.57149  Biso   1.000  H
  Cl20     1.0000 0.43729  0.34929  0.50580  Biso   1.000  Cl
  C423     1.0000 0.44389  0.38361  0.49660  Biso   1.000  C
  H564     1.0000 0.48601  0.34840  0.51249  Biso   1.000  H
  H565     1.0000 0.50231  0.38720  0.49499  Biso   1.000  H
  C424     1.0000 0.42400  0.40139  0.51750  Biso   1.000  C
  H566     1.0000 0.41059  0.40091  0.53831  Biso   1.000  H
  H567     1.0000 0.38149  0.44150  0.53670  Biso   1.000  H
  H568     1.0000 0.41241  0.45091  0.56441  Biso   1.000  H
  Cl21     1.0000 0.38971  0.41740  0.48902  Biso   1.000  Cl
  H569     1.0000 0.40990  0.43069  0.48590  Biso   1.000  H
  H570     1.0000 0.45539  0.43589  0.47600  Biso   1.000  H
  C425     1.0000 0.37979  0.38051  0.57270  Biso   1.000  C
  C426     1.0000 0.40960  0.36710  0.51899  Biso   1.000  C
  H571     1.0000 0.44240  0.37020  0.47591  Biso   1.000  H
  N29      1.0000 0.37050  0.34069  0.58161  Biso   1.000  N
  O29      1.0000 0.35569  0.40649  0.58021  Biso   1.000  O
  H572     1.0000 0.41301  0.33809  0.52270  Biso   1.000  H
  H573     1.0000 0.38290  0.37170  0.50969  Biso   1.000  H
  C427     1.0000 0.40079  0.31019  0.57834  Biso   1.000  C
  H574     1.0000 0.38800  0.33251  0.56699  Biso   1.000  H
  C428     1.0000 0.33980  0.33361  0.60199  Biso   1.000  C
  C429     1.0000 0.36029  0.41309  0.60211  Biso   1.000  C
  C430     1.0000 0.38131  0.26963  0.56795  Biso   1.000  C
  N30      1.0000 0.39619  0.31650  0.61234  Biso   1.000  N
  H575     1.0000 0.42949  0.30999  0.57289  Biso   1.000  H
  C431     1.0000 0.35631  0.31551  0.62420  Biso   1.000  C
  H576     1.0000 0.32671  0.35040  0.59130  Biso   1.000  H
  C432     1.0000 0.35279  0.32399  0.63590  Biso   1.000  C
  H577     1.0000 0.32220  0.35730  0.60239  Biso   1.000  H
  H578     1.0000 0.32390  0.31091  0.59400  Biso   1.000  H
  N31      1.0000 0.34239  0.39001  0.62511  Biso   1.000  N
  O30      1.0000 0.36710  0.40019  0.57660  Biso   1.000  O
  C433     1.0000 0.37080  0.45650  0.61010  Biso   1.000  C
  C434     1.0000 0.35440  0.26939  0.54420  Biso   1.000  C
  C435     1.0000 0.39240  0.23471  0.58312  Biso   1.000  C
  C436     1.0000 0.42710  0.32931  0.63250  Biso   1.000  C
  H579     1.0000 0.34380  0.29021  0.61749  Biso   1.000  H
  H580     1.0000 0.35769  0.31521  0.64720  Biso   1.000  H
  C437     1.0000 0.32871  0.35019  0.61430  Biso   1.000  C
  H581     1.0000 0.37400  0.30341  0.63590  Biso   1.000  H
  N32      1.0000 0.36820  0.36199  0.65100  Biso   1.000  N
  H582     1.0000 0.32979  0.31360  0.64790  Biso   1.000  H
  C438     1.0000 0.34141  0.39601  0.65780  Biso   1.000  C
  C439     1.0000 0.33609  0.48060  0.62250  Biso   1.000  C
  C440     1.0000 0.40700  0.45841  0.63371  Biso   1.000  C
  C441     1.0000 0.38451  0.47639  0.57960  Biso   1.000  C
  H583     1.0000 0.34971  0.46949  0.59130  Biso   1.000  H
  C442     1.0000 0.33899  0.23250  0.53370  Biso   1.000  C
  H584     1.0000 0.34610  0.29371  0.53479  Biso   1.000  H
  C443     1.0000 0.37791  0.19839  0.57319  Biso   1.000  C
  H585     1.0000 0.40999  0.23591  0.60041  Biso   1.000  H
  O31      1.0000 0.41889  0.33929  0.65911  Biso   1.000  O
  C444     1.0000 0.47101  0.32561  0.62180  Biso   1.000  C
  C445     1.0000 0.41160  0.36590  0.65200  Biso   1.000  C
  H586     1.0000 0.30159  0.34511  0.62271  Biso   1.000  H
  H587     1.0000 0.36369  0.38090  0.66740  Biso   1.000  H
  C446     1.0000 0.30240  0.38320  0.67330  Biso   1.000  C
  H588     1.0000 0.34601  0.42471  0.66209  Biso   1.000  H
  H589     1.0000 0.31420  0.47961  0.60691  Biso   1.000  H
  H590     1.0000 0.32620  0.46761  0.64170  Biso   1.000  H
  C447     1.0000 0.34511  0.52490  0.62991  Biso   1.000  C
  C448     1.0000 0.33971  0.49760  0.59270  Biso   1.000  C
  H591     1.0000 0.39950  0.44619  0.65389  Biso   1.000  H
  H592     1.0000 0.43039  0.44401  0.62520  Biso   1.000  H
  H593     1.0000 0.42719  0.43860  0.61970  Biso   1.000  H
  H594     1.0000 0.38899  0.44771  0.64100  Biso   1.000  H
  C449     1.0000 0.43819  0.48320  0.65270  Biso   1.000  C
  C450     1.0000 0.41659  0.50470  0.63781  Biso   1.000  C
  H595     1.0000 0.40841  0.46241  0.57140  Biso   1.000  H
  H596     1.0000 0.36300  0.47430  0.56380  Biso   1.000  H
  C451     1.0000 0.39559  0.52570  0.58610  Biso   1.000  C
  Cl22     1.0000 0.38030  0.53290  0.58380  Biso   1.000  Cl
  C452     1.0000 0.31091  0.23062  0.50585  Biso   1.000  C
  C453     1.0000 0.35180  0.19726  0.54782  Biso   1.000  C
  C454     1.0000 0.38980  0.16001  0.58881  Biso   1.000  C
  C455     1.0000 0.48141  0.28531  0.60819  Biso   1.000  C
  C456     1.0000 0.48120  0.36041  0.59850  Biso   1.000  C
  C457     1.0000 0.49691  0.32901  0.65091  Biso   1.000  C
  O32      1.0000 0.42660  0.34201  0.64541  Biso   1.000  O
  C458     1.0000 0.42800  0.40751  0.66130  Biso   1.000  C
  C459     1.0000 0.26590  0.39738  0.66398  Biso   1.000  C
  C460     1.0000 0.30419  0.35679  0.69842  Biso   1.000  C
  C461     1.0000 0.38391  0.52499  0.65070  Biso   1.000  C
  H597     1.0000 0.32211  0.53989  0.63900  Biso   1.000  H
  C462     1.0000 0.35781  0.53929  0.59449  Biso   1.000  C
  H598     1.0000 0.33791  0.52899  0.57951  Biso   1.000  H
  Cl23     1.0000 0.32561  0.50880  0.63080  Biso   1.000  Cl
  Cl24     1.0000 0.30329  0.50500  0.56681  Biso   1.000  Cl
  C463     1.0000 0.41841  0.44389  0.64140  Biso   1.000  C
  H599     1.0000 0.44031  0.50781  0.65179  Biso   1.000  H
  H600     1.0000 0.43149  0.50730  0.64000  Biso   1.000  H
  C464     1.0000 0.42910  0.48720  0.68861  Biso   1.000  C
  C465     1.0000 0.48571  0.46970  0.65149  Biso   1.000  C
  C466     1.0000 0.42549  0.52319  0.60719  Biso   1.000  C
  H601     1.0000 0.40500  0.53899  0.56651  Biso   1.000  H
  N33      1.0000 0.28080  0.26288  0.50520  Biso   1.000  N
  H602     1.0000 0.29690  0.20461  0.50611  Biso   1.000  H
  H603     1.0000 0.32701  0.23191  0.48651  Biso   1.000  H
  H604     1.0000 0.34269  0.17229  0.54010  Biso   1.000  H
  N34      1.0000 0.35861  0.13163  0.59365  Biso   1.000  N
  H605     1.0000 0.40171  0.16649  0.60931  Biso   1.000  H
  H606     1.0000 0.41091  0.14720  0.57611  Biso   1.000  H
  H607     1.0000 0.46381  0.28009  0.59011  Biso   1.000  H
  H608     1.0000 0.47600  0.26449  0.62399  Biso   1.000  H
  C467     1.0000 0.52451  0.28221  0.59789  Biso   1.000  C
  C468     1.0000 0.52821  0.35709  0.59090  Biso   1.000  C
  H609     1.0000 0.47501  0.38660  0.60810  Biso   1.000  H
  H610     1.0000 0.49159  0.35491  0.66130  Biso   1.000  H
  H611     1.0000 0.48980  0.30739  0.66570  Biso   1.000  H
  C469     1.0000 0.54769  0.32549  0.64149  Biso   1.000  C
  C470     1.0000 0.41569  0.41480  0.69630  Biso   1.000  C
  C471     1.0000 0.47331  0.40240  0.65710  Biso   1.000  C
  C472     1.0000 0.23119  0.38621  0.67917  Biso   1.000  C
  H612     1.0000 0.26429  0.41519  0.64681  Biso   1.000  H
  H613     1.0000 0.32940  0.34711  0.70511  Biso   1.000  H
  C473     1.0000 0.26960  0.34431  0.71399  Biso   1.000  C
  H614     1.0000 0.37740  0.51271  0.67111  Biso   1.000  H
  H615     1.0000 0.39180  0.55300  0.65470  Biso   1.000  H
  H616     1.0000 0.35730  0.56880  0.59349  Biso   1.000  H
  C474     1.0000 0.43819  0.45431  0.70781  Biso   1.000  C
  H617     1.0000 0.40019  0.49320  0.69101  Biso   1.000  H
  H618     1.0000 0.44389  0.51071  0.69651  Biso   1.000  H
  C475     1.0000 0.49679  0.44210  0.67479  Biso   1.000  C
  H619     1.0000 0.49129  0.45781  0.63080  Biso   1.000  H
  H620     1.0000 0.50249  0.49389  0.65361  Biso   1.000  H
  H621     1.0000 0.49751  0.50611  0.65361  Biso   1.000  H
  H622     1.0000 0.44759  0.50790  0.59759  Biso   1.000  H
  H623     1.0000 0.43550  0.55049  0.61111  Biso   1.000  H
  C476     1.0000 0.27271  0.28731  0.48059  Biso   1.000  C
  C477     1.0000 0.25320  0.26261  0.53181  Biso   1.000  C
  C478     1.0000 0.32190  0.14430  0.61150  Biso   1.000  C
  C479     1.0000 0.35560  0.09119  0.58300  Biso   1.000  C
  H624     1.0000 0.53030  0.25631  0.58720  Biso   1.000  H
  C480     1.0000 0.53529  0.31889  0.57729  Biso   1.000  C
  C481     1.0000 0.54589  0.28531  0.63271  Biso   1.000  C
  H625     1.0000 0.53789  0.37949  0.57750  Biso   1.000  H
  C482     1.0000 0.55029  0.35351  0.61901  Biso   1.000  C
  H626     1.0000 0.56591  0.33060  0.65951  Biso   1.000  H
  C483     1.0000 0.44619  0.39631  0.71161  Biso   1.000  C
  Cl25     1.0000 0.40210  0.41519  0.72706  Biso   1.000  Cl
  H627     1.0000 0.38639  0.41829  0.69800  Biso   1.000  H
  H628     1.0000 0.42361  0.39171  0.70930  Biso   1.000  H
  H629     1.0000 0.48221  0.37701  0.66671  Biso   1.000  H
  H630     1.0000 0.48000  0.40171  0.63471  Biso   1.000  H
  C484     1.0000 0.19119  0.40410  0.66992  Biso   1.000  C
  C485     1.0000 0.23289  0.35939  0.70383  Biso   1.000  C
  C486     1.0000 0.27351  0.31721  0.74169  Biso   1.000  C
  Cl26     1.0000 0.47929  0.43529  0.70040  Biso   1.000  Cl
  H631     1.0000 0.43200  0.46029  0.73020  Biso   1.000  H
  C487     1.0000 0.48030  0.44401  0.70380  Biso   1.000  C
  H632     1.0000 0.52639  0.43830  0.67570  Biso   1.000  H
  C488     1.0000 0.30091  0.29281  0.45381  Biso   1.000  C
  O33      1.0000 0.24155  0.30703  0.48108  Biso   1.000  O
  H633     1.0000 0.26900  0.25989  0.55120  Biso   1.000  H
  H634     1.0000 0.23940  0.28869  0.53269  Biso   1.000  H
  C489     1.0000 0.22181  0.22949  0.53099  Biso   1.000  C
  C490     1.0000 0.33149  0.14821  0.64489  Biso   1.000  C
  H635     1.0000 0.30049  0.12429  0.60871  Biso   1.000  H
  H636     1.0000 0.31220  0.17020  0.60339  Biso   1.000  H
  O34      1.0000 0.33089  0.07151  0.59011  Biso   1.000  O
  C491     1.0000 0.38950  0.07479  0.56210  Biso   1.000  C
  H637     1.0000 0.51979  0.31721  0.55770  Biso   1.000  H
  H638     1.0000 0.56391  0.31709  0.57170  Biso   1.000  H
  H639     1.0000 0.57320  0.27381  0.63180  Biso   1.000  H
  H640     1.0000 0.53021  0.26990  0.64811  Biso   1.000  H
  H641     1.0000 0.54640  0.37919  0.62979  Biso   1.000  H
  H642     1.0000 0.57860  0.35309  0.61229  Biso   1.000  H
  H643     1.0000 0.43899  0.38149  0.69220  Biso   1.000  H
  Cl27     1.0000 0.47077  0.36303  0.73556  Biso   1.000  Cl
  N35      1.0000 0.18403  0.40306  0.63681  Biso   1.000  N
  H644     1.0000 0.19009  0.43221  0.67710  Biso   1.000  H
  H645     1.0000 0.16960  0.38929  0.68059  Biso   1.000  H
  H646     1.0000 0.20900  0.35129  0.71389  Biso   1.000  H
  N36      1.0000 0.24078  0.28860  0.74484  Biso   1.000  N
  H647     1.0000 0.27471  0.33370  0.76080  Biso   1.000  H
  H648     1.0000 0.29890  0.30231  0.74011  Biso   1.000  H
  H649     1.0000 0.48451  0.41769  0.71380  Biso   1.000  H
  H650     1.0000 0.49610  0.46369  0.71590  Biso   1.000  H
  C492     1.0000 0.30120  0.25541  0.43091  Biso   1.000  C
  C493     1.0000 0.28439  0.32749  0.43380  Biso   1.000  C
  C494     1.0000 0.34401  0.30389  0.46400  Biso   1.000  C
  N37      1.0000 0.19311  0.23104  0.50550  Biso   1.000  N
  H651     1.0000 0.20691  0.23011  0.55089  Biso   1.000  H
  H652     1.0000 0.23591  0.20350  0.52999  Biso   1.000  H
  N38      1.0000 0.33639  0.10980  0.66107  Biso   1.000  N
  H653     1.0000 0.30990  0.16351  0.65531  Biso   1.000  H
  H654     1.0000 0.35640  0.16380  0.64711  Biso   1.000  H
  C495     1.0000 0.37501  0.03321  0.55280  Biso   1.000  C
  C496     1.0000 0.40070  0.09869  0.53351  Biso   1.000  C
  C497     1.0000 0.42770  0.06831  0.58191  Biso   1.000  C
  C498     1.0000 0.18510  0.36300  0.62238  Biso   1.000  C
  C499     1.0000 0.17130  0.43469  0.61761  Biso   1.000  C
  C500     1.0000 0.23669  0.26001  0.71888  Biso   1.000  C
  C501     1.0000 0.22011  0.28089  0.77187  Biso   1.000  C
  C502     1.0000 0.32809  0.26440  0.40390  Biso   1.000  C
  H655     1.0000 0.27381  0.25001  0.42340  Biso   1.000  H
  H656     1.0000 0.31091  0.23140  0.44209  Biso   1.000  H
  C503     1.0000 0.31100  0.33639  0.40679  Biso   1.000  C
  H657     1.0000 0.28179  0.35171  0.44689  Biso   1.000  H
  H658     1.0000 0.25750  0.32041  0.42611  Biso   1.000  H
  C504     1.0000 0.37011  0.31040  0.43559  Biso   1.000  C
  H659     1.0000 0.35521  0.28221  0.47691  Biso   1.000  H
  H660     1.0000 0.34341  0.32859  0.47670  Biso   1.000  H
  C505     1.0000 0.16530  0.26461  0.50618  Biso   1.000  C
  C506     1.0000 0.20030  0.20849  0.47910  Biso   1.000  C
  C507     1.0000 0.30291  0.08531  0.66149  Biso   1.000  C
  C508     1.0000 0.37450  0.09839  0.66719  Biso   1.000  C
  H661     1.0000 0.37179  0.01661  0.57170  Biso   1.000  H
  H662     1.0000 0.34870  0.03540  0.54250  Biso   1.000  H
  C509     1.0000 0.40479  0.01231  0.53041  Biso   1.000  C
  C510     1.0000 0.43209  0.07811  0.51340  Biso   1.000  C
  H663     1.0000 0.37639  0.10329  0.52081  Biso   1.000  H
  H664     1.0000 0.41100  0.12500  0.54020  Biso   1.000  H
  H665     1.0000 0.42080  0.05260  0.60069  Biso   1.000  H
  H666     1.0000 0.43810  0.09451  0.58881  Biso   1.000  H
  C511     1.0000 0.45900  0.04681  0.56390  Biso   1.000  C
  C512     1.0000 0.15120  0.33621  0.63341  Biso   1.000  C
  H667     1.0000 0.18349  0.36590  0.59950  Biso   1.000  H
  H668     1.0000 0.21091  0.35010  0.62739  Biso   1.000  H
  O35      1.0000 0.15810  0.42779  0.59258  Biso   1.000  O
  C513     1.0000 0.17471  0.47869  0.62961  Biso   1.000  C
  C514     1.0000 0.26909  0.22850  0.71664  Biso   1.000  C
  H669     1.0000 0.21061  0.24630  0.72091  Biso   1.000  H
  H670     1.0000 0.23630  0.27519  0.69910  Biso   1.000  H
  O36      1.0000 0.19953  0.24992  0.77350  Biso   1.000  O
  C515     1.0000 0.21939  0.31139  0.79890  Biso   1.000  C
  C516     1.0000 0.31151  0.29950  0.38491  Biso   1.000  C
  C517     1.0000 0.37089  0.27549  0.41581  Biso   1.000  C
  H671     1.0000 0.32991  0.24021  0.39020  Biso   1.000  H
  C518     1.0000 0.35291  0.34649  0.41620  Biso   1.000  C
  H672     1.0000 0.29959  0.35960  0.39509  Biso   1.000  H
  H673     1.0000 0.39789  0.31680  0.44249  Biso   1.000  H
  C519     1.0000 0.14110  0.26670  0.53649  Biso   1.000  C
  H674     1.0000 0.18041  0.28979  0.50359  Biso   1.000  H
  H675     1.0000 0.14660  0.26219  0.48830  Biso   1.000  H
  O37      1.0000 0.23209  0.18803  0.47868  Biso   1.000  O
  C520     1.0000 0.17109  0.20511  0.45251  Biso   1.000  C
  C521     1.0000 0.26661  0.10469  0.67621  Biso   1.000  C
  H676     1.0000 0.29631  0.07751  0.63979  Biso   1.000  H
  H677     1.0000 0.30939  0.06061  0.67309  Biso   1.000  H
  O38      1.0000 0.40165  0.12261  0.66053  Biso   1.000  O
  C522     1.0000 0.38251  0.05759  0.68530  Biso   1.000  C
  C523     1.0000 0.41731  0.03761  0.50401  Biso   1.000  C
  C524     1.0000 0.44550  0.00780  0.55350  Biso   1.000  C
  H678     1.0000 0.39461  0.98581  0.52321  Biso   1.000  H
  H679     1.0000 0.43830  0.09460  0.49459  Biso   1.000  H
  C525     1.0000 0.46889  0.07420  0.53409  Biso   1.000  C
  H680     1.0000 0.48350  0.04379  0.57699  Biso   1.000  H
  N39      1.0000 0.11114  0.35061  0.62443  Biso   1.000  N
  H681     1.0000 0.15239  0.33400  0.65641  Biso   1.000  H
  H682     1.0000 0.15511  0.30909  0.62469  Biso   1.000  H
  C526     1.0000 0.14051  0.48780  0.65300  Biso   1.000  C
  C527     1.0000 0.21410  0.48989  0.64310  Biso   1.000  C
  C528     1.0000 0.16951  0.50551  0.60029  Biso   1.000  C
  N40      1.0000 0.27038  0.20054  0.74323  Biso   1.000  N
  H683     1.0000 0.29529  0.24200  0.71489  Biso   1.000  H
  H684     1.0000 0.26500  0.21291  0.69730  Biso   1.000  H
  C529     1.0000 0.20780  0.35339  0.78804  Biso   1.000  C
  C530     1.0000 0.18501  0.29669  0.82099  Biso   1.000  C
  C531     1.0000 0.25891  0.30969  0.81754  Biso   1.000  C
  H685     1.0000 0.32859  0.30461  0.36650  Biso   1.000  H
  H686     1.0000 0.28409  0.29341  0.37750  Biso   1.000  H
  H687     1.0000 0.38851  0.28071  0.39780  Biso   1.000  H
  H688     1.0000 0.38209  0.25270  0.42760  Biso   1.000  H
  H689     1.0000 0.36949  0.35109  0.39749  Biso   1.000  H
  H690     1.0000 0.35300  0.37110  0.42900  Biso   1.000  H
  C532     1.0000 0.12429  0.23209  0.55015  Biso   1.000  C
  C533     1.0000 0.13361  0.30341  0.55038  Biso   1.000  C
  C534     1.0000 0.18489  0.17091  0.43161  Biso   1.000  C
  C535     1.0000 0.12859  0.19290  0.46486  Biso   1.000  C
  C536     1.0000 0.16781  0.24269  0.43240  Biso   1.000  C
  C537     1.0000 0.23029  0.09830  0.66186  Biso   1.000  C
  C538     1.0000 0.26951  0.12820  0.70224  Biso   1.000  C
  C539     1.0000 0.36041  0.05699  0.71760  Biso   1.000  C
  C540     1.0000 0.37540  0.02139  0.66400  Biso   1.000  C
  C541     1.0000 0.42821  0.05750  0.69271  Biso   1.000  C
  H691     1.0000 0.43869  0.02369  0.49250  Biso   1.000  H
  H692     1.0000 0.39440  0.04089  0.48970  Biso   1.000  H
  H693     1.0000 0.46719  0.99441  0.54180  Biso   1.000  H
  H694     1.0000 0.43881  0.99110  0.57179  Biso   1.000  H
  H695     1.0000 0.49099  0.06210  0.52209  Biso   1.000  H
  H696     1.0000 0.47749  0.10099  0.54120  Biso   1.000  H
  C542     1.0000 0.10260  0.34870  0.59130  Biso   1.000  C
  C543     1.0000 0.08889  0.36829  0.64729  Biso   1.000  C
  H697     1.0000 0.11431  0.48081  0.64359  Biso   1.000  H
  H698     1.0000 0.14400  0.47179  0.67220  Biso   1.000  H
  C544     1.0000 0.14200  0.53401  0.66090  Biso   1.000  C
  C545     1.0000 0.21599  0.53320  0.65480  Biso   1.000  C
  H699     1.0000 0.22029  0.47170  0.66060  Biso   1.000  H
  H700     1.0000 0.23501  0.48610  0.62700  Biso   1.000  H
  H701     1.0000 0.14319  0.50010  0.59051  Biso   1.000  H
  H702     1.0000 0.19060  0.49930  0.58489  Biso   1.000  H
  C546     1.0000 0.17220  0.54969  0.61001  Biso   1.000  C
  C547     1.0000 0.23749  0.17100  0.74412  Biso   1.000  C
  C548     1.0000 0.29639  0.20909  0.76651  Biso   1.000  C
  H703     1.0000 0.18179  0.35261  0.77721  Biso   1.000  H
  H704     1.0000 0.22811  0.36369  0.77329  Biso   1.000  H
  C549     1.0000 0.20520  0.38090  0.81619  Biso   1.000  C
  C550     1.0000 0.18229  0.32459  0.84909  Biso   1.000  C
  H705     1.0000 0.19051  0.26909  0.82810  Biso   1.000  H
  H706     1.0000 0.15929  0.29669  0.80960  Biso   1.000  H
  H707     1.0000 0.26390  0.28230  0.82521  Biso   1.000  H
  H708     1.0000 0.28161  0.31799  0.80431  Biso   1.000  H
  C551     1.0000 0.25371  0.33950  0.84581  Biso   1.000  C
  C552     1.0000 0.10141  0.23621  0.57666  Biso   1.000  C
  H709     1.0000 0.12880  0.20661  0.54120  Biso   1.000  H
  H710     1.0000 0.14481  0.32680  0.54141  Biso   1.000  H
  C553     1.0000 0.11097  0.30691  0.57627  Biso   1.000  C
  H711     1.0000 0.21189  0.17689  0.42340  Biso   1.000  H
  H712     1.0000 0.18650  0.14600  0.44391  Biso   1.000  H
  C554     1.0000 0.15541  0.16509  0.40411  Biso   1.000  C
  C555     1.0000 0.09979  0.18749  0.43671  Biso   1.000  C
  H713     1.0000 0.11819  0.21401  0.47891  Biso   1.000  H
  H714     1.0000 0.13041  0.16769  0.47679  Biso   1.000  H
  H715     1.0000 0.19421  0.24899  0.42329  Biso   1.000  H
  H716     1.0000 0.15959  0.26551  0.44559  Biso   1.000  H
  C556     1.0000 0.13779  0.23740  0.40639  Biso   1.000  C
  H717     1.0000 0.22889  0.08280  0.64340  Biso   1.000  H
  C557     1.0000 0.19559  0.11479  0.67484  Biso   1.000  C
  C558     1.0000 0.23561  0.14609  0.71476  Biso   1.000  C
  H718     1.0000 0.29469  0.13220  0.71180  Biso   1.000  H
  H719     1.0000 0.36949  0.07960  0.73069  Biso   1.000  H
  H720     1.0000 0.33119  0.05920  0.71459  Biso   1.000  H
  C559     1.0000 0.37140  0.01529  0.73379  Biso   1.000  C
  H721     1.0000 0.34711  0.02031  0.65750  Biso   1.000  H
  H722     1.0000 0.39231  0.02339  0.64520  Biso   1.000  H
  C560     1.0000 0.38651  0.98309  0.68290  Biso   1.000  C
  H723     1.0000 0.43499  0.08280  0.70350  Biso   1.000  H
  H724     1.0000 0.44311  0.05699  0.67281  Biso   1.000  H
  C561     1.0000 0.44201  0.02300  0.71261  Biso   1.000  C
  H725     1.0000 0.07420  0.35560  0.58790  Biso   1.000  H
  H726     1.0000 0.11900  0.36901  0.58039  Biso   1.000  H
  O39      1.0000 0.10206  0.37322  0.67281  Biso   1.000  O
  C562     1.0000 0.04519  0.38269  0.64079  Biso   1.000  C
  H727     1.0000 0.11939  0.54120  0.67509  Biso   1.000  H
  C563     1.0000 0.18101  0.54109  0.67680  Biso   1.000  C
  C564     1.0000 0.13901  0.55799  0.63049  Biso   1.000  C
  H728     1.0000 0.24209  0.53911  0.66510  Biso   1.000  H
  C565     1.0000 0.21040  0.55850  0.62411  Biso   1.000  C
  H729     1.0000 0.16930  0.56659  0.59090  Biso   1.000  H
  H730     1.0000 0.24129  0.15311  0.76229  Biso   1.000  H
  H731     1.0000 0.21180  0.18519  0.74689  Biso   1.000  H
  O40      1.0000 0.31653  0.23949  0.76520  Biso   1.000  O
  C566     1.0000 0.30261  0.18131  0.79461  Biso   1.000  C
  H732     1.0000 0.19881  0.40849  0.80890  Biso   1.000  H
  C567     1.0000 0.17211  0.36710  0.83809  Biso   1.000  C
  C568     1.0000 0.24541  0.38191  0.83390  Biso   1.000  C
  H733     1.0000 0.16040  0.31500  0.86301  Biso   1.000  H
  C569     1.0000 0.22091  0.32629  0.86799  Biso   1.000  C
  H734     1.0000 0.27940  0.34009  0.85769  Biso   1.000  H
  C570     1.0000 0.09460  0.27351  0.58997  Biso   1.000  C
  C571     1.0000 0.08211  0.19941  0.59195  Biso   1.000  C
  H735     1.0000 0.16491  0.14251  0.39069  Biso   1.000  H
  C572     1.0000 0.11380  0.15511  0.41690  Biso   1.000  C
  C573     1.0000 0.15451  0.20410  0.38430  Biso   1.000  C
  H736     1.0000 0.07270  0.18050  0.44480  Biso   1.000  H
  C574     1.0000 0.09711  0.22689  0.41921  Biso   1.000  C
  H737     1.0000 0.13579  0.26300  0.39451  Biso   1.000  H
  C575     1.0000 0.15571  0.10660  0.65951  Biso   1.000  C
  C576     1.0000 0.19851  0.13880  0.70150  Biso   1.000  C
  H738     1.0000 0.35581  0.01281  0.75360  Biso   1.000  H
  C577     1.0000 0.41411  0.01649  0.74151  Biso   1.000  C
  C578     1.0000 0.36181  0.97921  0.71280  Biso   1.000  C
  H739     1.0000 0.38081  0.95941  0.66950  Biso   1.000  H
  C579     1.0000 0.43090  0.98280  0.69059  Biso   1.000  C
  H740     1.0000 0.47101  0.02449  0.71820  Biso   1.000  H
  C580     1.0000 0.01789  0.34750  0.62970  Biso   1.000  C
  C581     1.0000 0.02820  0.39691  0.67190  Biso   1.000  C
  C582     1.0000 0.04310  0.41701  0.61600  Biso   1.000  C
  H741     1.0000 0.18220  0.56910  0.68421  Biso   1.000  H
  H742     1.0000 0.18319  0.52340  0.69520  Biso   1.000  H
  H743     1.0000 0.13850  0.58691  0.63541  Biso   1.000  H
  H744     1.0000 0.11371  0.55121  0.61980  Biso   1.000  H
  H745     1.0000 0.23209  0.55211  0.60931  Biso   1.000  H
  H746     1.0000 0.21189  0.58729  0.62910  Biso   1.000  H
  C583     1.0000 0.26739  0.17901  0.81719  Biso   1.000  C
  C584     1.0000 0.31459  0.13839  0.78289  Biso   1.000  C
  C585     1.0000 0.33800  0.19720  0.81391  Biso   1.000  C
  H747     1.0000 0.17020  0.38529  0.85620  Biso   1.000  H
  H748     1.0000 0.14609  0.36719  0.82710  Biso   1.000  H
  H749     1.0000 0.24391  0.40079  0.85149  Biso   1.000  H
  H750     1.0000 0.26709  0.39060  0.81971  Biso   1.000  H
  H751     1.0000 0.22719  0.29959  0.87680  Biso   1.000  H
  H752     1.0000 0.21829  0.34550  0.88540  Biso   1.000  H
  H753     1.0000 0.07889  0.27581  0.60831  Biso   1.000  H
  N41      1.0000 0.10738  0.16416  0.59086  Biso   1.000  N
  H754     1.0000 0.05660  0.19349  0.58121  Biso   1.000  H
  H755     1.0000 0.07581  0.20571  0.61400  Biso   1.000  H
  H756     1.0000 0.11500  0.12999  0.42900  Biso   1.000  H
  H757     1.0000 0.09490  0.15111  0.39940  Biso   1.000  H
  H758     1.0000 0.18161  0.21109  0.37701  Biso   1.000  H
  H759     1.0000 0.13689  0.20081  0.36589  Biso   1.000  H
  H760     1.0000 0.08779  0.24830  0.43340  Biso   1.000  H
  H761     1.0000 0.07769  0.22450  0.40190  Biso   1.000  H
  N42      1.0000 0.12966  0.14203  0.65829  Biso   1.000  N
  H762     1.0000 0.14179  0.08510  0.67111  Biso   1.000  H
  H763     1.0000 0.16040  0.09690  0.63800  Biso   1.000  H
  H764     1.0000 0.17509  0.15009  0.71049  Biso   1.000  H
  H765     1.0000 0.41880  0.03829  0.75661  Biso   1.000  H
  H766     1.0000 0.42161  0.99110  0.75181  Biso   1.000  H
  H767     1.0000 0.33301  0.97879  0.70769  Biso   1.000  H
  H768     1.0000 0.36859  0.95400  0.72361  Biso   1.000  H
  H769     1.0000 0.43771  0.95809  0.70210  Biso   1.000  H
  H770     1.0000 0.44670  0.98339  0.67111  Biso   1.000  H
  H771     1.0000 0.01831  0.32579  0.64541  Biso   1.000  H
  H772     1.0000 0.02811  0.33669  0.60980  Biso   1.000  H
  C586     1.0000 0.97500  0.36241  0.62530  Biso   1.000  C
  H773     1.0000 0.04510  0.41889  0.67989  Biso   1.000  H
  H774     1.0000 0.02981  0.37459  0.68710  Biso   1.000  H
  C587     1.0000 0.98569  0.41100  0.67011  Biso   1.000  C
  H775     1.0000 0.05260  0.40721  0.59561  Biso   1.000  H
  H776     1.0000 0.06019  0.43971  0.62250  Biso   1.000  H
  C588     1.0000 0.99910  0.43060  0.61360  Biso   1.000  C
  H777     1.0000 0.26070  0.20601  0.82500  Biso   1.000  H
  H778     1.0000 0.24371  0.16799  0.80650  Biso   1.000  H
  C589     1.0000 0.27961  0.15120  0.84511  Biso   1.000  C
  C590     1.0000 0.32489  0.11129  0.81200  Biso   1.000  C
  H779     1.0000 0.29230  0.12650  0.77101  Biso   1.000  H
  H780     1.0000 0.33809  0.14021  0.76900  Biso   1.000  H
  H781     1.0000 0.33149  0.22450  0.82120  Biso   1.000  H
  H782     1.0000 0.36169  0.19929  0.80009  Biso   1.000  H
  C591     1.0000 0.34899  0.17211  0.84159  Biso   1.000  C
  C592     1.0000 0.14651  0.16909  0.60549  Biso   1.000  C
  C593     1.0000 0.09531  0.12629  0.58375  Biso   1.000  C
  C594     1.0000 0.14529  0.17590  0.64049  Biso   1.000  C
  C595     1.0000 0.09200  0.14451  0.66950  Biso   1.000  C
  H783     1.0000 0.95750  0.34021  0.61791  Biso   1.000  H
  C596     1.0000 0.96060  0.37800  0.65860  Biso   1.000  C
  C597     1.0000 0.97431  0.39670  0.60230  Biso   1.000  C
  H784     1.0000 0.97631  0.42011  0.69101  Biso   1.000  H
  C598     1.0000 0.98599  0.44389  0.64869  Biso   1.000  C
  H785     1.0000 0.99680  0.45381  0.59911  Biso   1.000  H
  H786     1.0000 0.25589  0.14890  0.85909  Biso   1.000  H
  C599     1.0000 0.28869  0.10810  0.83190  Biso   1.000  C
  C600     1.0000 0.31169  0.16891  0.86319  Biso   1.000  C
  H787     1.0000 0.33230  0.08399  0.80449  Biso   1.000  H
  C601     1.0000 0.35969  0.12871  0.83001  Biso   1.000  C
  H788     1.0000 0.37199  0.18421  0.85310  Biso   1.000  H
  H789     1.0000 0.16270  0.14499  0.60130  Biso   1.000  H
  H790     1.0000 0.16010  0.19209  0.59570  Biso   1.000  H
  O41      1.0000 0.11751  0.09830  0.58999  Biso   1.000  O
  C602     1.0000 0.05529  0.11879  0.56616  Biso   1.000  C
  H791     1.0000 0.12850  0.19959  0.64489  Biso   1.000  H
  H792     1.0000 0.17271  0.18179  0.64790  Biso   1.000  H
  O42      1.0000 0.07202  0.17369  0.66363  Biso   1.000  O
  C603     1.0000 0.07231  0.11120  0.69089  Biso   1.000  C
  H793     1.0000 0.96159  0.35569  0.67370  Biso   1.000  H
  H794     1.0000 0.93261  0.38720  0.65710  Biso   1.000  H
  H795     1.0000 0.94650  0.40581  0.59929  Biso   1.000  H
  H796     1.0000 0.98459  0.38741  0.58191  Biso   1.000  H
  H797     1.0000 0.00469  0.46450  0.65641  Biso   1.000  H
  H798     1.0000 0.95899  0.45590  0.64790  Biso   1.000  H
  H799     1.0000 0.26581  0.09839  0.81950  Biso   1.000  H
  H800     1.0000 0.29350  0.08919  0.84921  Biso   1.000  H
  H801     1.0000 0.30380  0.19570  0.87069  Biso   1.000  H
  H802     1.0000 0.31790  0.15189  0.88151  Biso   1.000  H
  H803     1.0000 0.36590  0.11150  0.84809  Biso   1.000  H
  H804     1.0000 0.38361  0.12969  0.81649  Biso   1.000  H
  C604     1.0000 0.01849  0.12689  0.58699  Biso   1.000  C
  C605     1.0000 0.05230  0.14319  0.53533  Biso   1.000  C
  C606     1.0000 0.05469  0.07429  0.55760  Biso   1.000  C
  C607     1.0000 0.10060  0.09770  0.71900  Biso   1.000  C
  C608     1.0000 0.03480  0.12671  0.70469  Biso   1.000  C
  C609     1.0000 0.06180  0.07479  0.67069  Biso   1.000  C
  H805     1.0000 0.01789  0.15541  0.59300  Biso   1.000  H
  H806     1.0000 0.02040  0.11070  0.60619  Biso   1.000  H
  C610     1.0000 0.97951  0.11619  0.56951  Biso   1.000  C
  C611     1.0000 0.01249  0.13331  0.51894  Biso   1.000  C
  H807     1.0000 0.07491  0.13641  0.52151  Biso   1.000  H
  H808     1.0000 0.05350  0.17211  0.54001  Biso   1.000  H
  H809     1.0000 0.07841  0.06780  0.54481  Biso   1.000  H
  H810     1.0000 0.05580  0.05801  0.57690  Biso   1.000  H
  C612     1.0000 0.01550  0.06440  0.53889  Biso   1.000  C
  H811     1.0000 0.10690  0.12070  0.73251  Biso   1.000  H
  H812     1.0000 0.12590  0.08641  0.71091  Biso   1.000  H
  C613     1.0000 0.07850  0.06739  0.73640  Biso   1.000  C
  C614     1.0000 0.01189  0.10141  0.72531  Biso   1.000  C
  H813     1.0000 0.01700  0.13471  0.68730  Biso   1.000  H
  H814     1.0000 0.04149  0.15141  0.71641  Biso   1.000  H
  H815     1.0000 0.08659  0.06329  0.66170  Biso   1.000  H
  H816     1.0000 0.04451  0.08340  0.65319  Biso   1.000  H
  C615     1.0000 0.04029  0.04310  0.69001  Biso   1.000  C
  H817     1.0000 0.95591  0.12190  0.58300  Biso   1.000  H
  C616     1.0000 0.97739  0.14239  0.53919  Biso   1.000  C
  C617     1.0000 0.97999  0.07291  0.56049  Biso   1.000  C
  H818     1.0000 0.01039  0.14959  0.49951  Biso   1.000  H
  C618     1.0000 0.01389  0.08880  0.51000  Biso   1.000  C
  H819     1.0000 0.01550  0.03540  0.53321  Biso   1.000  H
  H820     1.0000 0.09519  0.05860  0.75439  Biso   1.000  H
  C619     1.0000 0.04029  0.08381  0.74871  Biso   1.000  C
  C620     1.0000 0.06819  0.03241  0.71799  Biso   1.000  C
  C621     1.0000 0.00269  0.06010  0.70250  Biso   1.000  C
  H821     1.0000 0.98760  0.11410  0.73449  Biso   1.000  H
  H822     1.0000 0.03471  0.01891  0.67710  Biso   1.000  H
  H823     1.0000 0.97760  0.17100  0.54490  Biso   1.000  H
  H824     1.0000 0.95239  0.13659  0.52780  Biso   1.000  H
  H825     1.0000 0.98211  0.05621  0.57951  Biso   1.000  H
  H826     1.0000 0.95481  0.06601  0.54970  Biso   1.000  H
  H827     1.0000 0.03781  0.08349  0.49699  Biso   1.000  H
  H828     1.0000 0.98990  0.08169  0.49769  Biso   1.000  H
  H829     1.0000 0.02620  0.06210  0.75989  Biso   1.000  H
  H830     1.0000 0.04681  0.10469  0.76420  Biso   1.000  H
  H831     1.0000 0.09301  0.02001  0.71000  Biso   1.000  H
  H832     1.0000 0.05469  0.01260  0.73160  Biso   1.000  H
  H833     1.0000 0.98501  0.06780  0.68500  Biso   1.000  H
  H834     1.0000 0.98871  0.03961  0.71501  Biso   1.000  H
  C622     1.0000 0.44541  0.52421  0.46199  Biso   1.000  C
  C623     1.0000 0.39810  0.51050  0.45801  Biso   1.000  C
  C624     1.0000 0.45160  0.55629  0.48229  Biso   1.000  C
  H835     1.0000 0.46089  0.50100  0.46971  Biso   1.000  H
  H836     1.0000 0.45611  0.53141  0.44130  Biso   1.000  H
  C625     1.0000 0.38711  0.54461  0.43559  Biso   1.000  C
  Cl28     1.0000 0.42899  0.53419  0.48001  Biso   1.000  Cl
  C626     1.0000 0.37749  0.51809  0.49010  Biso   1.000  C
  H837     1.0000 0.39419  0.48311  0.44929  Biso   1.000  H
  C627     1.0000 0.43609  0.59121  0.45540  Biso   1.000  C
  C628     1.0000 0.42669  0.56229  0.50690  Biso   1.000  C
  H838     1.0000 0.48039  0.55960  0.48809  Biso   1.000  H
  H839     1.0000 0.35760  0.53460  0.42080  Biso   1.000  H
  C629     1.0000 0.39090  0.58589  0.44960  Biso   1.000  C
  H840     1.0000 0.40449  0.54300  0.41700  Biso   1.000  H
  H841     1.0000 0.35921  0.54079  0.42851  Biso   1.000  H
  Cl29     1.0000 0.34929  0.56271  0.49420  Biso   1.000  Cl
  C630     1.0000 0.38361  0.55611  0.50340  Biso   1.000  C
  H842     1.0000 0.34840  0.51399  0.48751  Biso   1.000  H
  H843     1.0000 0.38720  0.49769  0.50501  Biso   1.000  H
  C631     1.0000 0.40139  0.57600  0.48250  Biso   1.000  C
  H844     1.0000 0.40091  0.58941  0.46169  Biso   1.000  H
  H845     1.0000 0.44150  0.61851  0.46330  Biso   1.000  H
  H846     1.0000 0.45091  0.58759  0.43559  Biso   1.000  H
  Cl30     1.0000 0.41740  0.61029  0.51098  Biso   1.000  Cl
  H847     1.0000 0.43069  0.59010  0.51410  Biso   1.000  H
  H848     1.0000 0.43589  0.54461  0.52400  Biso   1.000  H
  C632     1.0000 0.38051  0.62021  0.42730  Biso   1.000  C
  C633     1.0000 0.36710  0.59040  0.48101  Biso   1.000  C
  H849     1.0000 0.37020  0.55760  0.52409  Biso   1.000  H
  N43      1.0000 0.34069  0.62950  0.41839  Biso   1.000  N
  O43      1.0000 0.40649  0.64431  0.41979  Biso   1.000  O
  H850     1.0000 0.33809  0.58699  0.47730  Biso   1.000  H
  H851     1.0000 0.37170  0.61710  0.49031  Biso   1.000  H
  C634     1.0000 0.31019  0.59921  0.42166  Biso   1.000  C
  H852     1.0000 0.33251  0.61200  0.43301  Biso   1.000  H
  C635     1.0000 0.33361  0.66020  0.39801  Biso   1.000  C
  C636     1.0000 0.41309  0.63971  0.39789  Biso   1.000  C
  N44      1.0000 0.31650  0.60381  0.38766  Biso   1.000  N
  C637     1.0000 0.26963  0.61869  0.43205  Biso   1.000  C
  H853     1.0000 0.30999  0.57051  0.42711  Biso   1.000  H
  C638     1.0000 0.31551  0.64369  0.37580  Biso   1.000  C
  C639     1.0000 0.32399  0.64721  0.36410  Biso   1.000  C
  H854     1.0000 0.35040  0.67329  0.40870  Biso   1.000  H
  H855     1.0000 0.35730  0.67780  0.39761  Biso   1.000  H
  H856     1.0000 0.31091  0.67610  0.40600  Biso   1.000  H
  N45      1.0000 0.39001  0.65761  0.37489  Biso   1.000  N
  O44      1.0000 0.40019  0.63290  0.42340  Biso   1.000  O
  C640     1.0000 0.45650  0.62920  0.38990  Biso   1.000  C
  C641     1.0000 0.32931  0.57290  0.36750  Biso   1.000  C
  C642     1.0000 0.26939  0.64560  0.45580  Biso   1.000  C
  C643     1.0000 0.23471  0.60760  0.41688  Biso   1.000  C
  H857     1.0000 0.29021  0.65620  0.38251  Biso   1.000  H
  H858     1.0000 0.31521  0.64231  0.35280  Biso   1.000  H
  C644     1.0000 0.35019  0.67129  0.38570  Biso   1.000  C
  H859     1.0000 0.30341  0.62600  0.36410  Biso   1.000  H
  N46      1.0000 0.36199  0.63180  0.34900  Biso   1.000  N
  H860     1.0000 0.31360  0.67021  0.35210  Biso   1.000  H
  C645     1.0000 0.39601  0.65859  0.34220  Biso   1.000  C
  C646     1.0000 0.45841  0.59300  0.36629  Biso   1.000  C
  C647     1.0000 0.48060  0.66391  0.37750  Biso   1.000  C
  C648     1.0000 0.47639  0.61549  0.42040  Biso   1.000  C
  H861     1.0000 0.46949  0.65029  0.40870  Biso   1.000  H
  C649     1.0000 0.32561  0.52899  0.37820  Biso   1.000  C
  O45      1.0000 0.33929  0.58111  0.34089  Biso   1.000  O
  C650     1.0000 0.36590  0.58840  0.34800  Biso   1.000  C
  H862     1.0000 0.29371  0.65390  0.46521  Biso   1.000  H
  C651     1.0000 0.23250  0.66101  0.46630  Biso   1.000  C
  C652     1.0000 0.19839  0.62209  0.42681  Biso   1.000  C
  H863     1.0000 0.23591  0.59001  0.39959  Biso   1.000  H
  H864     1.0000 0.34511  0.69841  0.37729  Biso   1.000  H
  H865     1.0000 0.38090  0.63631  0.33260  Biso   1.000  H
  C653     1.0000 0.38320  0.69760  0.32670  Biso   1.000  C
  H866     1.0000 0.42471  0.65399  0.33791  Biso   1.000  H
  H867     1.0000 0.44619  0.60050  0.34611  Biso   1.000  H
  H868     1.0000 0.44401  0.56961  0.37480  Biso   1.000  H
  H869     1.0000 0.43860  0.57281  0.38030  Biso   1.000  H
  H870     1.0000 0.44771  0.61101  0.35900  Biso   1.000  H
  C654     1.0000 0.48320  0.56181  0.34730  Biso   1.000  C
  C655     1.0000 0.50470  0.58341  0.36219  Biso   1.000  C
  H871     1.0000 0.47961  0.68580  0.39309  Biso   1.000  H
  H872     1.0000 0.46761  0.67380  0.35830  Biso   1.000  H
  C656     1.0000 0.52490  0.65489  0.37009  Biso   1.000  C
  C657     1.0000 0.49760  0.66029  0.40730  Biso   1.000  C
  H873     1.0000 0.46241  0.59159  0.42860  Biso   1.000  H
  H874     1.0000 0.47430  0.63700  0.43620  Biso   1.000  H
  C658     1.0000 0.52570  0.60441  0.41390  Biso   1.000  C
  Cl31     1.0000 0.53290  0.61970  0.41620  Biso   1.000  Cl
  C659     1.0000 0.32901  0.50309  0.34909  Biso   1.000  C
  C660     1.0000 0.28531  0.51859  0.39181  Biso   1.000  C
  C661     1.0000 0.36041  0.51880  0.40150  Biso   1.000  C
  O46      1.0000 0.34201  0.57340  0.35459  Biso   1.000  O
  C662     1.0000 0.40751  0.57200  0.33870  Biso   1.000  C
  C663     1.0000 0.19726  0.64820  0.45218  Biso   1.000  C
  C664     1.0000 0.23062  0.68909  0.49415  Biso   1.000  C
  C665     1.0000 0.16001  0.61020  0.41119  Biso   1.000  C
  C666     1.0000 0.39738  0.73410  0.33602  Biso   1.000  C
  C667     1.0000 0.35679  0.69581  0.30158  Biso   1.000  C
  C668     1.0000 0.44389  0.58159  0.35860  Biso   1.000  C
  H875     1.0000 0.50781  0.55969  0.34821  Biso   1.000  H
  H876     1.0000 0.50730  0.56851  0.36000  Biso   1.000  H
  C669     1.0000 0.48720  0.57090  0.31139  Biso   1.000  C
  C670     1.0000 0.46970  0.51429  0.34851  Biso   1.000  C
  C671     1.0000 0.52499  0.61609  0.34930  Biso   1.000  C
  C672     1.0000 0.52319  0.57451  0.39281  Biso   1.000  C
  H877     1.0000 0.53989  0.67789  0.36100  Biso   1.000  H
  C673     1.0000 0.53929  0.64219  0.40551  Biso   1.000  C
  H878     1.0000 0.52899  0.66209  0.42049  Biso   1.000  H
  Cl32     1.0000 0.50880  0.67439  0.36920  Biso   1.000  Cl
  Cl33     1.0000 0.50500  0.69671  0.43319  Biso   1.000  Cl
  H879     1.0000 0.53899  0.59500  0.43349  Biso   1.000  H
  C674     1.0000 0.32549  0.45231  0.35851  Biso   1.000  C
  H880     1.0000 0.35491  0.50841  0.33870  Biso   1.000  H
  H881     1.0000 0.30739  0.51020  0.33430  Biso   1.000  H
  C675     1.0000 0.28221  0.47549  0.40211  Biso   1.000  C
  H882     1.0000 0.28009  0.53619  0.40989  Biso   1.000  H
  H883     1.0000 0.26449  0.52400  0.37601  Biso   1.000  H
  C676     1.0000 0.35709  0.47179  0.40910  Biso   1.000  C
  H884     1.0000 0.38660  0.52499  0.39190  Biso   1.000  H
  C677     1.0000 0.41480  0.58431  0.30370  Biso   1.000  C
  C678     1.0000 0.40240  0.52669  0.34290  Biso   1.000  C
  H885     1.0000 0.17229  0.65731  0.45990  Biso   1.000  H
  N47      1.0000 0.26288  0.71920  0.49480  Biso   1.000  N
  H886     1.0000 0.20461  0.70310  0.49389  Biso   1.000  H
  H887     1.0000 0.23191  0.67299  0.51349  Biso   1.000  H
  N48      1.0000 0.13163  0.64139  0.40635  Biso   1.000  N
  H888     1.0000 0.16649  0.59829  0.39069  Biso   1.000  H
  H889     1.0000 0.14720  0.58909  0.42389  Biso   1.000  H
  C679     1.0000 0.38621  0.76881  0.32083  Biso   1.000  C
  H890     1.0000 0.41519  0.73571  0.35319  Biso   1.000  H
  H891     1.0000 0.34711  0.67060  0.29489  Biso   1.000  H
  C680     1.0000 0.34431  0.73040  0.28601  Biso   1.000  C
  C681     1.0000 0.45431  0.56181  0.29219  Biso   1.000  C
  H892     1.0000 0.49320  0.59981  0.30899  Biso   1.000  H
  H893     1.0000 0.51071  0.55611  0.30349  Biso   1.000  H
  C682     1.0000 0.44210  0.50321  0.32521  Biso   1.000  C
  H894     1.0000 0.45781  0.50871  0.36920  Biso   1.000  H
  H895     1.0000 0.50611  0.50249  0.34639  Biso   1.000  H
  H896     1.0000 0.49389  0.49751  0.34639  Biso   1.000  H
  H897     1.0000 0.51271  0.62260  0.32889  Biso   1.000  H
  H898     1.0000 0.55300  0.60820  0.34530  Biso   1.000  H
  H899     1.0000 0.50790  0.55241  0.40241  Biso   1.000  H
  H900     1.0000 0.55049  0.56450  0.38889  Biso   1.000  H
  H901     1.0000 0.56880  0.64270  0.40651  Biso   1.000  H
  C683     1.0000 0.28531  0.45411  0.36729  Biso   1.000  C
  C684     1.0000 0.35351  0.44971  0.38099  Biso   1.000  C
  H902     1.0000 0.33060  0.43409  0.34049  Biso   1.000  H
  H903     1.0000 0.25631  0.46970  0.41280  Biso   1.000  H
  C685     1.0000 0.31889  0.46471  0.42271  Biso   1.000  C
  H904     1.0000 0.37949  0.46211  0.42250  Biso   1.000  H
  C686     1.0000 0.39631  0.55381  0.28839  Biso   1.000  C
  Cl34     1.0000 0.41519  0.59790  0.27294  Biso   1.000  Cl
  H905     1.0000 0.41829  0.61361  0.30200  Biso   1.000  H
  H906     1.0000 0.39171  0.57639  0.29070  Biso   1.000  H
  H907     1.0000 0.37701  0.51779  0.33329  Biso   1.000  H
  H908     1.0000 0.40171  0.52000  0.36529  Biso   1.000  H
  C687     1.0000 0.26261  0.74680  0.46819  Biso   1.000  C
  C688     1.0000 0.28731  0.72729  0.51941  Biso   1.000  C
  C689     1.0000 0.14430  0.67810  0.38850  Biso   1.000  C
  C690     1.0000 0.09119  0.64440  0.41700  Biso   1.000  C
  C691     1.0000 0.35939  0.76711  0.29617  Biso   1.000  C
  C692     1.0000 0.40410  0.80881  0.33008  Biso   1.000  C
  C693     1.0000 0.31721  0.72649  0.25831  Biso   1.000  C
  Cl35     1.0000 0.43529  0.52071  0.29960  Biso   1.000  Cl
  H909     1.0000 0.46029  0.56800  0.26980  Biso   1.000  H
  C694     1.0000 0.44401  0.51970  0.29620  Biso   1.000  C
  H910     1.0000 0.43830  0.47361  0.32430  Biso   1.000  H
  H911     1.0000 0.27381  0.42680  0.36820  Biso   1.000  H
  H912     1.0000 0.26990  0.46979  0.35189  Biso   1.000  H
  H913     1.0000 0.37919  0.45360  0.37021  Biso   1.000  H
  H914     1.0000 0.35309  0.42140  0.38771  Biso   1.000  H
  H915     1.0000 0.31721  0.48021  0.44230  Biso   1.000  H
  H916     1.0000 0.31709  0.43609  0.42830  Biso   1.000  H
  H917     1.0000 0.38149  0.56101  0.30780  Biso   1.000  H
  Cl36     1.0000 0.36303  0.52923  0.26444  Biso   1.000  Cl
  H918     1.0000 0.25989  0.73100  0.44880  Biso   1.000  H
  H919     1.0000 0.28869  0.76060  0.46731  Biso   1.000  H
  C695     1.0000 0.22949  0.77819  0.46901  Biso   1.000  C
  O47      1.0000 0.30703  0.75845  0.51892  Biso   1.000  O
  C696     1.0000 0.29281  0.69909  0.54619  Biso   1.000  C
  C697     1.0000 0.14821  0.66851  0.35511  Biso   1.000  C
  H920     1.0000 0.12429  0.69951  0.39129  Biso   1.000  H
  H921     1.0000 0.17020  0.68780  0.39661  Biso   1.000  H
  O48      1.0000 0.07151  0.66911  0.40989  Biso   1.000  O
  C698     1.0000 0.07479  0.61050  0.43790  Biso   1.000  C
  H922     1.0000 0.35129  0.79100  0.28611  Biso   1.000  H
  N49      1.0000 0.40306  0.81597  0.36319  Biso   1.000  N
  H923     1.0000 0.43221  0.80991  0.32290  Biso   1.000  H
  H924     1.0000 0.38929  0.83040  0.31941  Biso   1.000  H
  N50      1.0000 0.28860  0.75922  0.25516  Biso   1.000  N
  H925     1.0000 0.33370  0.72529  0.23920  Biso   1.000  H
  H926     1.0000 0.30231  0.70110  0.25989  Biso   1.000  H
  H927     1.0000 0.41769  0.51549  0.28620  Biso   1.000  H
  H928     1.0000 0.46369  0.50390  0.28410  Biso   1.000  H
  N51      1.0000 0.23104  0.80689  0.49450  Biso   1.000  N
  H929     1.0000 0.23011  0.79309  0.44911  Biso   1.000  H
  H930     1.0000 0.20350  0.76409  0.47001  Biso   1.000  H
  C699     1.0000 0.30389  0.65599  0.53600  Biso   1.000  C
  C700     1.0000 0.25541  0.69880  0.56909  Biso   1.000  C
  C701     1.0000 0.32749  0.71561  0.56620  Biso   1.000  C
  N52      1.0000 0.10980  0.66361  0.33893  Biso   1.000  N
  H931     1.0000 0.16351  0.69010  0.34469  Biso   1.000  H
  H932     1.0000 0.16380  0.64360  0.35289  Biso   1.000  H
  C702     1.0000 0.03321  0.62499  0.44720  Biso   1.000  C
  C703     1.0000 0.09869  0.59930  0.46649  Biso   1.000  C
  C704     1.0000 0.06831  0.57230  0.41809  Biso   1.000  C
  C705     1.0000 0.36300  0.81490  0.37762  Biso   1.000  C
  C706     1.0000 0.43469  0.82870  0.38239  Biso   1.000  C
  C707     1.0000 0.26001  0.76331  0.28112  Biso   1.000  C
  C708     1.0000 0.28089  0.77989  0.22813  Biso   1.000  C
  C709     1.0000 0.26461  0.83470  0.49382  Biso   1.000  C
  C710     1.0000 0.20849  0.79970  0.52090  Biso   1.000  C
  H933     1.0000 0.28221  0.64479  0.52309  Biso   1.000  H
  H934     1.0000 0.32859  0.65659  0.52330  Biso   1.000  H
  C711     1.0000 0.31040  0.62989  0.56441  Biso   1.000  C
  C712     1.0000 0.26440  0.67191  0.59610  Biso   1.000  C
  H935     1.0000 0.25001  0.72619  0.57660  Biso   1.000  H
  H936     1.0000 0.23140  0.68909  0.55791  Biso   1.000  H
  H937     1.0000 0.35171  0.71821  0.55311  Biso   1.000  H
  H938     1.0000 0.32041  0.74250  0.57389  Biso   1.000  H
  C713     1.0000 0.33639  0.68900  0.59321  Biso   1.000  C
  C714     1.0000 0.08531  0.69709  0.33851  Biso   1.000  C
  C715     1.0000 0.09839  0.62550  0.33281  Biso   1.000  C
  H939     1.0000 0.01661  0.62821  0.42830  Biso   1.000  H
  H940     1.0000 0.03540  0.65130  0.45750  Biso   1.000  H
  C716     1.0000 0.01231  0.59521  0.46959  Biso   1.000  C
  C717     1.0000 0.07811  0.56791  0.48660  Biso   1.000  C
  H941     1.0000 0.10329  0.62361  0.47919  Biso   1.000  H
  H942     1.0000 0.12500  0.58900  0.45980  Biso   1.000  H
  H943     1.0000 0.05260  0.57920  0.39931  Biso   1.000  H
  H944     1.0000 0.09451  0.56190  0.41119  Biso   1.000  H
  C718     1.0000 0.04681  0.54100  0.43610  Biso   1.000  C
  C719     1.0000 0.33621  0.84880  0.36659  Biso   1.000  C
  H945     1.0000 0.36590  0.81651  0.40050  Biso   1.000  H
  H946     1.0000 0.35010  0.78909  0.37261  Biso   1.000  H
  O49      1.0000 0.42779  0.84190  0.40742  Biso   1.000  O
  C720     1.0000 0.47869  0.82529  0.37039  Biso   1.000  C
  H947     1.0000 0.24630  0.78939  0.27909  Biso   1.000  H
  H948     1.0000 0.27519  0.76370  0.30090  Biso   1.000  H
  C721     1.0000 0.22850  0.73091  0.28336  Biso   1.000  C
  O50      1.0000 0.24992  0.80047  0.22650  Biso   1.000  O
  C722     1.0000 0.31139  0.78061  0.20110  Biso   1.000  C
  C723     1.0000 0.26670  0.85890  0.46351  Biso   1.000  C
  H949     1.0000 0.28979  0.81959  0.49641  Biso   1.000  H
  H950     1.0000 0.26219  0.85340  0.51170  Biso   1.000  H
  O51      1.0000 0.18803  0.76791  0.52132  Biso   1.000  O
  C724     1.0000 0.20511  0.82891  0.54749  Biso   1.000  C
  H951     1.0000 0.31680  0.60211  0.55751  Biso   1.000  H
  C725     1.0000 0.27549  0.62911  0.58419  Biso   1.000  C
  C726     1.0000 0.34649  0.64709  0.58380  Biso   1.000  C
  H952     1.0000 0.24021  0.67009  0.60980  Biso   1.000  H
  C727     1.0000 0.29950  0.68849  0.61509  Biso   1.000  C
  H953     1.0000 0.35960  0.70041  0.60491  Biso   1.000  H
  C728     1.0000 0.10469  0.73339  0.32379  Biso   1.000  C
  H954     1.0000 0.07751  0.70369  0.36021  Biso   1.000  H
  H955     1.0000 0.06061  0.69061  0.32691  Biso   1.000  H
  O52      1.0000 0.12261  0.59835  0.33947  Biso   1.000  O
  C729     1.0000 0.05759  0.61749  0.31470  Biso   1.000  C
  C730     1.0000 0.03761  0.58269  0.49599  Biso   1.000  C
  C731     1.0000 0.00780  0.55450  0.44650  Biso   1.000  C
  H956     1.0000 0.98581  0.60539  0.47679  Biso   1.000  H
  H957     1.0000 0.09460  0.56170  0.50541  Biso   1.000  H
  C732     1.0000 0.07420  0.53111  0.46591  Biso   1.000  C
  H958     1.0000 0.04379  0.51650  0.42301  Biso   1.000  H
  N53      1.0000 0.35061  0.88886  0.37557  Biso   1.000  N
  H959     1.0000 0.33400  0.84761  0.34359  Biso   1.000  H
  H960     1.0000 0.30909  0.84489  0.37531  Biso   1.000  H
  C733     1.0000 0.48780  0.85949  0.34700  Biso   1.000  C
  C734     1.0000 0.48989  0.78590  0.35690  Biso   1.000  C
  C735     1.0000 0.50551  0.83049  0.39971  Biso   1.000  C
  N54      1.0000 0.20054  0.72962  0.25677  Biso   1.000  N
  H961     1.0000 0.24200  0.70471  0.28511  Biso   1.000  H
  H962     1.0000 0.21291  0.73500  0.30270  Biso   1.000  H
  C736     1.0000 0.35339  0.79220  0.21196  Biso   1.000  C
  C737     1.0000 0.29669  0.81499  0.17901  Biso   1.000  C
  C738     1.0000 0.30969  0.74109  0.18246  Biso   1.000  C
  C739     1.0000 0.23209  0.87571  0.44985  Biso   1.000  C
  C740     1.0000 0.30341  0.86639  0.44962  Biso   1.000  C
  C741     1.0000 0.17091  0.81511  0.56839  Biso   1.000  C
  C742     1.0000 0.19290  0.87141  0.53514  Biso   1.000  C
  C743     1.0000 0.24269  0.83219  0.56760  Biso   1.000  C
  H963     1.0000 0.28071  0.61149  0.60220  Biso   1.000  H
  H964     1.0000 0.25270  0.61791  0.57240  Biso   1.000  H
  H965     1.0000 0.35109  0.63051  0.60251  Biso   1.000  H
  H966     1.0000 0.37110  0.64700  0.57100  Biso   1.000  H
  H967     1.0000 0.30461  0.67141  0.63350  Biso   1.000  H
  H968     1.0000 0.29341  0.71591  0.62250  Biso   1.000  H
  C744     1.0000 0.09830  0.76971  0.33814  Biso   1.000  C
  C745     1.0000 0.12820  0.73049  0.29776  Biso   1.000  C
  C746     1.0000 0.05699  0.63959  0.28240  Biso   1.000  C
  C747     1.0000 0.02139  0.62460  0.33600  Biso   1.000  C
  C748     1.0000 0.05750  0.57179  0.30729  Biso   1.000  C
  H969     1.0000 0.02369  0.56131  0.50750  Biso   1.000  H
  H970     1.0000 0.04089  0.60560  0.51030  Biso   1.000  H
  H971     1.0000 0.99441  0.53281  0.45820  Biso   1.000  H
  H972     1.0000 0.99110  0.56119  0.42821  Biso   1.000  H
  H973     1.0000 0.06210  0.50901  0.47791  Biso   1.000  H
  H974     1.0000 0.10099  0.52251  0.45880  Biso   1.000  H
  C749     1.0000 0.34870  0.89740  0.40870  Biso   1.000  C
  C750     1.0000 0.36829  0.91111  0.35271  Biso   1.000  C
  H975     1.0000 0.48081  0.88569  0.35641  Biso   1.000  H
  H976     1.0000 0.47179  0.85600  0.32780  Biso   1.000  H
  C751     1.0000 0.53401  0.85800  0.33910  Biso   1.000  C
  C752     1.0000 0.53320  0.78401  0.34520  Biso   1.000  C
  H977     1.0000 0.47170  0.77971  0.33940  Biso   1.000  H
  H978     1.0000 0.48610  0.76499  0.37300  Biso   1.000  H
  H979     1.0000 0.50010  0.85681  0.40949  Biso   1.000  H
  H980     1.0000 0.49930  0.80940  0.41511  Biso   1.000  H
  C753     1.0000 0.54969  0.82780  0.38999  Biso   1.000  C
  C754     1.0000 0.17100  0.76251  0.25588  Biso   1.000  C
  C755     1.0000 0.20909  0.70361  0.23349  Biso   1.000  C
  H981     1.0000 0.35261  0.81821  0.22279  Biso   1.000  H
  H982     1.0000 0.36369  0.77189  0.22671  Biso   1.000  H
  C756     1.0000 0.38090  0.79480  0.18381  Biso   1.000  C
  C757     1.0000 0.32459  0.81771  0.15091  Biso   1.000  C
  H983     1.0000 0.26909  0.80949  0.17190  Biso   1.000  H
  H984     1.0000 0.29669  0.84071  0.19040  Biso   1.000  H
  H985     1.0000 0.28230  0.73610  0.17479  Biso   1.000  H
  H986     1.0000 0.31799  0.71839  0.19569  Biso   1.000  H
  C758     1.0000 0.33950  0.74629  0.15419  Biso   1.000  C
  C759     1.0000 0.23621  0.89859  0.42334  Biso   1.000  C
  H987     1.0000 0.20661  0.87120  0.45880  Biso   1.000  H
  C760     1.0000 0.30691  0.88903  0.42373  Biso   1.000  C
  H988     1.0000 0.32680  0.85519  0.45859  Biso   1.000  H
  H989     1.0000 0.17689  0.78811  0.57660  Biso   1.000  H
  H990     1.0000 0.14600  0.81350  0.55609  Biso   1.000  H
  C761     1.0000 0.16509  0.84459  0.59589  Biso   1.000  C
  C762     1.0000 0.18749  0.90021  0.56329  Biso   1.000  C
  H991     1.0000 0.21401  0.88181  0.52109  Biso   1.000  H
  H992     1.0000 0.16769  0.86959  0.52321  Biso   1.000  H
  H993     1.0000 0.24899  0.80579  0.57671  Biso   1.000  H
  H994     1.0000 0.26551  0.84041  0.55441  Biso   1.000  H
  C763     1.0000 0.23740  0.86221  0.59361  Biso   1.000  C
  H995     1.0000 0.08280  0.77111  0.35660  Biso   1.000  H
  C764     1.0000 0.11479  0.80441  0.32516  Biso   1.000  C
  C765     1.0000 0.14609  0.76439  0.28524  Biso   1.000  C
  H996     1.0000 0.13220  0.70531  0.28820  Biso   1.000  H
  H997     1.0000 0.07960  0.63051  0.26931  Biso   1.000  H
  H998     1.0000 0.05920  0.66881  0.28541  Biso   1.000  H
  C766     1.0000 0.01529  0.62860  0.26621  Biso   1.000  C
  H999     1.0000 0.02031  0.65289  0.34250  Biso   1.000  H
  H1000    1.0000 0.02339  0.60769  0.35480  Biso   1.000  H
  C767     1.0000 0.98309  0.61349  0.31710  Biso   1.000  C
  H1001    1.0000 0.08280  0.56501  0.29650  Biso   1.000  H
  H1002    1.0000 0.05699  0.55689  0.32719  Biso   1.000  H
  C768     1.0000 0.02300  0.55799  0.28739  Biso   1.000  C
  H1003    1.0000 0.35560  0.92580  0.41210  Biso   1.000  H
  H1004    1.0000 0.36901  0.88100  0.41961  Biso   1.000  H
  O53      1.0000 0.37322  0.89794  0.32719  Biso   1.000  O
  C769     1.0000 0.38269  0.95481  0.35921  Biso   1.000  C
  H1005    1.0000 0.54120  0.88061  0.32491  Biso   1.000  H
  C770     1.0000 0.54109  0.81899  0.32320  Biso   1.000  C
  C771     1.0000 0.55799  0.86099  0.36951  Biso   1.000  C
  H1006    1.0000 0.53911  0.75791  0.33490  Biso   1.000  H
  C772     1.0000 0.55850  0.78960  0.37589  Biso   1.000  C
  H1007    1.0000 0.56659  0.83070  0.40910  Biso   1.000  H
  H1008    1.0000 0.15311  0.75871  0.23771  Biso   1.000  H
  H1009    1.0000 0.18519  0.78820  0.25311  Biso   1.000  H
  O54      1.0000 0.23949  0.68347  0.23480  Biso   1.000  O
  C773     1.0000 0.18131  0.69739  0.20539  Biso   1.000  C
  H1010    1.0000 0.40849  0.80119  0.19110  Biso   1.000  H
  C774     1.0000 0.36710  0.82789  0.16191  Biso   1.000  C
  C775     1.0000 0.38191  0.75459  0.16610  Biso   1.000  C
  H1011    1.0000 0.31500  0.83960  0.13699  Biso   1.000  H
  C776     1.0000 0.32629  0.77909  0.13201  Biso   1.000  C
  H1012    1.0000 0.34009  0.72060  0.14231  Biso   1.000  H
  C777     1.0000 0.27351  0.90540  0.41003  Biso   1.000  C
  C778     1.0000 0.19941  0.91789  0.40805  Biso   1.000  C
  H1013    1.0000 0.14251  0.83509  0.60931  Biso   1.000  H
  C779     1.0000 0.15511  0.88620  0.58310  Biso   1.000  C
  C780     1.0000 0.20410  0.84549  0.61570  Biso   1.000  C
  H1014    1.0000 0.18050  0.92730  0.55520  Biso   1.000  H
  C781     1.0000 0.22689  0.90289  0.58079  Biso   1.000  C
  H1015    1.0000 0.26300  0.86421  0.60549  Biso   1.000  H
  C782     1.0000 0.13880  0.80149  0.29850  Biso   1.000  C
  C783     1.0000 0.10660  0.84429  0.34049  Biso   1.000  C
  H1016    1.0000 0.01281  0.64419  0.24640  Biso   1.000  H
  C784     1.0000 0.01649  0.58589  0.25849  Biso   1.000  C
  C785     1.0000 0.97921  0.63819  0.28720  Biso   1.000  C
  H1017    1.0000 0.95941  0.61919  0.33050  Biso   1.000  H
  C786     1.0000 0.98280  0.56910  0.30941  Biso   1.000  C
  H1018    1.0000 0.02449  0.52899  0.28180  Biso   1.000  H
  C787     1.0000 0.34750  0.98211  0.37030  Biso   1.000  C
  C788     1.0000 0.39691  0.97180  0.32810  Biso   1.000  C
  C789     1.0000 0.41701  0.95690  0.38400  Biso   1.000  C
  H1019    1.0000 0.56910  0.81780  0.31579  Biso   1.000  H
  H1020    1.0000 0.52340  0.81681  0.30480  Biso   1.000  H
  H1021    1.0000 0.58691  0.86150  0.36459  Biso   1.000  H
  H1022    1.0000 0.55121  0.88629  0.38020  Biso   1.000  H
  H1023    1.0000 0.55211  0.76791  0.39069  Biso   1.000  H
  H1024    1.0000 0.58729  0.78811  0.37090  Biso   1.000  H
  C790     1.0000 0.17901  0.73261  0.18281  Biso   1.000  C
  C791     1.0000 0.13839  0.68541  0.21711  Biso   1.000  C
  C792     1.0000 0.19720  0.66200  0.18609  Biso   1.000  C
  H1025    1.0000 0.38529  0.82980  0.14380  Biso   1.000  H
  H1026    1.0000 0.36719  0.85391  0.17290  Biso   1.000  H
  H1027    1.0000 0.40079  0.75609  0.14851  Biso   1.000  H
  H1028    1.0000 0.39060  0.73291  0.18029  Biso   1.000  H
  H1029    1.0000 0.29959  0.77281  0.12320  Biso   1.000  H
  H1030    1.0000 0.34550  0.78171  0.11460  Biso   1.000  H
  H1031    1.0000 0.27581  0.92111  0.39169  Biso   1.000  H
  N55      1.0000 0.16416  0.89262  0.40914  Biso   1.000  N
  H1032    1.0000 0.19349  0.94340  0.41879  Biso   1.000  H
  H1033    1.0000 0.20571  0.92419  0.38600  Biso   1.000  H
  H1034    1.0000 0.12999  0.88500  0.57100  Biso   1.000  H
  H1035    1.0000 0.15111  0.90510  0.60060  Biso   1.000  H
  H1036    1.0000 0.21109  0.81839  0.62299  Biso   1.000  H
  H1037    1.0000 0.20081  0.86311  0.63411  Biso   1.000  H
  H1038    1.0000 0.24830  0.91221  0.56660  Biso   1.000  H
  H1039    1.0000 0.22450  0.92231  0.59810  Biso   1.000  H
  H1040    1.0000 0.15009  0.82491  0.28951  Biso   1.000  H
  N56      1.0000 0.14203  0.87034  0.34171  Biso   1.000  N
  H1041    1.0000 0.08510  0.85821  0.32889  Biso   1.000  H
  H1042    1.0000 0.09690  0.83960  0.36200  Biso   1.000  H
  H1043    1.0000 0.03829  0.58120  0.24339  Biso   1.000  H
  H1044    1.0000 0.99110  0.57839  0.24819  Biso   1.000  H
  H1045    1.0000 0.97879  0.66699  0.29231  Biso   1.000  H
  H1046    1.0000 0.95400  0.63141  0.27639  Biso   1.000  H
  H1047    1.0000 0.95809  0.56229  0.29790  Biso   1.000  H
  H1048    1.0000 0.98339  0.55330  0.32889  Biso   1.000  H
  H1049    1.0000 0.32579  0.98169  0.35459  Biso   1.000  H
  H1050    1.0000 0.33669  0.97189  0.39020  Biso   1.000  H
  C793     1.0000 0.36241  0.02500  0.37470  Biso   1.000  C
  H1051    1.0000 0.41889  0.95490  0.32011  Biso   1.000  H
  H1052    1.0000 0.37459  0.97019  0.31290  Biso   1.000  H
  C794     1.0000 0.41100  0.01431  0.32989  Biso   1.000  C
  H1053    1.0000 0.40721  0.94740  0.40439  Biso   1.000  H
  H1054    1.0000 0.43971  0.93981  0.37750  Biso   1.000  H
  C795     1.0000 0.43060  0.00090  0.38640  Biso   1.000  C
  H1055    1.0000 0.20601  0.73930  0.17500  Biso   1.000  H
  H1056    1.0000 0.16799  0.75629  0.19350  Biso   1.000  H
  C796     1.0000 0.15120  0.72039  0.15489  Biso   1.000  C
  C797     1.0000 0.11129  0.67511  0.18800  Biso   1.000  C
  H1057    1.0000 0.12650  0.70770  0.22899  Biso   1.000  H
  H1058    1.0000 0.14021  0.66191  0.23100  Biso   1.000  H
  H1059    1.0000 0.22450  0.66851  0.17880  Biso   1.000  H
  H1060    1.0000 0.19929  0.63831  0.19991  Biso   1.000  H
  C798     1.0000 0.17211  0.65101  0.15841  Biso   1.000  C
  C799     1.0000 0.16909  0.85349  0.39451  Biso   1.000  C
  C800     1.0000 0.12629  0.90469  0.41625  Biso   1.000  C
  C801     1.0000 0.17590  0.85471  0.35951  Biso   1.000  C
  C802     1.0000 0.14451  0.90800  0.33050  Biso   1.000  C
  H1061    1.0000 0.34021  0.04250  0.38209  Biso   1.000  H
  C803     1.0000 0.37800  0.03940  0.34140  Biso   1.000  C
  C804     1.0000 0.39670  0.02569  0.39770  Biso   1.000  C
  H1062    1.0000 0.42011  0.02369  0.30899  Biso   1.000  H
  C805     1.0000 0.44389  0.01401  0.35131  Biso   1.000  C
  H1063    1.0000 0.45381  0.00320  0.40089  Biso   1.000  H
  H1064    1.0000 0.14890  0.74411  0.14091  Biso   1.000  H
  C806     1.0000 0.10810  0.71131  0.16810  Biso   1.000  C
  C807     1.0000 0.16891  0.68831  0.13681  Biso   1.000  C
  H1065    1.0000 0.08399  0.66770  0.19551  Biso   1.000  H
  C808     1.0000 0.12871  0.64031  0.16999  Biso   1.000  C
  H1066    1.0000 0.18421  0.62801  0.14690  Biso   1.000  H
  H1067    1.0000 0.14499  0.83730  0.39870  Biso   1.000  H
  H1068    1.0000 0.19209  0.83990  0.40430  Biso   1.000  H
  O55      1.0000 0.09830  0.88249  0.41001  Biso   1.000  O
  C809     1.0000 0.11879  0.94471  0.43384  Biso   1.000  C
  H1069    1.0000 0.19959  0.87150  0.35511  Biso   1.000  H
  H1070    1.0000 0.18179  0.82729  0.35210  Biso   1.000  H
  O56      1.0000 0.17369  0.92798  0.33637  Biso   1.000  O
  C810     1.0000 0.11120  0.92769  0.30911  Biso   1.000  C
  H1071    1.0000 0.35569  0.03841  0.32630  Biso   1.000  H
  H1072    1.0000 0.38720  0.06739  0.34290  Biso   1.000  H
  H1073    1.0000 0.40581  0.05350  0.40071  Biso   1.000  H
  H1074    1.0000 0.38741  0.01541  0.41809  Biso   1.000  H
  H1075    1.0000 0.46450  0.99531  0.34359  Biso   1.000  H
  H1076    1.0000 0.45590  0.04101  0.35210  Biso   1.000  H
  H1077    1.0000 0.09839  0.73419  0.18050  Biso   1.000  H
  H1078    1.0000 0.08919  0.70650  0.15079  Biso   1.000  H
  H1079    1.0000 0.19570  0.69620  0.12931  Biso   1.000  H
  H1080    1.0000 0.15189  0.68210  0.11849  Biso   1.000  H
  H1081    1.0000 0.11150  0.63410  0.15191  Biso   1.000  H
  H1082    1.0000 0.12969  0.61639  0.18351  Biso   1.000  H
  C811     1.0000 0.12689  0.98151  0.41301  Biso   1.000  C
  C812     1.0000 0.14319  0.94770  0.46467  Biso   1.000  C
  C813     1.0000 0.07429  0.94531  0.44240  Biso   1.000  C
  C814     1.0000 0.09770  0.89940  0.28100  Biso   1.000  C
  C815     1.0000 0.12671  0.96520  0.29531  Biso   1.000  C
  C816     1.0000 0.07479  0.93820  0.32931  Biso   1.000  C
  H1083    1.0000 0.15541  0.98211  0.40700  Biso   1.000  H
  H1084    1.0000 0.11070  0.97960  0.39381  Biso   1.000  H
  C817     1.0000 0.11619  0.02049  0.43049  Biso   1.000  C
  C818     1.0000 0.13331  0.98751  0.48106  Biso   1.000  C
  H1085    1.0000 0.13641  0.92509  0.47849  Biso   1.000  H
  H1086    1.0000 0.17211  0.94650  0.45999  Biso   1.000  H
  H1087    1.0000 0.06780  0.92159  0.45519  Biso   1.000  H
  H1088    1.0000 0.05801  0.94420  0.42310  Biso   1.000  H
  C819     1.0000 0.06440  0.98450  0.46111  Biso   1.000  C
  H1089    1.0000 0.12070  0.89310  0.26749  Biso   1.000  H
  H1090    1.0000 0.08641  0.87410  0.28909  Biso   1.000  H
  C820     1.0000 0.06739  0.92150  0.26360  Biso   1.000  C
  C821     1.0000 0.10141  0.98811  0.27469  Biso   1.000  C
  H1091    1.0000 0.13471  0.98300  0.31270  Biso   1.000  H
  H1092    1.0000 0.15141  0.95851  0.28359  Biso   1.000  H
  H1093    1.0000 0.06329  0.91341  0.33830  Biso   1.000  H
  H1094    1.0000 0.08340  0.95549  0.34681  Biso   1.000  H
  C822     1.0000 0.04310  0.95971  0.30999  Biso   1.000  C
  H1095    1.0000 0.12190  0.04409  0.41700  Biso   1.000  H
  C823     1.0000 0.14239  0.02261  0.46081  Biso   1.000  C
  C824     1.0000 0.07291  0.02001  0.43951  Biso   1.000  C
  H1096    1.0000 0.14959  0.98961  0.50049  Biso   1.000  H
  C825     1.0000 0.08880  0.98611  0.49000  Biso   1.000  C
  H1097    1.0000 0.03540  0.98450  0.46679  Biso   1.000  H
  H1098    1.0000 0.05860  0.90481  0.24561  Biso   1.000  H
  C826     1.0000 0.08381  0.95971  0.25129  Biso   1.000  C
  C827     1.0000 0.03241  0.93181  0.28201  Biso   1.000  C
  C828     1.0000 0.06010  0.99731  0.29750  Biso   1.000  C
  H1099    1.0000 0.11410  0.01240  0.26551  Biso   1.000  H
  H1100    1.0000 0.01891  0.96529  0.32290  Biso   1.000  H
  H1101    1.0000 0.17100  0.02240  0.45510  Biso   1.000  H
  H1102    1.0000 0.13659  0.04761  0.47220  Biso   1.000  H
  H1103    1.0000 0.05621  0.01789  0.42049  Biso   1.000  H
  H1104    1.0000 0.06601  0.04519  0.45030  Biso   1.000  H
  H1105    1.0000 0.08349  0.96219  0.50301  Biso   1.000  H
  H1106    1.0000 0.08169  0.01010  0.50231  Biso   1.000  H
  H1107    1.0000 0.06210  0.97380  0.24011  Biso   1.000  H
  H1108    1.0000 0.10469  0.95319  0.23580  Biso   1.000  H
  H1109    1.0000 0.02001  0.90699  0.29000  Biso   1.000  H
  H1110    1.0000 0.01260  0.94531  0.26840  Biso   1.000  H
  H1111    1.0000 0.06780  0.01499  0.31500  Biso   1.000  H
  H1112    1.0000 0.03961  0.01129  0.28499  Biso   1.000  H
  C829     1.0000 0.58380  0.45969  0.75129  Biso   1.000  C
  C830     1.0000 0.56740  0.42149  0.76360  Biso   1.000  C
  C831     1.0000 0.60139  0.48810  0.77469  Biso   1.000  C
  H1113    1.0000 0.56211  0.47379  0.74011  Biso   1.000  H
  H1114    1.0000 0.60471  0.45321  0.73580  Biso   1.000  H
  C832     1.0000 0.59769  0.39941  0.78100  Biso   1.000  C
  H1115    1.0000 0.55859  0.40479  0.74561  Biso   1.000  H
  C833     1.0000 0.53239  0.43179  0.78201  Biso   1.000  C
  C834     1.0000 0.62669  0.46519  0.79531  Biso   1.000  C
  H1116    1.0000 0.61409  0.51241  0.76551  Biso   1.000  H
  C835     1.0000 0.56011  0.49730  0.79750  Biso   1.000  C
  C836     1.0000 0.61119  0.42770  0.80911  Biso   1.000  C
  H1117    1.0000 0.62069  0.39311  0.76749  Biso   1.000  H
  H1118    1.0000 0.58640  0.37409  0.78909  Biso   1.000  H
  C837     1.0000 0.54309  0.45969  0.80999  Biso   1.000  C
  H1119    1.0000 0.52000  0.40700  0.79000  Biso   1.000  H
  H1120    1.0000 0.51259  0.44529  0.76840  Biso   1.000  H
  H1121    1.0000 0.63470  0.48299  0.81270  Biso   1.000  H
  H1122    1.0000 0.65139  0.45850  0.78359  Biso   1.000  H
  H1123    1.0000 0.56779  0.51501  0.81500  Biso   1.000  H
  H1124    1.0000 0.53959  0.51131  0.78499  Biso   1.000  H
  C838     1.0000 0.64449  0.40799  0.83050  Biso   1.000  C
  C839     1.0000 0.57481  0.43819  0.82931  Biso   1.000  C
  H1125    1.0000 0.51889  0.46531  0.82290  Biso   1.000  H
  N57      1.0000 0.64204  0.37035  0.84171  Biso   1.000  N
  O57      1.0000 0.67371  0.42797  0.83637  Biso   1.000  O
  H1126    1.0000 0.56331  0.41339  0.83830  Biso   1.000  H
  H1127    1.0000 0.58341  0.45551  0.84681  Biso   1.000  H
  C840     1.0000 0.60659  0.34431  0.84049  Biso   1.000  C
  C841     1.0000 0.67589  0.35470  0.85951  Biso   1.000  C
  C842     1.0000 0.61480  0.30440  0.82516  Biso   1.000  C
  H1128    1.0000 0.58511  0.35819  0.82889  Biso   1.000  H
  H1129    1.0000 0.59691  0.33959  0.86200  Biso   1.000  H
  H1130    1.0000 0.69960  0.37149  0.85511  Biso   1.000  H
  H1131    1.0000 0.68180  0.32731  0.85210  Biso   1.000  H
  C843     1.0000 0.66911  0.35351  0.89451  Biso   1.000  C
  C844     1.0000 0.63879  0.30150  0.79850  Biso   1.000  C
  C845     1.0000 0.59829  0.26969  0.83814  Biso   1.000  C
  N58      1.0000 0.66415  0.39263  0.90914  Biso   1.000  N
  H1132    1.0000 0.64500  0.33729  0.89870  Biso   1.000  H
  H1133    1.0000 0.69211  0.33991  0.90430  Biso   1.000  H
  C846     1.0000 0.64611  0.26440  0.78524  Biso   1.000  C
  H1134    1.0000 0.65011  0.32489  0.78951  Biso   1.000  H
  C847     1.0000 0.60471  0.23340  0.82379  Biso   1.000  C
  H1135    1.0000 0.58281  0.27110  0.85660  Biso   1.000  H
  C848     1.0000 0.69939  0.41790  0.90805  Biso   1.000  C
  C849     1.0000 0.62630  0.40470  0.91625  Biso   1.000  C
  C850     1.0000 0.67099  0.26249  0.75588  Biso   1.000  C
  C851     1.0000 0.62821  0.23050  0.79776  Biso   1.000  C
  C852     1.0000 0.58529  0.19711  0.83851  Biso   1.000  C
  C853     1.0000 0.73619  0.39861  0.92334  Biso   1.000  C
  H1136    1.0000 0.69351  0.44341  0.91879  Biso   1.000  H
  H1137    1.0000 0.70570  0.42421  0.88600  Biso   1.000  H
  O58      1.0000 0.59829  0.38251  0.91001  Biso   1.000  O
  C854     1.0000 0.61881  0.44470  0.93384  Biso   1.000  C
  N59      1.0000 0.70053  0.22961  0.75677  Biso   1.000  N
  H1138    1.0000 0.65310  0.25870  0.73771  Biso   1.000  H
  H1139    1.0000 0.68521  0.28821  0.75311  Biso   1.000  H
  H1140    1.0000 0.63219  0.20529  0.78820  Biso   1.000  H
  N60      1.0000 0.60979  0.16360  0.83893  Biso   1.000  N
  H1141    1.0000 0.57750  0.20371  0.86021  Biso   1.000  H
  H1142    1.0000 0.56059  0.19060  0.82691  Biso   1.000  H
  C855     1.0000 0.73210  0.37570  0.94985  Biso   1.000  C
  C856     1.0000 0.77350  0.40539  0.91003  Biso   1.000  C
  C857     1.0000 0.62690  0.48150  0.91301  Biso   1.000  C
  C858     1.0000 0.64321  0.44771  0.96467  Biso   1.000  C
  C859     1.0000 0.57430  0.44529  0.94240  Biso   1.000  C
  C860     1.0000 0.70910  0.20359  0.73349  Biso   1.000  C
  C861     1.0000 0.72849  0.23089  0.78336  Biso   1.000  C
  C862     1.0000 0.64820  0.16849  0.85511  Biso   1.000  C
  C863     1.0000 0.59840  0.12551  0.83281  Biso   1.000  C
  H1143    1.0000 0.70659  0.37119  0.95880  Biso   1.000  H
  C864     1.0000 0.76669  0.35891  0.96351  Biso   1.000  C
  C865     1.0000 0.80689  0.38905  0.92373  Biso   1.000  C
  H1144    1.0000 0.77580  0.42110  0.89169  Biso   1.000  H
  H1145    1.0000 0.65540  0.48209  0.90700  Biso   1.000  H
  H1146    1.0000 0.61071  0.47961  0.89381  Biso   1.000  H
  C866     1.0000 0.61621  0.52051  0.93049  Biso   1.000  C
  C867     1.0000 0.63329  0.48750  0.98106  Biso   1.000  C
  H1147    1.0000 0.63640  0.42510  0.97849  Biso   1.000  H
  H1148    1.0000 0.67209  0.44649  0.95999  Biso   1.000  H
  H1149    1.0000 0.56779  0.42161  0.95519  Biso   1.000  H
  H1150    1.0000 0.55799  0.44419  0.92310  Biso   1.000  H
  C868     1.0000 0.56441  0.48451  0.96111  Biso   1.000  C
  C869     1.0000 0.68129  0.19741  0.70539  Biso   1.000  C
  O59      1.0000 0.73948  0.18346  0.73480  Biso   1.000  O
  C870     1.0000 0.76000  0.26330  0.78112  Biso   1.000  C
  H1151    1.0000 0.74199  0.20470  0.78511  Biso   1.000  H
  H1152    1.0000 0.71289  0.23501  0.80270  Biso   1.000  H
  H1153    1.0000 0.66349  0.19009  0.84469  Biso   1.000  H
  H1154    1.0000 0.66379  0.14361  0.85289  Biso   1.000  H
  C871     1.0000 0.64431  0.17811  0.88850  Biso   1.000  C
  O60      1.0000 0.62260  0.09836  0.83947  Biso   1.000  O
  C872     1.0000 0.55760  0.11751  0.81470  Biso   1.000  C
  C873     1.0000 0.80340  0.36641  0.94962  Biso   1.000  C
  C874     1.0000 0.76460  0.33469  0.99382  Biso   1.000  C
  C875     1.0000 0.84871  0.39741  0.90870  Biso   1.000  C
  H1155    1.0000 0.62191  0.54410  0.91700  Biso   1.000  H
  C876     1.0000 0.64240  0.52260  0.96081  Biso   1.000  C
  C877     1.0000 0.57290  0.52000  0.93951  Biso   1.000  C
  C878     1.0000 0.58879  0.48610  0.99000  Biso   1.000  C
  H1156    1.0000 0.64960  0.48959  0.00049  Biso   1.000  H
  H1157    1.0000 0.53541  0.48451  0.96679  Biso   1.000  H
  C879     1.0000 0.67899  0.23259  0.68281  Biso   1.000  C
  C880     1.0000 0.63840  0.18540  0.71711  Biso   1.000  C
  C881     1.0000 0.69721  0.16201  0.68609  Biso   1.000  C
  N61      1.0000 0.78861  0.25921  0.75516  Biso   1.000  N
  H1158    1.0000 0.74629  0.28941  0.77909  Biso   1.000  H
  H1159    1.0000 0.77520  0.26369  0.80090  Biso   1.000  H
  N62      1.0000 0.63162  0.14140  0.90635  Biso   1.000  N
  H1160    1.0000 0.62430  0.19950  0.89129  Biso   1.000  H
  H1161    1.0000 0.67021  0.18779  0.89661  Biso   1.000  H
  C882     1.0000 0.55701  0.13961  0.78240  Biso   1.000  C
  C883     1.0000 0.52140  0.12459  0.83600  Biso   1.000  C
  C884     1.0000 0.55751  0.07181  0.80729  Biso   1.000  C
  H1162    1.0000 0.82679  0.35521  0.95859  Biso   1.000  H
  N63      1.0000 0.73103  0.30688  0.99450  Biso   1.000  N
  H1163    1.0000 0.78981  0.31960  0.99641  Biso   1.000  H
  H1164    1.0000 0.76221  0.35339  0.01170  Biso   1.000  H
  N64      1.0000 0.85062  0.38887  0.87557  Biso   1.000  N
  H1165    1.0000 0.85561  0.42579  0.91210  Biso   1.000  H
  H1166    1.0000 0.86899  0.38099  0.91961  Biso   1.000  H
  H1167    1.0000 0.67099  0.52239  0.95510  Biso   1.000  H
  H1168    1.0000 0.63661  0.54760  0.97220  Biso   1.000  H
  H1169    1.0000 0.55620  0.51791  0.92049  Biso   1.000  H
  H1170    1.0000 0.56600  0.54521  0.95030  Biso   1.000  H
  H1171    1.0000 0.58350  0.46220  0.00301  Biso   1.000  H
  H1172    1.0000 0.58171  0.51011  0.00231  Biso   1.000  H
  C885     1.0000 0.65121  0.22041  0.65489  Biso   1.000  C
  H1173    1.0000 0.70599  0.23931  0.67500  Biso   1.000  H
  H1174    1.0000 0.66800  0.25631  0.69350  Biso   1.000  H
  C886     1.0000 0.61131  0.17509  0.68800  Biso   1.000  C
  H1175    1.0000 0.62651  0.20771  0.72899  Biso   1.000  H
  H1176    1.0000 0.64019  0.16189  0.73100  Biso   1.000  H
  C887     1.0000 0.67209  0.15099  0.65841  Biso   1.000  C
  H1177    1.0000 0.72451  0.16849  0.67880  Biso   1.000  H
  H1178    1.0000 0.69930  0.13830  0.69991  Biso   1.000  H
  C888     1.0000 0.81720  0.22650  0.75831  Biso   1.000  C
  C889     1.0000 0.78091  0.27991  0.72813  Biso   1.000  C
  C890     1.0000 0.66000  0.11019  0.91119  Biso   1.000  C
  C891     1.0000 0.59121  0.14439  0.91700  Biso   1.000  C
  H1179    1.0000 0.57959  0.13050  0.76931  Biso   1.000  H
  H1180    1.0000 0.55919  0.16879  0.78541  Biso   1.000  H
  C892     1.0000 0.51531  0.12859  0.76621  Biso   1.000  C
  C893     1.0000 0.48311  0.11350  0.81710  Biso   1.000  C
  H1181    1.0000 0.52030  0.15290  0.84250  Biso   1.000  H
  H1182    1.0000 0.52340  0.10771  0.85480  Biso   1.000  H
  H1183    1.0000 0.58281  0.06500  0.79650  Biso   1.000  H
  H1184    1.0000 0.55701  0.05690  0.82719  Biso   1.000  H
  C894     1.0000 0.52301  0.05801  0.78739  Biso   1.000  C
  C895     1.0000 0.72950  0.27820  0.96901  Biso   1.000  C
  C896     1.0000 0.70850  0.29971  0.02090  Biso   1.000  C
  C897     1.0000 0.83620  0.34879  0.86659  Biso   1.000  C
  C898     1.0000 0.86831  0.41109  0.85271  Biso   1.000  C
  C899     1.0000 0.60811  0.21130  0.66810  Biso   1.000  C
  H1185    1.0000 0.64891  0.24409  0.64091  Biso   1.000  H
  C900     1.0000 0.66890  0.18830  0.63681  Biso   1.000  C
  H1186    1.0000 0.58401  0.16769  0.69551  Biso   1.000  H
  C901     1.0000 0.62869  0.14030  0.66999  Biso   1.000  C
  H1187    1.0000 0.68419  0.12799  0.64690  Biso   1.000  H
  C902     1.0000 0.84429  0.23041  0.78601  Biso   1.000  C
  H1188    1.0000 0.83369  0.22531  0.73920  Biso   1.000  H
  H1189    1.0000 0.80229  0.20111  0.75989  Biso   1.000  H
  O61      1.0000 0.74993  0.30049  0.72650  Biso   1.000  O
  C903     1.0000 0.81140  0.28059  0.70110  Biso   1.000  C
  C904     1.0000 0.69841  0.12208  0.92681  Biso   1.000  C
  H1190    1.0000 0.66651  0.09830  0.89069  Biso   1.000  H
  H1191    1.0000 0.64721  0.08910  0.92389  Biso   1.000  H
  O62      1.0000 0.57149  0.16909  0.90989  Biso   1.000  O
  C905     1.0000 0.57481  0.11049  0.93790  Biso   1.000  C
  H1192    1.0000 0.51280  0.14421  0.74640  Biso   1.000  H
  C906     1.0000 0.47920  0.13821  0.78720  Biso   1.000  C
  C907     1.0000 0.51650  0.08590  0.75849  Biso   1.000  C
  H1193    1.0000 0.45939  0.11921  0.83050  Biso   1.000  H
  C908     1.0000 0.48281  0.06909  0.80941  Biso   1.000  C
  H1194    1.0000 0.52451  0.02900  0.78180  Biso   1.000  H
  C909     1.0000 0.76260  0.24681  0.96819  Biso   1.000  C
  H1195    1.0000 0.73010  0.29311  0.94911  Biso   1.000  H
  H1196    1.0000 0.70349  0.26411  0.97001  Biso   1.000  H
  O63      1.0000 0.68804  0.26790  0.02132  Biso   1.000  O
  C910     1.0000 0.70510  0.32889  0.04749  Biso   1.000  C
  C911     1.0000 0.86299  0.31491  0.87762  Biso   1.000  C
  H1197    1.0000 0.83399  0.34759  0.84359  Biso   1.000  H
  H1198    1.0000 0.80910  0.34490  0.87531  Biso   1.000  H
  O64      1.0000 0.87323  0.39795  0.82719  Biso   1.000  O
  C912     1.0000 0.88270  0.45479  0.85921  Biso   1.000  C
  H1199    1.0000 0.59840  0.23421  0.68050  Biso   1.000  H
  H1200    1.0000 0.58921  0.20649  0.65079  Biso   1.000  H
  H1201    1.0000 0.69569  0.19621  0.62931  Biso   1.000  H
  H1202    1.0000 0.65190  0.18211  0.61849  Biso   1.000  H
  H1203    1.0000 0.61149  0.13411  0.65191  Biso   1.000  H
  H1204    1.0000 0.62971  0.11640  0.68351  Biso   1.000  H
  C913     1.0000 0.85681  0.19582  0.80158  Biso   1.000  C
  C914     1.0000 0.85940  0.26709  0.79617  Biso   1.000  C
  C915     1.0000 0.85340  0.29221  0.71196  Biso   1.000  C
  C916     1.0000 0.79671  0.31500  0.67901  Biso   1.000  C
  C917     1.0000 0.80970  0.24111  0.68246  Biso   1.000  C
  C918     1.0000 0.69727  0.14821  0.95218  Biso   1.000  C
  C919     1.0000 0.73470  0.10759  0.91688  Biso   1.000  C
  C920     1.0000 0.53320  0.12500  0.94720  Biso   1.000  C
  C921     1.0000 0.59870  0.09929  0.96649  Biso   1.000  C
  C922     1.0000 0.56830  0.07231  0.91809  Biso   1.000  C
  H1205    1.0000 0.47881  0.16700  0.79231  Biso   1.000  H
  H1206    1.0000 0.45399  0.13140  0.77639  Biso   1.000  H
  H1207    1.0000 0.53831  0.08119  0.74339  Biso   1.000  H
  H1208    1.0000 0.49111  0.07841  0.74819  Biso   1.000  H
  H1209    1.0000 0.45811  0.06231  0.79790  Biso   1.000  H
  H1210    1.0000 0.48341  0.05329  0.82889  Biso   1.000  H
  N65      1.0000 0.76287  0.21921  0.99480  Biso   1.000  N
  H1211    1.0000 0.75991  0.23101  0.94880  Biso   1.000  H
  H1212    1.0000 0.78870  0.26061  0.96731  Biso   1.000  H
  C923     1.0000 0.67090  0.31509  0.06839  Biso   1.000  C
  C924     1.0000 0.69291  0.37140  0.03514  Biso   1.000  C
  C925     1.0000 0.74270  0.33221  0.06760  Biso   1.000  C
  N66      1.0000 0.90304  0.31596  0.86319  Biso   1.000  N
  H1213    1.0000 0.86589  0.31650  0.90050  Biso   1.000  H
  H1214    1.0000 0.85009  0.28911  0.87261  Biso   1.000  H
  C926     1.0000 0.84749  0.48209  0.87030  Biso   1.000  C
  C927     1.0000 0.89689  0.47179  0.82810  Biso   1.000  C
  C928     1.0000 0.91699  0.45691  0.88400  Biso   1.000  C
  C929     1.0000 0.88321  0.19759  0.82670  Biso   1.000  C
  H1215    1.0000 0.84710  0.17061  0.79489  Biso   1.000  H
  C930     1.0000 0.88620  0.26880  0.82083  Biso   1.000  C
  H1216    1.0000 0.85131  0.29099  0.78611  Biso   1.000  H
  H1217    1.0000 0.85259  0.31820  0.72279  Biso   1.000  H
  H1218    1.0000 0.86371  0.27190  0.72671  Biso   1.000  H
  C931     1.0000 0.88091  0.29481  0.68381  Biso   1.000  C
  C932     1.0000 0.82461  0.31769  0.65091  Biso   1.000  C
  H1219    1.0000 0.76911  0.30951  0.67190  Biso   1.000  H
  H1220    1.0000 0.79671  0.34069  0.69040  Biso   1.000  H
  H1221    1.0000 0.78231  0.23609  0.67479  Biso   1.000  H
  H1222    1.0000 0.81801  0.21841  0.69569  Biso   1.000  H
  C933     1.0000 0.83951  0.24630  0.65419  Biso   1.000  C
  C934     1.0000 0.73249  0.16100  0.96630  Biso   1.000  C
  H1223    1.0000 0.67230  0.15729  0.95990  Biso   1.000  H
  C935     1.0000 0.76965  0.11870  0.93205  Biso   1.000  C
  H1224    1.0000 0.73589  0.09000  0.89959  Biso   1.000  H
  H1225    1.0000 0.51659  0.12820  0.92830  Biso   1.000  H
  H1226    1.0000 0.53541  0.15129  0.95750  Biso   1.000  H
  C936     1.0000 0.51229  0.09519  0.96959  Biso   1.000  C
  C937     1.0000 0.57809  0.06789  0.98660  Biso   1.000  C
  H1227    1.0000 0.60330  0.12360  0.97919  Biso   1.000  H
  H1228    1.0000 0.62499  0.08901  0.95980  Biso   1.000  H
  H1229    1.0000 0.55259  0.07921  0.89931  Biso   1.000  H
  H1230    1.0000 0.59449  0.06189  0.91119  Biso   1.000  H
  C938     1.0000 0.54679  0.04101  0.93610  Biso   1.000  C
  C939     1.0000 0.73061  0.18910  0.99415  Biso   1.000  C
  C940     1.0000 0.78730  0.22731  0.01941  Biso   1.000  C
  H1231    1.0000 0.67690  0.28809  0.07660  Biso   1.000  H
  H1232    1.0000 0.64599  0.31351  0.05609  Biso   1.000  H
  C941     1.0000 0.66510  0.34460  0.09589  Biso   1.000  C
  C942     1.0000 0.68751  0.40019  0.06329  Biso   1.000  C
  H1233    1.0000 0.71400  0.38179  0.02109  Biso   1.000  H
  H1234    1.0000 0.66770  0.36960  0.02321  Biso   1.000  H
  H1235    1.0000 0.74901  0.30580  0.07671  Biso   1.000  H
  H1236    1.0000 0.76549  0.34039  0.05441  Biso   1.000  H
  C943     1.0000 0.73739  0.36220  0.09361  Biso   1.000  C
  C944     1.0000 0.90409  0.30879  0.83008  Biso   1.000  C
  C945     1.0000 0.93471  0.32871  0.88239  Biso   1.000  C
  H1237    1.0000 0.82580  0.48170  0.85459  Biso   1.000  H
  H1238    1.0000 0.83670  0.47191  0.89020  Biso   1.000  H
  C946     1.0000 0.86239  0.52499  0.87470  Biso   1.000  C
  C947     1.0000 0.91099  0.51429  0.82989  Biso   1.000  C
  H1239    1.0000 0.91890  0.45491  0.82011  Biso   1.000  H
  H1240    1.0000 0.87461  0.47021  0.81290  Biso   1.000  H
  H1241    1.0000 0.90720  0.44741  0.90439  Biso   1.000  H
  H1242    1.0000 0.93969  0.43980  0.87750  Biso   1.000  H
  C948     1.0000 0.93061  0.50091  0.88640  Biso   1.000  C
  C949     1.0000 0.89740  0.23409  0.83602  Biso   1.000  C
  C950     1.0000 0.89599  0.15861  0.84220  Biso   1.000  C
  H1243    1.0000 0.90851  0.30120  0.69110  Biso   1.000  H
  C951     1.0000 0.86711  0.32791  0.66191  Biso   1.000  C
  C952     1.0000 0.88190  0.25461  0.66610  Biso   1.000  C
  H1244    1.0000 0.81499  0.33959  0.63699  Biso   1.000  H
  C953     1.0000 0.82631  0.27910  0.63201  Biso   1.000  C
  H1245    1.0000 0.84011  0.22059  0.64231  Biso   1.000  H
  C954     1.0000 0.76941  0.14561  0.95580  Biso   1.000  C
  C955     1.0000 0.81021  0.09920  0.92166  Biso   1.000  C
  H1246    1.0000 0.48580  0.10541  0.97679  Biso   1.000  H
  C956     1.0000 0.53759  0.08271  0.99599  Biso   1.000  C
  C957     1.0000 0.50781  0.05451  0.94650  Biso   1.000  C
  C958     1.0000 0.57421  0.03109  0.96591  Biso   1.000  C
  H1247    1.0000 0.59461  0.06171  0.00541  Biso   1.000  H
  H1248    1.0000 0.54380  0.01649  0.92301  Biso   1.000  H
  H1249    1.0000 0.70459  0.20311  0.99389  Biso   1.000  H
  H1250    1.0000 0.73189  0.17300  0.01349  Biso   1.000  H
  O65      1.0000 0.80704  0.25846  0.01892  Biso   1.000  O
  C959     1.0000 0.79280  0.19911  0.04619  Biso   1.000  C
  H1251    1.0000 0.64249  0.33511  0.10931  Biso   1.000  H
  C960     1.0000 0.65510  0.38621  0.08310  Biso   1.000  C
  C961     1.0000 0.70411  0.34550  0.11570  Biso   1.000  C
  H1252    1.0000 0.68049  0.42731  0.05520  Biso   1.000  H
  C962     1.0000 0.72690  0.40291  0.08079  Biso   1.000  C
  H1253    1.0000 0.76299  0.36420  0.10549  Biso   1.000  H
  H1254    1.0000 0.93220  0.30990  0.82290  Biso   1.000  H
  H1255    1.0000 0.88930  0.33039  0.81941  Biso   1.000  H
  O66      1.0000 0.92778  0.34189  0.90742  Biso   1.000  O
  C963     1.0000 0.97870  0.32531  0.87039  Biso   1.000  C
  H1256    1.0000 0.84020  0.54249  0.88209  Biso   1.000  H
  C964     1.0000 0.87801  0.53941  0.84140  Biso   1.000  C
  C965     1.0000 0.89671  0.52570  0.89770  Biso   1.000  C
  H1257    1.0000 0.92010  0.52370  0.80899  Biso   1.000  H
  C966     1.0000 0.94391  0.51399  0.85131  Biso   1.000  C
  H1258    1.0000 0.95379  0.50321  0.90089  Biso   1.000  H
  H1259    1.0000 0.91520  0.23570  0.85319  Biso   1.000  H
  N67      1.0000 0.88999  0.15759  0.87489  Biso   1.000  N
  H1260    1.0000 0.88091  0.13629  0.83260  Biso   1.000  H
  H1261    1.0000 0.92470  0.15401  0.83791  Biso   1.000  H
  N68      1.0000 0.86200  0.13181  0.84900  Biso   1.000  N
  H1262    1.0000 0.88530  0.32979  0.64380  Biso   1.000  H
  H1263    1.0000 0.86720  0.35389  0.67290  Biso   1.000  H
  H1264    1.0000 0.90080  0.25610  0.64851  Biso   1.000  H
  H1265    1.0000 0.89059  0.23289  0.68029  Biso   1.000  H
  H1266    1.0000 0.79961  0.27280  0.62320  Biso   1.000  H
  H1267    1.0000 0.84549  0.28170  0.61460  Biso   1.000  H
  H1268    1.0000 0.79369  0.15389  0.96521  Biso   1.000  H
  N69      1.0000 0.81651  0.10380  0.88766  Biso   1.000  N
  N70      1.0000 0.84071  0.12951  0.91839  Biso   1.000  N
  H1269    1.0000 0.83249  0.11201  0.93301  Biso   1.000  H
  H1270    1.0000 0.81000  0.07049  0.92711  Biso   1.000  H
  H1271    1.0000 0.52370  0.06129  0.00750  Biso   1.000  H
  H1272    1.0000 0.54091  0.10559  0.01030  Biso   1.000  H
  H1273    1.0000 0.49440  0.03280  0.95820  Biso   1.000  H
  H1274    1.0000 0.49111  0.06120  0.92821  Biso   1.000  H
  H1275    1.0000 0.56211  0.00899  0.97791  Biso   1.000  H
  H1276    1.0000 0.60100  0.02249  0.95880  Biso   1.000  H
  C967     1.0000 0.80391  0.15601  0.03600  Biso   1.000  C
  C968     1.0000 0.75540  0.19881  0.06909  Biso   1.000  C
  C969     1.0000 0.82750  0.21560  0.06620  Biso   1.000  C
  H1277    1.0000 0.63001  0.38499  0.07100  Biso   1.000  H
  H1278    1.0000 0.65109  0.40509  0.10060  Biso   1.000  H
  H1279    1.0000 0.71110  0.31841  0.12299  Biso   1.000  H
  H1280    1.0000 0.70080  0.36309  0.13411  Biso   1.000  H
  H1281    1.0000 0.74829  0.41220  0.06660  Biso   1.000  H
  H1282    1.0000 0.72451  0.42229  0.09810  Biso   1.000  H
  C970     1.0000 0.98781  0.35951  0.84700  Biso   1.000  C
  C971     1.0000 0.98990  0.28591  0.85690  Biso   1.000  C
  C972     1.0000 0.00550  0.33051  0.89971  Biso   1.000  C
  H1283    1.0000 0.85570  0.53840  0.82630  Biso   1.000  H
  H1284    1.0000 0.88721  0.56740  0.84290  Biso   1.000  H
  H1285    1.0000 0.90579  0.55351  0.90071  Biso   1.000  H
  H1286    1.0000 0.88739  0.51540  0.91809  Biso   1.000  H
  H1287    1.0000 0.95591  0.54100  0.85210  Biso   1.000  H
  H1288    1.0000 0.96449  0.49530  0.84359  Biso   1.000  H
  C973     1.0000 0.85020  0.17130  0.88570  Biso   1.000  C
  C974     1.0000 0.91311  0.13970  0.89789  Biso   1.000  C
  C975     1.0000 0.82401  0.14720  0.86410  Biso   1.000  C
  C976     1.0000 0.86589  0.08841  0.84800  Biso   1.000  C
  C977     1.0000 0.81550  0.14370  0.87580  Biso   1.000  C
  C978     1.0000 0.82930  0.07291  0.86750  Biso   1.000  C
  C979     1.0000 0.83360  0.16019  0.89801  Biso   1.000  C
  C980     1.0000 0.88049  0.12019  0.92730  Biso   1.000  C
  H1289    1.0000 0.78219  0.14481  0.02309  Biso   1.000  H
  H1290    1.0000 0.82861  0.15661  0.02330  Biso   1.000  H
  C981     1.0000 0.81039  0.12990  0.06441  Biso   1.000  C
  C982     1.0000 0.76439  0.17190  0.09610  Biso   1.000  C
  H1291    1.0000 0.74999  0.22620  0.07660  Biso   1.000  H
  H1292    1.0000 0.73141  0.18910  0.05791  Biso   1.000  H
  H1293    1.0000 0.85170  0.21820  0.05311  Biso   1.000  H
  H1294    1.0000 0.82039  0.24251  0.07389  Biso   1.000  H
  C983     1.0000 0.83640  0.18901  0.09321  Biso   1.000  C
  H1295    1.0000 0.98079  0.38570  0.85641  Biso   1.000  H
  H1296    1.0000 0.97180  0.35601  0.82780  Biso   1.000  H
  C984     1.0000 0.03399  0.35799  0.83910  Biso   1.000  C
  H1297    1.0000 0.97171  0.27970  0.83940  Biso   1.000  H
  H1298    1.0000 0.98611  0.26500  0.87300  Biso   1.000  H
  C985     1.0000 0.03321  0.28400  0.84520  Biso   1.000  C
  H1299    1.0000 0.99931  0.30939  0.91511  Biso   1.000  H
  H1300    1.0000 0.00009  0.35679  0.90949  Biso   1.000  H
  C986     1.0000 0.04970  0.32779  0.88999  Biso   1.000  C
  H1301    1.0000 0.84510  0.19839  0.87729  Biso   1.000  H
  H1302    1.0000 0.85041  0.17330  0.90870  Biso   1.000  H
  H1303    1.0000 0.85731  0.17781  0.89761  Biso   1.000  H
  O67      1.0000 0.90021  0.13289  0.92340  Biso   1.000  O
  C987     1.0000 0.95651  0.12919  0.88990  Biso   1.000  C
  O68      1.0000 0.90651  0.14430  0.91979  Biso   1.000  O
  H1304    1.0000 0.81520  0.14230  0.85280  Biso   1.000  H
  H1305    1.0000 0.80340  0.12599  0.86410  Biso   1.000  H
  H1306    1.0000 0.81361  0.17020  0.85210  Biso   1.000  H
  O69      1.0000 0.83930  0.08110  0.84089  Biso   1.000  O
  O70      1.0000 0.84199  0.07339  0.85459  Biso   1.000  O
  C988     1.0000 0.90749  0.07199  0.83870  Biso   1.000  C
  H1307    1.0000 0.79020  0.15619  0.88251  Biso   1.000  H
  C989     1.0000 0.82559  0.02900  0.87820  Biso   1.000  C
  H1308    1.0000 0.81090  0.17611  0.90600  Biso   1.000  H
  C990     1.0000 0.89089  0.08590  0.94960  Biso   1.000  C
  H1309    1.0000 0.81681  0.10209  0.05751  Biso   1.000  H
  C991     1.0000 0.77550  0.12910  0.08419  Biso   1.000  C
  C992     1.0000 0.84650  0.14711  0.08380  Biso   1.000  C
  H1310    1.0000 0.74020  0.17011  0.10980  Biso   1.000  H
  C993     1.0000 0.79949  0.18851  0.11509  Biso   1.000  C
  H1311    1.0000 0.85961  0.20039  0.10491  Biso   1.000  H
  H1312    1.0000 0.04119  0.38060  0.82491  Biso   1.000  H
  C994     1.0000 0.04110  0.31901  0.82320  Biso   1.000  C
  C995     1.0000 0.05801  0.36100  0.86951  Biso   1.000  C
  H1313    1.0000 0.03910  0.25789  0.83490  Biso   1.000  H
  C996     1.0000 0.05851  0.28961  0.87589  Biso   1.000  C
  H1314    1.0000 0.06661  0.33071  0.90910  Biso   1.000  H
  C997     1.0000 0.98061  0.16389  0.87750  Biso   1.000  C
  C998     1.0000 0.95839  0.09301  0.86629  Biso   1.000  C
  C999     1.0000 0.97640  0.11551  0.92040  Biso   1.000  C
  H1315    1.0000 0.96950  0.15030  0.90870  Biso   1.000  H
  C1000    1.0000 0.94391  0.08160  0.85860  Biso   1.000  C
  C1001    1.0000 0.91481  0.08429  0.80370  Biso   1.000  C
  C1002    1.0000 0.90239  0.02670  0.84290  Biso   1.000  C
  C1003    1.0000 0.78530  0.01861  0.89181  Biso   1.000  C
  C1004    1.0000 0.86039  0.01879  0.90150  Biso   1.000  C
  C1005    1.0000 0.82900  0.00311  0.84909  Biso   1.000  C
  C1006    1.0000 0.90140  0.07599  0.98250  Biso   1.000  C
  H1316    1.0000 0.90089  0.08940  0.96169  Biso   1.000  H
  C1007    1.0000 0.88709  0.04460  0.93559  Biso   1.000  C
  C1008    1.0000 0.86711  0.09041  0.98101  Biso   1.000  C
  C1009    1.0000 0.93611  0.09119  0.95540  Biso   1.000  C
  H1317    1.0000 0.78070  0.11150  0.10220  Biso   1.000  H
  H1318    1.0000 0.75271  0.11789  0.07240  Biso   1.000  H
  H1319    1.0000 0.85110  0.13050  0.10251  Biso   1.000  H
  H1320    1.0000 0.87111  0.14699  0.07100  Biso   1.000  H
  H1321    1.0000 0.80459  0.17139  0.13350  Biso   1.000  H
  H1322    1.0000 0.79339  0.21590  0.12250  Biso   1.000  H
  H1323    1.0000 0.06909  0.31781  0.81579  Biso   1.000  H
  H1324    1.0000 0.02339  0.31680  0.80480  Biso   1.000  H
  H1325    1.0000 0.08689  0.36151  0.86459  Biso   1.000  H
  H1326    1.0000 0.05120  0.38630  0.88020  Biso   1.000  H
  H1327    1.0000 0.05209  0.26790  0.89069  Biso   1.000  H
  H1328    1.0000 0.08731  0.28809  0.87090  Biso   1.000  H
  H1329    1.0000 0.97960  0.18579  0.89309  Biso   1.000  H
  H1330    1.0000 0.96759  0.17381  0.85830  Biso   1.000  H
  C1010    1.0000 0.99761  0.16031  0.90730  Biso   1.000  C
  C1011    1.0000 0.02491  0.15490  0.87009  Biso   1.000  C
  H1331    1.0000 0.94621  0.10051  0.84611  Biso   1.000  H
  H1332    1.0000 0.94399  0.06960  0.87480  Biso   1.000  H
  H1333    1.0000 0.93859  0.07279  0.88030  Biso   1.000  H
  H1334    1.0000 0.94770  0.11099  0.85900  Biso   1.000  H
  C1012    1.0000 0.98321  0.06180  0.84730  Biso   1.000  C
  C1013    1.0000 0.00469  0.08340  0.86219  Biso   1.000  C
  H1335    1.0000 0.96239  0.09161  0.92860  Biso   1.000  H
  H1336    1.0000 0.97431  0.13701  0.93620  Biso   1.000  H
  C1014    1.0000 0.02569  0.10439  0.91390  Biso   1.000  C
  Cl37     1.0000 0.03289  0.11969  0.91620  Biso   1.000  Cl
  C1015    1.0000 0.89629  0.05379  0.78839  Biso   1.000  C
  Cl38     1.0000 0.91520  0.09791  0.77294  Biso   1.000  Cl
  C1016    1.0000 0.95430  0.06180  0.79219  Biso   1.000  C
  H1337    1.0000 0.91831  0.11359  0.80200  Biso   1.000  H
  H1338    1.0000 0.89169  0.07641  0.79070  Biso   1.000  H
  H1339    1.0000 0.87700  0.01780  0.83329  Biso   1.000  H
  H1340    1.0000 0.90170  0.02001  0.86529  Biso   1.000  H
  C1017    1.0000 0.94211  0.00320  0.82521  Biso   1.000  C
  H1341    1.0000 0.78010  0.03620  0.90989  Biso   1.000  H
  H1342    1.0000 0.76451  0.02399  0.87601  Biso   1.000  H
  C1018    1.0000 0.78219  0.97551  0.90211  Biso   1.000  C
  H1343    1.0000 0.85761  0.03459  0.92080  Biso   1.000  H
  H1344    1.0000 0.88659  0.02500  0.89190  Biso   1.000  H
  C1019    1.0000 0.85710  0.97180  0.90910  Biso   1.000  C
  H1345    1.0000 0.85489  0.00839  0.83870  Biso   1.000  H
  H1346    1.0000 0.80740  0.01019  0.83430  Biso   1.000  H
  C1020    1.0000 0.82550  0.95230  0.85851  Biso   1.000  C
  Cl39     1.0000 0.92900  0.03420  0.98001  Biso   1.000  Cl
  Cl40     1.0000 0.84931  0.06270  0.99420  Biso   1.000  Cl
  Cl41     1.0000 0.91741  0.11031  0.01098  Biso   1.000  Cl
  C1021    1.0000 0.88360  0.05609  0.00340  Biso   1.000  C
  C1022    1.0000 0.92670  0.06231  0.00690  Biso   1.000  C
  H1347    1.0000 0.90451  0.04301  0.91700  Biso   1.000  H
  H1348    1.0000 0.85920  0.04080  0.92851  Biso   1.000  H
  C1023    1.0000 0.89809  0.01051  0.95801  Biso   1.000  C
  H1349    1.0000 0.83811  0.08701  0.97730  Biso   1.000  H
  H1350    1.0000 0.87171  0.11709  0.99031  Biso   1.000  H
  H1351    1.0000 0.94149  0.11849  0.96330  Biso   1.000  H
  H1352    1.0000 0.95089  0.08761  0.93559  Biso   1.000  H
  C1024    1.0000 0.95161  0.05630  0.98229  Biso   1.000  C
  C1025    1.0000 0.03931  0.14221  0.90551  Biso   1.000  C
  H1353    1.0000 0.02900  0.16210  0.92049  Biso   1.000  H
  Cl42     1.0000 0.00881  0.17441  0.86920  Biso   1.000  Cl
  Cl43     1.0000 0.00499  0.19669  0.93319  Biso   1.000  Cl
  H1354    1.0000 0.03991  0.17790  0.86100  Biso   1.000  H
  C1026    1.0000 0.02500  0.11610  0.84930  Biso   1.000  C
  C1027    1.0000 0.98719  0.07091  0.81139  Biso   1.000  C
  C1028    1.0000 0.96971  0.01431  0.84851  Biso   1.000  C
  H1355    1.0000 0.00780  0.05971  0.84821  Biso   1.000  H
  H1356    1.0000 0.00729  0.06849  0.86000  Biso   1.000  H
  C1029    1.0000 0.02321  0.07449  0.89281  Biso   1.000  C
  H1357    1.0000 0.03901  0.09501  0.93349  Biso   1.000  H
  H1358    1.0000 0.88151  0.06099  0.80780  Biso   1.000  H
  Cl44     1.0000 0.86302  0.02924  0.76444  Biso   1.000  Cl
  Cl45     1.0000 0.93530  0.02070  0.79960  Biso   1.000  Cl
  H1359    1.0000 0.96030  0.06801  0.76980  Biso   1.000  H
  C1030    1.0000 0.94399  0.01971  0.79620  Biso   1.000  C
  H1360    1.0000 0.93829  0.97360  0.82430  Biso   1.000  H
  H1361    1.0000 0.75629  0.96971  0.91280  Biso   1.000  H
  C1031    1.0000 0.81890  0.96469  0.92271  Biso   1.000  C
  C1032    1.0000 0.78530  0.95409  0.86729  Biso   1.000  C
  H1362    1.0000 0.87951  0.96210  0.92250  Biso   1.000  H
  C1033    1.0000 0.85349  0.94970  0.88099  Biso   1.000  C
  H1363    1.0000 0.83061  0.93411  0.84049  Biso   1.000  H
  C1034    1.0000 0.87751  0.01810  0.99010  Biso   1.000  C
  H1364    1.0000 0.87019  0.05759  0.02409  Biso   1.000  H
  H1365    1.0000 0.93070  0.09009  0.01410  Biso   1.000  H
  H1366    1.0000 0.93590  0.04460  0.02400  Biso   1.000  H
  C1035    1.0000 0.94540  0.02419  0.96199  Biso   1.000  C
  H1367    1.0000 0.89420  0.98309  0.94929  Biso   1.000  H
  H1368    1.0000 0.98041  0.05959  0.98809  Biso   1.000  H
  H1369    1.0000 0.06879  0.14269  0.90651  Biso   1.000  H
  H1370    1.0000 0.01269  0.12261  0.82889  Biso   1.000  H
  H1371    1.0000 0.05299  0.10819  0.84530  Biso   1.000  H
  H1372    1.0000 0.99319  0.09979  0.80899  Biso   1.000  H
  H1373    1.0000 0.01069  0.05609  0.80349  Biso   1.000  H
  H1374    1.0000 0.95779  0.00869  0.86920  Biso   1.000  H
  H1375    1.0000 0.99391  0.99749  0.84639  Biso   1.000  H
  H1376    1.0000 0.00609  0.00251  0.84639  Biso   1.000  H
  H1377    1.0000 0.00789  0.05239  0.90241  Biso   1.000  H
  H1378    1.0000 0.05051  0.06449  0.88889  Biso   1.000  H
  H1379    1.0000 0.91771  0.01550  0.78620  Biso   1.000  H
  H1380    1.0000 0.96371  0.00391  0.78410  Biso   1.000  H
  H1381    1.0000 0.81720  0.98020  0.94230  Biso   1.000  H
  H1382    1.0000 0.81711  0.93611  0.92830  Biso   1.000  H
  H1383    1.0000 0.77380  0.92679  0.86820  Biso   1.000  H
  H1384    1.0000 0.76989  0.96980  0.85189  Biso   1.000  H
  H1385    1.0000 0.87921  0.95361  0.87021  Biso   1.000  H
  H1386    1.0000 0.85310  0.92141  0.88771  Biso   1.000  H
  H1387    1.0000 0.84841  0.01401  0.98751  Biso   1.000  H
  H1388    1.0000 0.88721  0.99770  0.00501  Biso   1.000  H
  H1389    1.0000 0.96090  0.00099  0.96971  Biso   1.000  H
  H1390    1.0000 0.95609  0.03139  0.94130  Biso   1.000  H
  C1036    1.0000 0.54031  0.58380  0.24871  Biso   1.000  C
  C1037    1.0000 0.51190  0.60139  0.22531  Biso   1.000  C
  C1038    1.0000 0.57851  0.56740  0.23640  Biso   1.000  C
  H1391    1.0000 0.52621  0.56211  0.25989  Biso   1.000  H
  H1392    1.0000 0.54679  0.60471  0.26420  Biso   1.000  H
  C1039    1.0000 0.50270  0.56011  0.20250  Biso   1.000  C
  H1393    1.0000 0.48759  0.61409  0.23449  Biso   1.000  H
  C1040    1.0000 0.53481  0.62669  0.20469  Biso   1.000  C
  C1041    1.0000 0.56821  0.53239  0.21799  Biso   1.000  C
  C1042    1.0000 0.60059  0.59769  0.21900  Biso   1.000  C
  H1394    1.0000 0.59521  0.55859  0.25439  Biso   1.000  H
  H1395    1.0000 0.48499  0.56779  0.18500  Biso   1.000  H
  H1396    1.0000 0.48869  0.53959  0.21501  Biso   1.000  H
  C1043    1.0000 0.54031  0.54309  0.19001  Biso   1.000  C
  C1044    1.0000 0.57230  0.61119  0.19089  Biso   1.000  C
  H1397    1.0000 0.51701  0.63470  0.18730  Biso   1.000  H
  H1398    1.0000 0.54150  0.65139  0.21641  Biso   1.000  H
  H1399    1.0000 0.59300  0.52000  0.21000  Biso   1.000  H
  H1400    1.0000 0.55471  0.51259  0.23160  Biso   1.000  H
  H1401    1.0000 0.60689  0.62069  0.23251  Biso   1.000  H
  H1402    1.0000 0.62591  0.58640  0.21091  Biso   1.000  H
  C1045    1.0000 0.56181  0.57481  0.17069  Biso   1.000  C
  H1403    1.0000 0.53469  0.51889  0.17710  Biso   1.000  H
  C1046    1.0000 0.59201  0.64449  0.16950  Biso   1.000  C
  H1404    1.0000 0.58661  0.56331  0.16170  Biso   1.000  H
  H1405    1.0000 0.54449  0.58341  0.15319  Biso   1.000  H
  O71      1.0000 0.57203  0.67371  0.16363  Biso   1.000  O
  N71      1.0000 0.62965  0.64204  0.15829  Biso   1.000  N
  C1047    1.0000 0.65569  0.60659  0.15951  Biso   1.000  C
  C1048    1.0000 0.64530  0.67589  0.14049  Biso   1.000  C
  C1049    1.0000 0.69560  0.61480  0.17484  Biso   1.000  C
  H1406    1.0000 0.64181  0.58511  0.17111  Biso   1.000  H
  H1407    1.0000 0.66041  0.59691  0.13800  Biso   1.000  H
  H1408    1.0000 0.62851  0.69960  0.14489  Biso   1.000  H
  H1409    1.0000 0.67269  0.68180  0.14790  Biso   1.000  H
  C1050    1.0000 0.64649  0.66911  0.10549  Biso   1.000  C
  C1051    1.0000 0.73031  0.59829  0.16186  Biso   1.000  C
  C1052    1.0000 0.69850  0.63879  0.20150  Biso   1.000  C
  N72      1.0000 0.60737  0.66415  0.09086  Biso   1.000  N
  H1410    1.0000 0.66271  0.64500  0.10130  Biso   1.000  H
  H1411    1.0000 0.66009  0.69211  0.09570  Biso   1.000  H
  C1053    1.0000 0.76660  0.60471  0.17621  Biso   1.000  C
  H1412    1.0000 0.72890  0.58281  0.14340  Biso   1.000  H
  H1413    1.0000 0.67511  0.65011  0.21049  Biso   1.000  H
  C1054    1.0000 0.73560  0.64611  0.21476  Biso   1.000  C
  C1055    1.0000 0.58210  0.69939  0.09195  Biso   1.000  C
  C1056    1.0000 0.59530  0.62630  0.08375  Biso   1.000  C
  C1057    1.0000 0.76950  0.62821  0.20224  Biso   1.000  C
  C1058    1.0000 0.80289  0.58529  0.16149  Biso   1.000  C
  C1059    1.0000 0.73751  0.67099  0.24412  Biso   1.000  C
  C1060    1.0000 0.60139  0.73619  0.07666  Biso   1.000  C
  H1414    1.0000 0.55659  0.69351  0.08121  Biso   1.000  H
  H1415    1.0000 0.57579  0.70570  0.11400  Biso   1.000  H
  O72      1.0000 0.61749  0.59829  0.08999  Biso   1.000  O
  C1061    1.0000 0.55530  0.61881  0.06616  Biso   1.000  C
  H1416    1.0000 0.79471  0.63219  0.21180  Biso   1.000  H
  N73      1.0000 0.83640  0.60979  0.16107  Biso   1.000  N
  H1417    1.0000 0.79629  0.57750  0.13979  Biso   1.000  H
  H1418    1.0000 0.80940  0.56059  0.17309  Biso   1.000  H
  N74      1.0000 0.77039  0.70053  0.24323  Biso   1.000  N
  H1419    1.0000 0.74130  0.65310  0.26229  Biso   1.000  H
  H1420    1.0000 0.71179  0.68521  0.24689  Biso   1.000  H
  C1062    1.0000 0.62430  0.73210  0.05015  Biso   1.000  C
  C1063    1.0000 0.59461  0.77350  0.08997  Biso   1.000  C
  C1064    1.0000 0.51850  0.62690  0.08699  Biso   1.000  C
  C1065    1.0000 0.55229  0.64321  0.03533  Biso   1.000  C
  C1066    1.0000 0.55471  0.57430  0.05760  Biso   1.000  C
  C1067    1.0000 0.83151  0.64820  0.14489  Biso   1.000  C
  C1068    1.0000 0.87449  0.59840  0.16719  Biso   1.000  C
  C1069    1.0000 0.76911  0.72849  0.21664  Biso   1.000  C
  C1070    1.0000 0.79641  0.70910  0.26651  Biso   1.000  C
  H1421    1.0000 0.62881  0.70659  0.04120  Biso   1.000  H
  C1071    1.0000 0.64109  0.76669  0.03649  Biso   1.000  C
  C1072    1.0000 0.61095  0.80689  0.07627  Biso   1.000  C
  H1422    1.0000 0.57890  0.77580  0.10831  Biso   1.000  H
  H1423    1.0000 0.51791  0.65540  0.09300  Biso   1.000  H
  H1424    1.0000 0.52039  0.61071  0.10619  Biso   1.000  H
  C1073    1.0000 0.47949  0.61621  0.06951  Biso   1.000  C
  C1074    1.0000 0.51250  0.63329  0.01894  Biso   1.000  C
  H1425    1.0000 0.57490  0.63640  0.02151  Biso   1.000  H
  H1426    1.0000 0.55351  0.67209  0.04001  Biso   1.000  H
  H1427    1.0000 0.57839  0.56779  0.04481  Biso   1.000  H
  H1428    1.0000 0.55581  0.55799  0.07690  Biso   1.000  H
  C1075    1.0000 0.51549  0.56441  0.03889  Biso   1.000  C
  H1429    1.0000 0.80991  0.66349  0.15531  Biso   1.000  H
  H1430    1.0000 0.85639  0.66379  0.14711  Biso   1.000  H
  C1076    1.0000 0.82189  0.64431  0.11150  Biso   1.000  C
  O73      1.0000 0.90164  0.62260  0.16053  Biso   1.000  O
  C1077    1.0000 0.88249  0.55760  0.18530  Biso   1.000  C
  C1078    1.0000 0.73670  0.76000  0.21888  Biso   1.000  C
  H1431    1.0000 0.79530  0.74199  0.21489  Biso   1.000  H
  H1432    1.0000 0.76499  0.71289  0.19730  Biso   1.000  H
  O74      1.0000 0.81654  0.73948  0.26520  Biso   1.000  O
  C1079    1.0000 0.80259  0.68129  0.29461  Biso   1.000  C
  C1080    1.0000 0.63359  0.80340  0.05038  Biso   1.000  C
  C1081    1.0000 0.66531  0.76460  0.00618  Biso   1.000  C
  C1082    1.0000 0.60259  0.84871  0.09130  Biso   1.000  C
  H1433    1.0000 0.45590  0.62191  0.08300  Biso   1.000  H
  C1083    1.0000 0.47740  0.64240  0.03919  Biso   1.000  C
  C1084    1.0000 0.48000  0.57290  0.06049  Biso   1.000  C
  C1085    1.0000 0.51390  0.58879  0.01000  Biso   1.000  C
  H1434    1.0000 0.51041  0.64960  0.99951  Biso   1.000  H
  H1435    1.0000 0.51549  0.53541  0.03321  Biso   1.000  H
  N75      1.0000 0.85860  0.63162  0.09365  Biso   1.000  N
  H1436    1.0000 0.80050  0.62430  0.10871  Biso   1.000  H
  H1437    1.0000 0.81221  0.67021  0.10339  Biso   1.000  H
  C1086    1.0000 0.86039  0.55701  0.21760  Biso   1.000  C
  C1087    1.0000 0.87541  0.52140  0.16400  Biso   1.000  C
  C1088    1.0000 0.92819  0.55751  0.19271  Biso   1.000  C
  N76      1.0000 0.74079  0.78861  0.24484  Biso   1.000  N
  H1438    1.0000 0.71059  0.74629  0.22091  Biso   1.000  H
  H1439    1.0000 0.73631  0.77520  0.19910  Biso   1.000  H
  C1089    1.0000 0.76741  0.67899  0.31719  Biso   1.000  C
  C1090    1.0000 0.81460  0.63840  0.28289  Biso   1.000  C
  C1091    1.0000 0.83799  0.69721  0.31391  Biso   1.000  C
  H1440    1.0000 0.64479  0.82679  0.04141  Biso   1.000  H
  N77      1.0000 0.69312  0.73103  0.00550  Biso   1.000  N
  H1441    1.0000 0.68040  0.78981  0.00359  Biso   1.000  H
  H1442    1.0000 0.64661  0.76221  0.98830  Biso   1.000  H
  N78      1.0000 0.61113  0.85062  0.12443  Biso   1.000  N
  H1443    1.0000 0.57421  0.85561  0.08790  Biso   1.000  H
  H1444    1.0000 0.61901  0.86899  0.08039  Biso   1.000  H
  H1445    1.0000 0.47761  0.67099  0.04490  Biso   1.000  H
  H1446    1.0000 0.45240  0.63661  0.02780  Biso   1.000  H
  H1447    1.0000 0.48209  0.55620  0.07951  Biso   1.000  H
  H1448    1.0000 0.45479  0.56600  0.04970  Biso   1.000  H
  H1449    1.0000 0.53780  0.58350  0.99699  Biso   1.000  H
  H1450    1.0000 0.48989  0.58171  0.99769  Biso   1.000  H
  C1092    1.0000 0.88981  0.66000  0.08881  Biso   1.000  C
  C1093    1.0000 0.85561  0.59121  0.08300  Biso   1.000  C
  H1451    1.0000 0.86950  0.57959  0.23069  Biso   1.000  H
  H1452    1.0000 0.83121  0.55919  0.21459  Biso   1.000  H
  C1094    1.0000 0.87141  0.51531  0.23379  Biso   1.000  C
  C1095    1.0000 0.88650  0.48311  0.18290  Biso   1.000  C
  H1453    1.0000 0.84710  0.52030  0.15750  Biso   1.000  H
  H1454    1.0000 0.89229  0.52340  0.14520  Biso   1.000  H
  H1455    1.0000 0.93500  0.58281  0.20350  Biso   1.000  H
  H1456    1.0000 0.94310  0.55701  0.17281  Biso   1.000  H
  C1096    1.0000 0.94199  0.52301  0.21261  Biso   1.000  C
  C1097    1.0000 0.77350  0.81720  0.24169  Biso   1.000  C
  C1098    1.0000 0.72009  0.78091  0.27187  Biso   1.000  C
  H1457    1.0000 0.76069  0.70599  0.32500  Biso   1.000  H
  H1458    1.0000 0.74369  0.66800  0.30650  Biso   1.000  H
  C1099    1.0000 0.77959  0.65121  0.34511  Biso   1.000  C
  C1100    1.0000 0.82491  0.61131  0.31200  Biso   1.000  C
  H1459    1.0000 0.79229  0.62651  0.27101  Biso   1.000  H
  H1460    1.0000 0.83811  0.64019  0.26900  Biso   1.000  H
  H1461    1.0000 0.83151  0.72451  0.32120  Biso   1.000  H
  H1462    1.0000 0.86170  0.69930  0.30009  Biso   1.000  H
  C1101    1.0000 0.84901  0.67209  0.34159  Biso   1.000  C
  C1102    1.0000 0.72180  0.72950  0.03099  Biso   1.000  C
  C1103    1.0000 0.70029  0.70850  0.97910  Biso   1.000  C
  C1104    1.0000 0.65121  0.83620  0.13341  Biso   1.000  C
  C1105    1.0000 0.58891  0.86831  0.14729  Biso   1.000  C
  C1106    1.0000 0.87792  0.69841  0.07319  Biso   1.000  C
  H1463    1.0000 0.90170  0.66651  0.10931  Biso   1.000  H
  H1464    1.0000 0.91090  0.64721  0.07611  Biso   1.000  H
  O75      1.0000 0.83091  0.57149  0.09011  Biso   1.000  O
  C1107    1.0000 0.88951  0.57481  0.06210  Biso   1.000  C
  H1465    1.0000 0.85579  0.51280  0.25360  Biso   1.000  H
  C1108    1.0000 0.86179  0.47920  0.21280  Biso   1.000  C
  C1109    1.0000 0.91410  0.51650  0.24151  Biso   1.000  C
  H1466    1.0000 0.88079  0.45939  0.16950  Biso   1.000  H
  C1110    1.0000 0.93091  0.48281  0.19059  Biso   1.000  C
  H1467    1.0000 0.97100  0.52451  0.21820  Biso   1.000  H
  C1111    1.0000 0.76959  0.84429  0.21399  Biso   1.000  C
  H1468    1.0000 0.77469  0.83369  0.26080  Biso   1.000  H
  H1469    1.0000 0.79889  0.80229  0.24011  Biso   1.000  H
  O76      1.0000 0.69951  0.74993  0.27350  Biso   1.000  O
  C1112    1.0000 0.71941  0.81140  0.29890  Biso   1.000  C
  H1470    1.0000 0.75591  0.64891  0.35909  Biso   1.000  H
  C1113    1.0000 0.78870  0.60811  0.33190  Biso   1.000  C
  C1114    1.0000 0.81170  0.66890  0.36319  Biso   1.000  C
  H1471    1.0000 0.83231  0.58401  0.30449  Biso   1.000  H
  C1115    1.0000 0.85970  0.62869  0.33001  Biso   1.000  C
  H1472    1.0000 0.87201  0.68419  0.35310  Biso   1.000  H
  C1116    1.0000 0.75319  0.76260  0.03181  Biso   1.000  C
  H1473    1.0000 0.70689  0.73010  0.05089  Biso   1.000  H
  H1474    1.0000 0.73589  0.70349  0.02999  Biso   1.000  H
  O77      1.0000 0.73210  0.68804  0.97868  Biso   1.000  O
  C1117    1.0000 0.67111  0.70510  0.95251  Biso   1.000  C
  H1475    1.0000 0.65241  0.83399  0.15641  Biso   1.000  H
  H1476    1.0000 0.65510  0.80910  0.12469  Biso   1.000  H
  C1118    1.0000 0.68509  0.86299  0.12238  Biso   1.000  C
  O78      1.0000 0.60205  0.87323  0.17281  Biso   1.000  O
  C1119    1.0000 0.54521  0.88270  0.14079  Biso   1.000  C
  C1120    1.0000 0.85179  0.69727  0.04782  Biso   1.000  C
  C1121    1.0000 0.89241  0.73470  0.08312  Biso   1.000  C
  C1122    1.0000 0.87500  0.53320  0.05280  Biso   1.000  C
  C1123    1.0000 0.90071  0.59870  0.03351  Biso   1.000  C
  C1124    1.0000 0.92769  0.56830  0.08191  Biso   1.000  C
  H1477    1.0000 0.83300  0.47881  0.20769  Biso   1.000  H
  H1478    1.0000 0.86860  0.45399  0.22361  Biso   1.000  H
  H1479    1.0000 0.91881  0.53831  0.25661  Biso   1.000  H
  H1480    1.0000 0.92159  0.49111  0.25181  Biso   1.000  H
  H1481    1.0000 0.93769  0.45811  0.20210  Biso   1.000  H
  H1482    1.0000 0.94671  0.48341  0.17111  Biso   1.000  H
  C1125    1.0000 0.80418  0.85681  0.19842  Biso   1.000  C
  C1126    1.0000 0.73291  0.85940  0.20383  Biso   1.000  C
  C1127    1.0000 0.70779  0.85340  0.28804  Biso   1.000  C
  C1128    1.0000 0.68500  0.79671  0.32099  Biso   1.000  C
  C1129    1.0000 0.75889  0.80970  0.31754  Biso   1.000  C
  H1483    1.0000 0.76579  0.59840  0.31950  Biso   1.000  H
  H1484    1.0000 0.79351  0.58921  0.34921  Biso   1.000  H
  H1485    1.0000 0.80379  0.69569  0.37069  Biso   1.000  H
  H1486    1.0000 0.81789  0.65190  0.38151  Biso   1.000  H
  H1487    1.0000 0.86589  0.61149  0.34809  Biso   1.000  H
  H1488    1.0000 0.88360  0.62971  0.31649  Biso   1.000  H
  N79      1.0000 0.78079  0.76287  0.00520  Biso   1.000  N
  H1489    1.0000 0.76899  0.75991  0.05120  Biso   1.000  H
  H1490    1.0000 0.73939  0.78870  0.03269  Biso   1.000  H
  C1130    1.0000 0.68491  0.67090  0.93161  Biso   1.000  C
  C1131    1.0000 0.62860  0.69291  0.96486  Biso   1.000  C
  C1132    1.0000 0.66779  0.74270  0.93240  Biso   1.000  C
  N80      1.0000 0.68404  0.90304  0.13681  Biso   1.000  N
  H1491    1.0000 0.68350  0.86589  0.09950  Biso   1.000  H
  H1492    1.0000 0.71089  0.85009  0.12739  Biso   1.000  H
  C1133    1.0000 0.51791  0.84749  0.12970  Biso   1.000  C
  C1134    1.0000 0.52821  0.89689  0.17190  Biso   1.000  C
  C1135    1.0000 0.54309  0.91699  0.11600  Biso   1.000  C
  C1136    1.0000 0.83900  0.73249  0.03370  Biso   1.000  C
  H1493    1.0000 0.84271  0.67230  0.04010  Biso   1.000  H
  C1137    1.0000 0.88130  0.76965  0.06795  Biso   1.000  C
  H1494    1.0000 0.91000  0.73589  0.10041  Biso   1.000  H
  H1495    1.0000 0.87180  0.51659  0.07170  Biso   1.000  H
  H1496    1.0000 0.84871  0.53541  0.04250  Biso   1.000  H
  C1138    1.0000 0.90481  0.51229  0.03041  Biso   1.000  C
  C1139    1.0000 0.93211  0.57809  0.01340  Biso   1.000  C
  H1497    1.0000 0.87640  0.60330  0.02081  Biso   1.000  H
  H1498    1.0000 0.91099  0.62499  0.04020  Biso   1.000  H
  H1499    1.0000 0.92079  0.55259  0.10069  Biso   1.000  H
  H1500    1.0000 0.93811  0.59449  0.08881  Biso   1.000  H
  C1140    1.0000 0.95899  0.54679  0.06390  Biso   1.000  C
  C1141    1.0000 0.80241  0.88321  0.17330  Biso   1.000  C
  H1501    1.0000 0.82939  0.84710  0.20511  Biso   1.000  H
  C1142    1.0000 0.73120  0.88620  0.17917  Biso   1.000  C
  H1502    1.0000 0.70901  0.85131  0.21389  Biso   1.000  H
  H1503    1.0000 0.68180  0.85259  0.27721  Biso   1.000  H
  H1504    1.0000 0.72810  0.86371  0.27329  Biso   1.000  H
  C1143    1.0000 0.70519  0.88091  0.31619  Biso   1.000  C
  C1144    1.0000 0.68231  0.82461  0.34909  Biso   1.000  C
  H1505    1.0000 0.69049  0.76911  0.32810  Biso   1.000  H
  H1506    1.0000 0.65931  0.79671  0.30960  Biso   1.000  H
  H1507    1.0000 0.76391  0.78231  0.32521  Biso   1.000  H
  H1508    1.0000 0.78159  0.81801  0.30431  Biso   1.000  H
  C1145    1.0000 0.75370  0.83951  0.34581  Biso   1.000  C
  C1146    1.0000 0.81090  0.73061  0.00585  Biso   1.000  C
  C1147    1.0000 0.77269  0.78730  0.98059  Biso   1.000  C
  H1509    1.0000 0.71191  0.67690  0.92340  Biso   1.000  H
  H1510    1.0000 0.68649  0.64599  0.94391  Biso   1.000  H
  C1148    1.0000 0.65540  0.66510  0.90411  Biso   1.000  C
  C1149    1.0000 0.59981  0.68751  0.93671  Biso   1.000  C
  H1511    1.0000 0.61821  0.71400  0.97891  Biso   1.000  H
  H1512    1.0000 0.63040  0.66770  0.97679  Biso   1.000  H
  H1513    1.0000 0.69420  0.74901  0.92329  Biso   1.000  H
  H1514    1.0000 0.65961  0.76549  0.94559  Biso   1.000  H
  C1150    1.0000 0.63780  0.73739  0.90639  Biso   1.000  C
  C1151    1.0000 0.69121  0.90409  0.16992  Biso   1.000  C
  C1152    1.0000 0.67129  0.93471  0.11761  Biso   1.000  C
  H1515    1.0000 0.51830  0.82580  0.14541  Biso   1.000  H
  H1516    1.0000 0.52809  0.83670  0.10980  Biso   1.000  H
  C1153    1.0000 0.47501  0.86239  0.12530  Biso   1.000  C
  C1154    1.0000 0.48571  0.91099  0.17011  Biso   1.000  C
  H1517    1.0000 0.54509  0.91890  0.17989  Biso   1.000  H
  H1518    1.0000 0.52979  0.87461  0.18710  Biso   1.000  H
  H1519    1.0000 0.55259  0.90720  0.09561  Biso   1.000  H
  H1520    1.0000 0.56020  0.93969  0.12250  Biso   1.000  H
  C1155    1.0000 0.49909  0.93061  0.11360  Biso   1.000  C
  C1156    1.0000 0.85439  0.76941  0.04420  Biso   1.000  C
  C1157    1.0000 0.90080  0.81021  0.07834  Biso   1.000  C
  H1521    1.0000 0.89459  0.48580  0.02321  Biso   1.000  H
  C1158    1.0000 0.91729  0.53759  0.00401  Biso   1.000  C
  C1159    1.0000 0.94549  0.50781  0.05350  Biso   1.000  C
  C1160    1.0000 0.96891  0.57421  0.03409  Biso   1.000  C
  H1522    1.0000 0.93829  0.59461  0.99459  Biso   1.000  H
  H1523    1.0000 0.98351  0.54380  0.07699  Biso   1.000  H
  C1161    1.0000 0.76591  0.89740  0.16398  Biso   1.000  C
  C1162    1.0000 0.84139  0.89599  0.15780  Biso   1.000  C
  H1524    1.0000 0.69880  0.90851  0.30890  Biso   1.000  H
  C1163    1.0000 0.67209  0.86711  0.33809  Biso   1.000  C
  C1164    1.0000 0.74539  0.88190  0.33390  Biso   1.000  C
  H1525    1.0000 0.66041  0.81499  0.36301  Biso   1.000  H
  C1165    1.0000 0.72090  0.82631  0.36799  Biso   1.000  C
  H1526    1.0000 0.77941  0.84011  0.35769  Biso   1.000  H
  H1527    1.0000 0.79689  0.70459  0.00611  Biso   1.000  H
  H1528    1.0000 0.82700  0.73189  0.98651  Biso   1.000  H
  O79      1.0000 0.74154  0.80704  0.98108  Biso   1.000  O
  C1166    1.0000 0.80089  0.79280  0.95381  Biso   1.000  C
  H1529    1.0000 0.66489  0.64249  0.89069  Biso   1.000  H
  C1167    1.0000 0.61379  0.65510  0.91690  Biso   1.000  C
  C1168    1.0000 0.65450  0.70411  0.88430  Biso   1.000  C
  H1530    1.0000 0.57269  0.68049  0.94480  Biso   1.000  H
  C1169    1.0000 0.59709  0.72690  0.91921  Biso   1.000  C
  H1531    1.0000 0.63580  0.76299  0.89451  Biso   1.000  H
  H1532    1.0000 0.69010  0.93220  0.17710  Biso   1.000  H
  H1533    1.0000 0.66961  0.88930  0.18059  Biso   1.000  H
  O80      1.0000 0.65811  0.92778  0.09258  Biso   1.000  O
  C1170    1.0000 0.67469  0.97870  0.12961  Biso   1.000  C
  H1534    1.0000 0.45751  0.84020  0.11791  Biso   1.000  H
  C1171    1.0000 0.46059  0.87801  0.15860  Biso   1.000  C
  C1172    1.0000 0.47430  0.89671  0.10230  Biso   1.000  C
  H1535    1.0000 0.47630  0.92010  0.19101  Biso   1.000  H
  C1173    1.0000 0.48601  0.94391  0.14869  Biso   1.000  C
  H1536    1.0000 0.49679  0.95379  0.09911  Biso   1.000  H
  H1537    1.0000 0.84611  0.79369  0.03479  Biso   1.000  H
  N81      1.0000 0.89620  0.81651  0.11234  Biso   1.000  N
  H1538    1.0000 0.88799  0.83249  0.06699  Biso   1.000  H
  H1539    1.0000 0.92951  0.81000  0.07289  Biso   1.000  H
  N82      1.0000 0.87049  0.84071  0.08161  Biso   1.000  N
  H1540    1.0000 0.93871  0.52370  0.99250  Biso   1.000  H
  H1541    1.0000 0.89441  0.54091  0.98970  Biso   1.000  H
  H1542    1.0000 0.96720  0.49440  0.04180  Biso   1.000  H
  H1543    1.0000 0.93880  0.49111  0.07179  Biso   1.000  H
  H1544    1.0000 0.99101  0.56211  0.02209  Biso   1.000  H
  H1545    1.0000 0.97751  0.60100  0.04120  Biso   1.000  H
  H1546    1.0000 0.76430  0.91520  0.14681  Biso   1.000  H
  N83      1.0000 0.84241  0.88999  0.12511  Biso   1.000  N
  H1547    1.0000 0.86371  0.88091  0.16740  Biso   1.000  H
  H1548    1.0000 0.84599  0.92470  0.16209  Biso   1.000  H
  N84      1.0000 0.86819  0.86200  0.15100  Biso   1.000  N
  H1549    1.0000 0.67021  0.88530  0.35620  Biso   1.000  H
  H1550    1.0000 0.64611  0.86720  0.32710  Biso   1.000  H
  H1551    1.0000 0.74390  0.90080  0.35149  Biso   1.000  H
  H1552    1.0000 0.76711  0.89059  0.31971  Biso   1.000  H
  H1553    1.0000 0.72720  0.79961  0.37680  Biso   1.000  H
  H1554    1.0000 0.71830  0.84549  0.38540  Biso   1.000  H
  C1174    1.0000 0.84399  0.80391  0.96400  Biso   1.000  C
  C1175    1.0000 0.80119  0.75540  0.93091  Biso   1.000  C
  C1176    1.0000 0.78440  0.82750  0.93380  Biso   1.000  C
  H1555    1.0000 0.61501  0.63001  0.92900  Biso   1.000  H
  H1556    1.0000 0.59491  0.65109  0.89940  Biso   1.000  H
  H1557    1.0000 0.68159  0.71110  0.87701  Biso   1.000  H
  H1558    1.0000 0.63691  0.70080  0.86589  Biso   1.000  H
  H1559    1.0000 0.58780  0.74829  0.93340  Biso   1.000  H
  H1560    1.0000 0.57771  0.72451  0.90190  Biso   1.000  H
  C1177    1.0000 0.64049  0.98781  0.15300  Biso   1.000  C
  C1178    1.0000 0.71409  0.98990  0.14310  Biso   1.000  C
  C1179    1.0000 0.66949  0.00550  0.10029  Biso   1.000  C
  H1561    1.0000 0.46160  0.85570  0.17370  Biso   1.000  H
  H1562    1.0000 0.43260  0.88721  0.15710  Biso   1.000  H
  H1563    1.0000 0.44649  0.90579  0.09929  Biso   1.000  H
  H1564    1.0000 0.48460  0.88739  0.08191  Biso   1.000  H
  H1565    1.0000 0.45900  0.95591  0.14790  Biso   1.000  H
  H1566    1.0000 0.50470  0.96449  0.15641  Biso   1.000  H
  C1180    1.0000 0.85630  0.81550  0.12420  Biso   1.000  C
  C1181    1.0000 0.92709  0.82930  0.13250  Biso   1.000  C
  C1182    1.0000 0.83981  0.83360  0.10199  Biso   1.000  C
  C1183    1.0000 0.87981  0.88049  0.07270  Biso   1.000  C
  C1184    1.0000 0.82870  0.85020  0.11430  Biso   1.000  C
  C1185    1.0000 0.86030  0.91311  0.10211  Biso   1.000  C
  C1186    1.0000 0.85280  0.82401  0.13590  Biso   1.000  C
  C1187    1.0000 0.91159  0.86589  0.15200  Biso   1.000  C
  H1567    1.0000 0.85519  0.78219  0.97691  Biso   1.000  H
  H1568    1.0000 0.84339  0.82861  0.97670  Biso   1.000  H
  C1188    1.0000 0.87010  0.81039  0.93559  Biso   1.000  C
  C1189    1.0000 0.82810  0.76439  0.90390  Biso   1.000  C
  H1569    1.0000 0.77380  0.74999  0.92340  Biso   1.000  H
  H1570    1.0000 0.81090  0.73141  0.94209  Biso   1.000  H
  H1571    1.0000 0.78180  0.85170  0.94689  Biso   1.000  H
  H1572    1.0000 0.75749  0.82039  0.92611  Biso   1.000  H
  C1190    1.0000 0.81099  0.83640  0.90679  Biso   1.000  C
  H1573    1.0000 0.61430  0.98079  0.14359  Biso   1.000  H
  H1574    1.0000 0.64399  0.97180  0.17220  Biso   1.000  H
  C1191    1.0000 0.64201  0.03399  0.16090  Biso   1.000  C
  H1575    1.0000 0.72030  0.97171  0.16060  Biso   1.000  H
  H1576    1.0000 0.73500  0.98611  0.12700  Biso   1.000  H
  C1192    1.0000 0.71600  0.03321  0.15480  Biso   1.000  C
  H1577    1.0000 0.69061  0.99931  0.08489  Biso   1.000  H
  H1578    1.0000 0.64321  0.00009  0.09051  Biso   1.000  H
  C1193    1.0000 0.67221  0.04970  0.11001  Biso   1.000  C
  H1579    1.0000 0.84381  0.79020  0.11749  Biso   1.000  H
  H1580    1.0000 0.85770  0.81520  0.14720  Biso   1.000  H
  H1581    1.0000 0.87401  0.80340  0.13590  Biso   1.000  H
  O81      1.0000 0.91890  0.83930  0.15911  Biso   1.000  O
  C1194    1.0000 0.97100  0.82559  0.12180  Biso   1.000  C
  H1582    1.0000 0.82670  0.85041  0.09130  Biso   1.000  H
  H1583    1.0000 0.82219  0.85731  0.10239  Biso   1.000  H
  H1584    1.0000 0.82389  0.81090  0.09400  Biso   1.000  H
  O82      1.0000 0.85570  0.90651  0.08021  Biso   1.000  O
  C1195    1.0000 0.91410  0.89089  0.05040  Biso   1.000  C
  H1585    1.0000 0.80161  0.84510  0.12271  Biso   1.000  H
  O83      1.0000 0.86711  0.90021  0.07660  Biso   1.000  O
  C1196    1.0000 0.87081  0.95651  0.11010  Biso   1.000  C
  H1586    1.0000 0.82980  0.81361  0.14790  Biso   1.000  H
  O84      1.0000 0.92661  0.84199  0.14541  Biso   1.000  O
  C1197    1.0000 0.92801  0.90749  0.16130  Biso   1.000  C
  H1587    1.0000 0.89791  0.81681  0.94249  Biso   1.000  H
  C1198    1.0000 0.87090  0.77550  0.91581  Biso   1.000  C
  C1199    1.0000 0.85289  0.84650  0.91620  Biso   1.000  C
  H1588    1.0000 0.82989  0.74020  0.89020  Biso   1.000  H
  C1200    1.0000 0.81149  0.79949  0.88491  Biso   1.000  C
  H1589    1.0000 0.79961  0.85961  0.89509  Biso   1.000  H
  H1590    1.0000 0.61940  0.04119  0.17509  Biso   1.000  H
  C1201    1.0000 0.68099  0.04110  0.17680  Biso   1.000  C
  C1202    1.0000 0.63900  0.05801  0.13049  Biso   1.000  C
  H1591    1.0000 0.74211  0.03910  0.16510  Biso   1.000  H
  C1203    1.0000 0.71039  0.05851  0.12411  Biso   1.000  C
  H1592    1.0000 0.66929  0.06661  0.09090  Biso   1.000  H
  C1204    1.0000 0.98139  0.78530  0.10819  Biso   1.000  C
  C1205    1.0000 0.98121  0.86039  0.09850  Biso   1.000  C
  C1206    1.0000 0.99689  0.82900  0.15091  Biso   1.000  C
  C1207    1.0000 0.92401  0.90140  0.01750  Biso   1.000  C
  H1593    1.0000 0.91060  0.90089  0.03831  Biso   1.000  H
  C1208    1.0000 0.95540  0.88709  0.06441  Biso   1.000  C
  C1209    1.0000 0.90959  0.86711  0.01899  Biso   1.000  C
  C1210    1.0000 0.90881  0.93611  0.04460  Biso   1.000  C
  C1211    1.0000 0.83611  0.98061  0.12250  Biso   1.000  C
  C1212    1.0000 0.90699  0.95839  0.13371  Biso   1.000  C
  C1213    1.0000 0.88449  0.97640  0.07960  Biso   1.000  C
  H1594    1.0000 0.84970  0.96950  0.09130  Biso   1.000  H
  C1214    1.0000 0.91840  0.94391  0.14140  Biso   1.000  C
  C1215    1.0000 0.91571  0.91481  0.19630  Biso   1.000  C
  C1216    1.0000 0.97330  0.90239  0.15710  Biso   1.000  C
  H1595    1.0000 0.88850  0.78070  0.89780  Biso   1.000  H
  H1596    1.0000 0.88211  0.75271  0.92760  Biso   1.000  H
  H1597    1.0000 0.86950  0.85110  0.89749  Biso   1.000  H
  H1598    1.0000 0.85301  0.87111  0.92900  Biso   1.000  H
  H1599    1.0000 0.82861  0.80459  0.86650  Biso   1.000  H
  H1600    1.0000 0.78410  0.79339  0.87750  Biso   1.000  H
  H1601    1.0000 0.68219  0.06909  0.18421  Biso   1.000  H
  H1602    1.0000 0.68320  0.02339  0.19520  Biso   1.000  H
  H1603    1.0000 0.63849  0.08689  0.13541  Biso   1.000  H
  H1604    1.0000 0.61370  0.05120  0.11980  Biso   1.000  H
  H1605    1.0000 0.73210  0.05209  0.10931  Biso   1.000  H
  H1606    1.0000 0.71191  0.08731  0.12910  Biso   1.000  H
  H1607    1.0000 0.96380  0.78010  0.09011  Biso   1.000  H
  H1608    1.0000 0.97601  0.76451  0.12399  Biso   1.000  H
  C1217    1.0000 0.02449  0.78219  0.09789  Biso   1.000  C
  H1609    1.0000 0.96541  0.85761  0.07920  Biso   1.000  H
  H1610    1.0000 0.97500  0.88659  0.10810  Biso   1.000  H
  C1218    1.0000 0.02820  0.85710  0.09090  Biso   1.000  C
  H1611    1.0000 0.99161  0.85489  0.16130  Biso   1.000  H
  H1612    1.0000 0.98981  0.80740  0.16570  Biso   1.000  H
  C1219    1.0000 0.04770  0.82550  0.14149  Biso   1.000  C
  Cl46     1.0000 0.96580  0.92900  0.01999  Biso   1.000  Cl
  Cl47     1.0000 0.93730  0.84931  0.00580  Biso   1.000  Cl
  Cl48     1.0000 0.88969  0.91741  0.98902  Biso   1.000  Cl
  C1220    1.0000 0.94391  0.88360  0.99660  Biso   1.000  C
  C1221    1.0000 0.93769  0.92670  0.99310  Biso   1.000  C
  H1613    1.0000 0.95699  0.90451  0.08300  Biso   1.000  H
  H1614    1.0000 0.95920  0.85920  0.07149  Biso   1.000  H
  C1222    1.0000 0.98949  0.89809  0.04199  Biso   1.000  C
  H1615    1.0000 0.91299  0.83811  0.02270  Biso   1.000  H
  H1616    1.0000 0.88291  0.87171  0.00969  Biso   1.000  H
  H1617    1.0000 0.88151  0.94149  0.03670  Biso   1.000  H
  H1618    1.0000 0.91239  0.95089  0.06441  Biso   1.000  H
  C1223    1.0000 0.94370  0.95161  0.01771  Biso   1.000  C
  H1619    1.0000 0.81421  0.97960  0.10691  Biso   1.000  H
  H1620    1.0000 0.82619  0.96759  0.14170  Biso   1.000  H
  C1224    1.0000 0.83969  0.99761  0.09270  Biso   1.000  C
  C1225    1.0000 0.84510  0.02491  0.12991  Biso   1.000  C
  H1621    1.0000 0.89949  0.94621  0.15389  Biso   1.000  H
  H1622    1.0000 0.93040  0.94399  0.12520  Biso   1.000  H
  H1623    1.0000 0.92721  0.93859  0.11970  Biso   1.000  H
  H1624    1.0000 0.88901  0.94770  0.14100  Biso   1.000  H
  C1226    1.0000 0.93820  0.98321  0.15270  Biso   1.000  C
  C1227    1.0000 0.91660  0.00469  0.13781  Biso   1.000  C
  H1625    1.0000 0.90839  0.96239  0.07140  Biso   1.000  H
  H1626    1.0000 0.86299  0.97431  0.06380  Biso   1.000  H
  C1228    1.0000 0.89561  0.02569  0.08610  Biso   1.000  C
  Cl49     1.0000 0.88031  0.03289  0.08380  Biso   1.000  Cl
  C1229    1.0000 0.94621  0.89629  0.21161  Biso   1.000  C
  Cl50     1.0000 0.90209  0.91520  0.22706  Biso   1.000  Cl
  C1230    1.0000 0.93820  0.95430  0.20781  Biso   1.000  C
  H1627    1.0000 0.88641  0.91831  0.19800  Biso   1.000  H
  H1628    1.0000 0.92359  0.89169  0.20930  Biso   1.000  H
  H1629    1.0000 0.98220  0.87700  0.16671  Biso   1.000  H
  H1630    1.0000 0.97999  0.90170  0.13471  Biso   1.000  H
  C1231    1.0000 0.99680  0.94211  0.17479  Biso   1.000  C
  H1631    1.0000 0.03029  0.75629  0.08720  Biso   1.000  H
  C1232    1.0000 0.03531  0.81890  0.07729  Biso   1.000  C
  C1233    1.0000 0.04591  0.78530  0.13271  Biso   1.000  C
  H1632    1.0000 0.03790  0.87951  0.07750  Biso   1.000  H
  C1234    1.0000 0.05030  0.85349  0.11901  Biso   1.000  C
  H1633    1.0000 0.06589  0.83061  0.15951  Biso   1.000  H
  C1235    1.0000 0.98190  0.87751  0.00990  Biso   1.000  C
  H1634    1.0000 0.94241  0.87019  0.97591  Biso   1.000  H
  H1635    1.0000 0.90991  0.93070  0.98590  Biso   1.000  H
  H1636    1.0000 0.95540  0.93590  0.97600  Biso   1.000  H
  C1236    1.0000 0.97581  0.94540  0.03801  Biso   1.000  C
  H1637    1.0000 0.01691  0.89420  0.05071  Biso   1.000  H
  H1638    1.0000 0.94041  0.98041  0.01191  Biso   1.000  H
  C1237    1.0000 0.85779  0.03931  0.09449  Biso   1.000  C
  H1639    1.0000 0.83790  0.02900  0.07951  Biso   1.000  H
  Cl51     1.0000 0.82559  0.00881  0.13080  Biso   1.000  Cl
  Cl52     1.0000 0.80331  0.00499  0.06681  Biso   1.000  Cl
  H1640    1.0000 0.82210  0.03991  0.13900  Biso   1.000  H
  C1238    1.0000 0.88390  0.02500  0.15070  Biso   1.000  C
  C1239    1.0000 0.92909  0.98719  0.18861  Biso   1.000  C
  C1240    1.0000 0.98569  0.96971  0.15149  Biso   1.000  C
  H1641    1.0000 0.94029  0.00780  0.15179  Biso   1.000  H
  H1642    1.0000 0.93151  0.00729  0.14000  Biso   1.000  H
  C1241    1.0000 0.92551  0.02321  0.10719  Biso   1.000  C
  H1643    1.0000 0.90499  0.03901  0.06651  Biso   1.000  H
  H1644    1.0000 0.93901  0.88151  0.19220  Biso   1.000  H
  Cl53     1.0000 0.97076  0.86302  0.23556  Biso   1.000  Cl
  Cl54     1.0000 0.97930  0.93530  0.20040  Biso   1.000  Cl
  H1645    1.0000 0.93199  0.96030  0.23020  Biso   1.000  H
  C1242    1.0000 0.98029  0.94399  0.20380  Biso   1.000  C
  H1646    1.0000 0.02640  0.93829  0.17570  Biso   1.000  H
  H1647    1.0000 0.01980  0.81720  0.05770  Biso   1.000  H
  H1648    1.0000 0.06389  0.81711  0.07170  Biso   1.000  H
  H1649    1.0000 0.07321  0.77380  0.13180  Biso   1.000  H
  H1650    1.0000 0.03020  0.76989  0.14811  Biso   1.000  H
  H1651    1.0000 0.04639  0.87921  0.12979  Biso   1.000  H
  H1652    1.0000 0.07859  0.85310  0.11229  Biso   1.000  H
  H1653    1.0000 0.98599  0.84841  0.01249  Biso   1.000  H
  H1654    1.0000 0.00230  0.88721  0.99499  Biso   1.000  H
  H1655    1.0000 0.99901  0.96090  0.03029  Biso   1.000  H
  H1656    1.0000 0.96861  0.95609  0.05870  Biso   1.000  H
  H1657    1.0000 0.85731  0.06879  0.09349  Biso   1.000  H
  H1658    1.0000 0.87739  0.01269  0.17111  Biso   1.000  H
  H1659    1.0000 0.89181  0.05299  0.15470  Biso   1.000  H
  H1660    1.0000 0.90021  0.99319  0.19101  Biso   1.000  H
  H1661    1.0000 0.94391  0.01069  0.19651  Biso   1.000  H
  H1662    1.0000 0.99131  0.95779  0.13080  Biso   1.000  H
  H1663    1.0000 0.99749  0.00609  0.15361  Biso   1.000  H
  H1664    1.0000 0.00251  0.99391  0.15361  Biso   1.000  H
  H1665    1.0000 0.94761  0.00789  0.09759  Biso   1.000  H
  H1666    1.0000 0.93551  0.05051  0.11111  Biso   1.000  H
  H1667    1.0000 0.98450  0.91771  0.21380  Biso   1.000  H
  H1668    1.0000 0.99609  0.96371  0.21590  Biso   1.000  H
  C1243    1.0000 0.45969  0.41620  0.24871  Biso   1.000  C
  C1244    1.0000 0.42149  0.43260  0.23640  Biso   1.000  C
  C1245    1.0000 0.48810  0.39861  0.22531  Biso   1.000  C
  H1669    1.0000 0.47379  0.43789  0.25989  Biso   1.000  H
  H1670    1.0000 0.45321  0.39529  0.26420  Biso   1.000  H
  C1246    1.0000 0.39941  0.40231  0.21900  Biso   1.000  C
  H1671    1.0000 0.40479  0.44141  0.25439  Biso   1.000  H
  C1247    1.0000 0.43179  0.46761  0.21799  Biso   1.000  C
  C1248    1.0000 0.46519  0.37331  0.20469  Biso   1.000  C
  H1672    1.0000 0.51241  0.38591  0.23449  Biso   1.000  H
  C1249    1.0000 0.49730  0.43989  0.20250  Biso   1.000  C
  C1250    1.0000 0.42770  0.38881  0.19089  Biso   1.000  C
  H1673    1.0000 0.39311  0.37931  0.23251  Biso   1.000  H
  H1674    1.0000 0.37409  0.41360  0.21091  Biso   1.000  H
  C1251    1.0000 0.45969  0.45691  0.19001  Biso   1.000  C
  H1675    1.0000 0.40700  0.48000  0.21000  Biso   1.000  H
  H1676    1.0000 0.44529  0.48741  0.23160  Biso   1.000  H
  H1677    1.0000 0.48299  0.36530  0.18730  Biso   1.000  H
  H1678    1.0000 0.45850  0.34861  0.21641  Biso   1.000  H
  H1679    1.0000 0.51501  0.43221  0.18500  Biso   1.000  H
  H1680    1.0000 0.51131  0.46041  0.21501  Biso   1.000  H
  C1252    1.0000 0.40799  0.35551  0.16950  Biso   1.000  C
  C1253    1.0000 0.43819  0.42519  0.17069  Biso   1.000  C
  H1681    1.0000 0.46531  0.48111  0.17710  Biso   1.000  H
  N85      1.0000 0.37035  0.35796  0.15829  Biso   1.000  N
  O85      1.0000 0.42797  0.32629  0.16363  Biso   1.000  O
  H1682    1.0000 0.41339  0.43669  0.16170  Biso   1.000  H
  H1683    1.0000 0.45551  0.41659  0.15319  Biso   1.000  H
  C1254    1.0000 0.34431  0.39341  0.15951  Biso   1.000  C
  C1255    1.0000 0.35470  0.32411  0.14049  Biso   1.000  C
  C1256    1.0000 0.30440  0.38520  0.17484  Biso   1.000  C
  H1684    1.0000 0.35819  0.41489  0.17111  Biso   1.000  H
  H1685    1.0000 0.33959  0.40309  0.13800  Biso   1.000  H
  H1686    1.0000 0.37149  0.30040  0.14489  Biso   1.000  H
  H1687    1.0000 0.32731  0.31820  0.14790  Biso   1.000  H
  C1257    1.0000 0.35351  0.33089  0.10549  Biso   1.000  C
  C1258    1.0000 0.30150  0.36121  0.20150  Biso   1.000  C
  C1259    1.0000 0.26969  0.40171  0.16186  Biso   1.000  C
  N86      1.0000 0.39263  0.33585  0.09086  Biso   1.000  N
  H1688    1.0000 0.33729  0.35500  0.10130  Biso   1.000  H
  H1689    1.0000 0.33991  0.30789  0.09570  Biso   1.000  H
  C1260    1.0000 0.26440  0.35389  0.21476  Biso   1.000  C
  H1690    1.0000 0.32489  0.34989  0.21049  Biso   1.000  H
  C1261    1.0000 0.23340  0.39529  0.17621  Biso   1.000  C
  H1691    1.0000 0.27110  0.41719  0.14340  Biso   1.000  H
  C1262    1.0000 0.41790  0.30061  0.09195  Biso   1.000  C
  C1263    1.0000 0.40470  0.37370  0.08375  Biso   1.000  C
  C1264    1.0000 0.26249  0.32901  0.24412  Biso   1.000  C
  C1265    1.0000 0.23050  0.37179  0.20224  Biso   1.000  C
  C1266    1.0000 0.19711  0.41471  0.16149  Biso   1.000  C
  C1267    1.0000 0.39861  0.26381  0.07666  Biso   1.000  C
  H1692    1.0000 0.44341  0.30649  0.08121  Biso   1.000  H
  H1693    1.0000 0.42421  0.29430  0.11400  Biso   1.000  H
  O86      1.0000 0.38251  0.40171  0.08999  Biso   1.000  O
  C1268    1.0000 0.44470  0.38119  0.06616  Biso   1.000  C
  N87      1.0000 0.22961  0.29947  0.24323  Biso   1.000  N
  H1694    1.0000 0.25870  0.34690  0.26229  Biso   1.000  H
  H1695    1.0000 0.28821  0.31479  0.24689  Biso   1.000  H
  H1696    1.0000 0.20529  0.36781  0.21180  Biso   1.000  H
  N88      1.0000 0.16360  0.39021  0.16107  Biso   1.000  N
  H1697    1.0000 0.20371  0.42250  0.13979  Biso   1.000  H
  H1698    1.0000 0.19060  0.43941  0.17309  Biso   1.000  H
  C1269    1.0000 0.40539  0.22650  0.08997  Biso   1.000  C
  C1270    1.0000 0.37570  0.26790  0.05015  Biso   1.000  C
  C1271    1.0000 0.48150  0.37310  0.08699  Biso   1.000  C
  C1272    1.0000 0.44771  0.35679  0.03533  Biso   1.000  C
  C1273    1.0000 0.44529  0.42570  0.05760  Biso   1.000  C
  C1274    1.0000 0.23089  0.27151  0.21664  Biso   1.000  C
  C1275    1.0000 0.20359  0.29090  0.26651  Biso   1.000  C
  C1276    1.0000 0.16849  0.35180  0.14489  Biso   1.000  C
  C1277    1.0000 0.12551  0.40160  0.16719  Biso   1.000  C
  C1278    1.0000 0.38905  0.19311  0.07627  Biso   1.000  C
  H1699    1.0000 0.42110  0.22420  0.10831  Biso   1.000  H
  C1279    1.0000 0.35891  0.23331  0.03649  Biso   1.000  C
  H1700    1.0000 0.37119  0.29341  0.04120  Biso   1.000  H
  H1701    1.0000 0.48209  0.34460  0.09300  Biso   1.000  H
  H1702    1.0000 0.47961  0.38929  0.10619  Biso   1.000  H
  C1280    1.0000 0.52051  0.38379  0.06951  Biso   1.000  C
  C1281    1.0000 0.48750  0.36671  0.01894  Biso   1.000  C
  H1703    1.0000 0.42510  0.36360  0.02151  Biso   1.000  H
  H1704    1.0000 0.44649  0.32791  0.04001  Biso   1.000  H
  H1705    1.0000 0.42161  0.43221  0.04481  Biso   1.000  H
  H1706    1.0000 0.44419  0.44201  0.07690  Biso   1.000  H
  C1282    1.0000 0.48451  0.43559  0.03889  Biso   1.000  C
  C1283    1.0000 0.26330  0.24000  0.21888  Biso   1.000  C
  H1707    1.0000 0.20470  0.25801  0.21489  Biso   1.000  H
  H1708    1.0000 0.23501  0.28711  0.19730  Biso   1.000  H
  O87      1.0000 0.18346  0.26052  0.26520  Biso   1.000  O
  C1284    1.0000 0.19741  0.31871  0.29461  Biso   1.000  C
  H1709    1.0000 0.19009  0.33651  0.15531  Biso   1.000  H
  H1710    1.0000 0.14361  0.33621  0.14711  Biso   1.000  H
  C1285    1.0000 0.17811  0.35569  0.11150  Biso   1.000  C
  O88      1.0000 0.09836  0.37740  0.16053  Biso   1.000  O
  C1286    1.0000 0.11751  0.44240  0.18530  Biso   1.000  C
  C1287    1.0000 0.39741  0.15129  0.09130  Biso   1.000  C
  C1288    1.0000 0.36641  0.19660  0.05038  Biso   1.000  C
  C1289    1.0000 0.33469  0.23540  0.00618  Biso   1.000  C
  H1711    1.0000 0.54410  0.37809  0.08300  Biso   1.000  H
  C1290    1.0000 0.52260  0.35760  0.03919  Biso   1.000  C
  C1291    1.0000 0.52000  0.42710  0.06049  Biso   1.000  C
  C1292    1.0000 0.48610  0.41121  0.01000  Biso   1.000  C
  H1712    1.0000 0.48959  0.35040  0.99951  Biso   1.000  H
  H1713    1.0000 0.48451  0.46459  0.03321  Biso   1.000  H
  N89      1.0000 0.25921  0.21139  0.24484  Biso   1.000  N
  H1714    1.0000 0.28941  0.25371  0.22091  Biso   1.000  H
  H1715    1.0000 0.26369  0.22480  0.19910  Biso   1.000  H
  C1293    1.0000 0.23259  0.32101  0.31719  Biso   1.000  C
  C1294    1.0000 0.18540  0.36160  0.28289  Biso   1.000  C
  C1295    1.0000 0.16201  0.30279  0.31391  Biso   1.000  C
  N90      1.0000 0.14140  0.36838  0.09365  Biso   1.000  N
  H1716    1.0000 0.19950  0.37570  0.10871  Biso   1.000  H
  H1717    1.0000 0.18779  0.32979  0.10339  Biso   1.000  H
  C1296    1.0000 0.13961  0.44299  0.21760  Biso   1.000  C
  C1297    1.0000 0.12459  0.47860  0.16400  Biso   1.000  C
  C1298    1.0000 0.07181  0.44249  0.19271  Biso   1.000  C
  N91      1.0000 0.38887  0.14938  0.12443  Biso   1.000  N
  H1718    1.0000 0.42579  0.14439  0.08790  Biso   1.000  H
  H1719    1.0000 0.38099  0.13101  0.08039  Biso   1.000  H
  H1720    1.0000 0.35521  0.17321  0.04141  Biso   1.000  H
  N92      1.0000 0.30688  0.26897  0.00550  Biso   1.000  N
  H1721    1.0000 0.31960  0.21019  0.00359  Biso   1.000  H
  H1722    1.0000 0.35339  0.23779  0.98830  Biso   1.000  H
  H1723    1.0000 0.52239  0.32901  0.04490  Biso   1.000  H
  H1724    1.0000 0.54760  0.36339  0.02780  Biso   1.000  H
  H1725    1.0000 0.51791  0.44380  0.07951  Biso   1.000  H
  H1726    1.0000 0.54521  0.43400  0.04970  Biso   1.000  H
  H1727    1.0000 0.46220  0.41650  0.99699  Biso   1.000  H
  H1728    1.0000 0.51011  0.41829  0.99769  Biso   1.000  H
  C1299    1.0000 0.22650  0.18280  0.24169  Biso   1.000  C
  C1300    1.0000 0.27991  0.21909  0.27187  Biso   1.000  C
  H1729    1.0000 0.23931  0.29401  0.32500  Biso   1.000  H
  H1730    1.0000 0.25631  0.33200  0.30650  Biso   1.000  H
  C1301    1.0000 0.22041  0.34879  0.34511  Biso   1.000  C
  C1302    1.0000 0.17509  0.38869  0.31200  Biso   1.000  C
  H1731    1.0000 0.20771  0.37349  0.27101  Biso   1.000  H
  H1732    1.0000 0.16189  0.35981  0.26900  Biso   1.000  H
  H1733    1.0000 0.16849  0.27549  0.32120  Biso   1.000  H
  H1734    1.0000 0.13830  0.30070  0.30009  Biso   1.000  H
  C1303    1.0000 0.15099  0.32791  0.34159  Biso   1.000  C
  C1304    1.0000 0.11019  0.34000  0.08881  Biso   1.000  C
  C1305    1.0000 0.14439  0.40879  0.08300  Biso   1.000  C
  H1735    1.0000 0.13050  0.42041  0.23069  Biso   1.000  H
  H1736    1.0000 0.16879  0.44081  0.21459  Biso   1.000  H
  C1306    1.0000 0.12859  0.48469  0.23379  Biso   1.000  C
  C1307    1.0000 0.11350  0.51689  0.18290  Biso   1.000  C
  H1737    1.0000 0.15290  0.47970  0.15750  Biso   1.000  H
  H1738    1.0000 0.10771  0.47660  0.14520  Biso   1.000  H
  H1739    1.0000 0.06500  0.41719  0.20350  Biso   1.000  H
  H1740    1.0000 0.05690  0.44299  0.17281  Biso   1.000  H
  C1308    1.0000 0.05801  0.47699  0.21261  Biso   1.000  C
  C1309    1.0000 0.34879  0.16380  0.13341  Biso   1.000  C
  C1310    1.0000 0.41109  0.13169  0.14729  Biso   1.000  C
  C1311    1.0000 0.27820  0.27050  0.03099  Biso   1.000  C
  C1312    1.0000 0.29971  0.29150  0.97910  Biso   1.000  C
  C1313    1.0000 0.23041  0.15571  0.21399  Biso   1.000  C
  H1741    1.0000 0.22531  0.16631  0.26080  Biso   1.000  H
  H1742    1.0000 0.20111  0.19771  0.24011  Biso   1.000  H
  O89      1.0000 0.30049  0.25007  0.27350  Biso   1.000  O
  C1314    1.0000 0.28059  0.18860  0.29890  Biso   1.000  C
  H1743    1.0000 0.24409  0.35109  0.35909  Biso   1.000  H
  C1315    1.0000 0.21130  0.39189  0.33190  Biso   1.000  C
  C1316    1.0000 0.18830  0.33110  0.36319  Biso   1.000  C
  H1744    1.0000 0.16769  0.41599  0.30449  Biso   1.000  H
  C1317    1.0000 0.14030  0.37131  0.33001  Biso   1.000  C
  H1745    1.0000 0.12799  0.31581  0.35310  Biso   1.000  H
  C1318    1.0000 0.12208  0.30159  0.07319  Biso   1.000  C
  H1746    1.0000 0.09830  0.33349  0.10931  Biso   1.000  H
  H1747    1.0000 0.08910  0.35279  0.07611  Biso   1.000  H
  O90      1.0000 0.16909  0.42851  0.09011  Biso   1.000  O
  C1319    1.0000 0.11049  0.42519  0.06210  Biso   1.000  C
  H1748    1.0000 0.14421  0.48720  0.25360  Biso   1.000  H
  C1320    1.0000 0.13821  0.52080  0.21280  Biso   1.000  C
  C1321    1.0000 0.08590  0.48350  0.24151  Biso   1.000  C
  H1749    1.0000 0.11921  0.54061  0.16950  Biso   1.000  H
  C1322    1.0000 0.06909  0.51719  0.19059  Biso   1.000  C
  H1750    1.0000 0.02900  0.47549  0.21820  Biso   1.000  H
  C1323    1.0000 0.31491  0.13701  0.12238  Biso   1.000  C
  H1751    1.0000 0.34759  0.16601  0.15641  Biso   1.000  H
  H1752    1.0000 0.34490  0.19090  0.12469  Biso   1.000  H
  O91      1.0000 0.39795  0.12677  0.17281  Biso   1.000  O
  C1324    1.0000 0.45479  0.11730  0.14079  Biso   1.000  C
  C1325    1.0000 0.24681  0.23740  0.03181  Biso   1.000  C
  H1753    1.0000 0.29311  0.26990  0.05089  Biso   1.000  H
  H1754    1.0000 0.26411  0.29651  0.02999  Biso   1.000  H
  O92      1.0000 0.26790  0.31196  0.97868  Biso   1.000  O
  C1326    1.0000 0.32889  0.29490  0.95251  Biso   1.000  C
  C1327    1.0000 0.19582  0.14319  0.19842  Biso   1.000  C
  C1328    1.0000 0.26709  0.14060  0.20383  Biso   1.000  C
  C1329    1.0000 0.29221  0.14660  0.28804  Biso   1.000  C
  C1330    1.0000 0.31500  0.20329  0.32099  Biso   1.000  C
  C1331    1.0000 0.24111  0.19030  0.31754  Biso   1.000  C
  H1755    1.0000 0.23421  0.40160  0.31950  Biso   1.000  H
  H1756    1.0000 0.20649  0.41079  0.34921  Biso   1.000  H
  H1757    1.0000 0.19621  0.30431  0.37069  Biso   1.000  H
  H1758    1.0000 0.18211  0.34810  0.38151  Biso   1.000  H
  H1759    1.0000 0.13411  0.38851  0.34809  Biso   1.000  H
  H1760    1.0000 0.11640  0.37029  0.31649  Biso   1.000  H
  C1332    1.0000 0.10759  0.26530  0.08312  Biso   1.000  C
  C1333    1.0000 0.14821  0.30273  0.04782  Biso   1.000  C
  C1334    1.0000 0.12500  0.46680  0.05280  Biso   1.000  C
  C1335    1.0000 0.09929  0.40130  0.03351  Biso   1.000  C
  C1336    1.0000 0.07231  0.43170  0.08191  Biso   1.000  C
  H1761    1.0000 0.16700  0.52119  0.20769  Biso   1.000  H
  H1762    1.0000 0.13140  0.54601  0.22361  Biso   1.000  H
  H1763    1.0000 0.08119  0.46169  0.25661  Biso   1.000  H
  H1764    1.0000 0.07841  0.50889  0.25181  Biso   1.000  H
  H1765    1.0000 0.06231  0.54189  0.20210  Biso   1.000  H
  H1766    1.0000 0.05329  0.51659  0.17111  Biso   1.000  H
  N93      1.0000 0.31596  0.09696  0.13681  Biso   1.000  N
  H1767    1.0000 0.31650  0.13411  0.09950  Biso   1.000  H
  H1768    1.0000 0.28911  0.14991  0.12739  Biso   1.000  H
  C1337    1.0000 0.48209  0.15251  0.12970  Biso   1.000  C
  C1338    1.0000 0.47179  0.10311  0.17190  Biso   1.000  C
  C1339    1.0000 0.45691  0.08301  0.11600  Biso   1.000  C
  N94      1.0000 0.21921  0.23713  0.00520  Biso   1.000  N
  H1769    1.0000 0.23101  0.24009  0.05120  Biso   1.000  H
  H1770    1.0000 0.26061  0.21130  0.03269  Biso   1.000  H
  C1340    1.0000 0.31509  0.32910  0.93161  Biso   1.000  C
  C1341    1.0000 0.37140  0.30709  0.96486  Biso   1.000  C
  C1342    1.0000 0.33221  0.25730  0.93240  Biso   1.000  C
  C1343    1.0000 0.19759  0.11679  0.17330  Biso   1.000  C
  H1771    1.0000 0.17061  0.15290  0.20511  Biso   1.000  H
  C1344    1.0000 0.26880  0.11380  0.17917  Biso   1.000  C
  H1772    1.0000 0.29099  0.14869  0.21389  Biso   1.000  H
  H1773    1.0000 0.31820  0.14741  0.27721  Biso   1.000  H
  H1774    1.0000 0.27190  0.13629  0.27329  Biso   1.000  H
  C1345    1.0000 0.29481  0.11909  0.31619  Biso   1.000  C
  C1346    1.0000 0.31769  0.17539  0.34909  Biso   1.000  C
  H1775    1.0000 0.30951  0.23089  0.32810  Biso   1.000  H
  H1776    1.0000 0.34069  0.20329  0.30960  Biso   1.000  H
  H1777    1.0000 0.23609  0.21769  0.32521  Biso   1.000  H
  H1778    1.0000 0.21841  0.18199  0.30431  Biso   1.000  H
  C1347    1.0000 0.24630  0.16049  0.34581  Biso   1.000  C
  C1348    1.0000 0.11870  0.23035  0.06795  Biso   1.000  C
  H1779    1.0000 0.09000  0.26411  0.10041  Biso   1.000  H
  C1349    1.0000 0.16100  0.26751  0.03370  Biso   1.000  C
  H1780    1.0000 0.15729  0.32770  0.04010  Biso   1.000  H
  H1781    1.0000 0.12820  0.48341  0.07170  Biso   1.000  H
  H1782    1.0000 0.15129  0.46459  0.04250  Biso   1.000  H
  C1350    1.0000 0.09519  0.48771  0.03041  Biso   1.000  C
  C1351    1.0000 0.06789  0.42191  0.01340  Biso   1.000  C
  H1783    1.0000 0.12360  0.39670  0.02081  Biso   1.000  H
  H1784    1.0000 0.08901  0.37501  0.04020  Biso   1.000  H
  H1785    1.0000 0.07921  0.44741  0.10069  Biso   1.000  H
  H1786    1.0000 0.06189  0.40551  0.08881  Biso   1.000  H
  C1352    1.0000 0.04101  0.45321  0.06390  Biso   1.000  C
  C1353    1.0000 0.30879  0.09591  0.16992  Biso   1.000  C
  C1354    1.0000 0.32871  0.06529  0.11761  Biso   1.000  C
  H1787    1.0000 0.48170  0.17420  0.14541  Biso   1.000  H
  H1788    1.0000 0.47191  0.16330  0.10980  Biso   1.000  H
  C1355    1.0000 0.52499  0.13761  0.12530  Biso   1.000  C
  C1356    1.0000 0.51429  0.08901  0.17011  Biso   1.000  C
  H1789    1.0000 0.45491  0.08110  0.17989  Biso   1.000  H
  H1790    1.0000 0.47021  0.12539  0.18710  Biso   1.000  H
  H1791    1.0000 0.44741  0.09280  0.09561  Biso   1.000  H
  H1792    1.0000 0.43980  0.06031  0.12250  Biso   1.000  H
  C1357    1.0000 0.50091  0.06939  0.11360  Biso   1.000  C
  C1358    1.0000 0.18910  0.26939  0.00585  Biso   1.000  C
  C1359    1.0000 0.22731  0.21270  0.98059  Biso   1.000  C
  H1793    1.0000 0.28809  0.32310  0.92340  Biso   1.000  H
  H1794    1.0000 0.31351  0.35401  0.94391  Biso   1.000  H
  C1360    1.0000 0.34460  0.33490  0.90411  Biso   1.000  C
  C1361    1.0000 0.40019  0.31249  0.93671  Biso   1.000  C
  H1795    1.0000 0.38179  0.28600  0.97891  Biso   1.000  H
  H1796    1.0000 0.36960  0.33230  0.97679  Biso   1.000  H
  H1797    1.0000 0.30580  0.25099  0.92329  Biso   1.000  H
  H1798    1.0000 0.34039  0.23451  0.94559  Biso   1.000  H
  C1362    1.0000 0.36220  0.26261  0.90639  Biso   1.000  C
  C1363    1.0000 0.23409  0.10260  0.16398  Biso   1.000  C
  C1364    1.0000 0.15861  0.10401  0.15780  Biso   1.000  C
  H1799    1.0000 0.30120  0.09149  0.30890  Biso   1.000  H
  C1365    1.0000 0.32791  0.13289  0.33809  Biso   1.000  C
  C1366    1.0000 0.25461  0.11810  0.33390  Biso   1.000  C
  H1800    1.0000 0.33959  0.18501  0.36301  Biso   1.000  H
  C1367    1.0000 0.27910  0.17369  0.36799  Biso   1.000  C
  H1801    1.0000 0.22059  0.15989  0.35769  Biso   1.000  H
  C1368    1.0000 0.09920  0.18979  0.07834  Biso   1.000  C
  C1369    1.0000 0.14561  0.23059  0.04420  Biso   1.000  C
  H1802    1.0000 0.10541  0.51420  0.02321  Biso   1.000  H
  C1370    1.0000 0.08271  0.46241  0.00401  Biso   1.000  C
  C1371    1.0000 0.05451  0.49219  0.05350  Biso   1.000  C
  C1372    1.0000 0.03109  0.42579  0.03409  Biso   1.000  C
  H1803    1.0000 0.06171  0.40539  0.99459  Biso   1.000  H
  H1804    1.0000 0.01649  0.45620  0.07699  Biso   1.000  H
  H1805    1.0000 0.30990  0.06780  0.17710  Biso   1.000  H
  H1806    1.0000 0.33039  0.11070  0.18059  Biso   1.000  H
  O93      1.0000 0.34189  0.07222  0.09258  Biso   1.000  O
  C1373    1.0000 0.32531  0.02130  0.12961  Biso   1.000  C
  H1807    1.0000 0.54249  0.15980  0.11791  Biso   1.000  H
  C1374    1.0000 0.53941  0.12199  0.15860  Biso   1.000  C
  C1375    1.0000 0.52570  0.10329  0.10230  Biso   1.000  C
  H1808    1.0000 0.52370  0.07990  0.19101  Biso   1.000  H
  C1376    1.0000 0.51399  0.05609  0.14869  Biso   1.000  C
  H1809    1.0000 0.50321  0.04621  0.09911  Biso   1.000  H
  H1810    1.0000 0.20311  0.29541  0.00611  Biso   1.000  H
  H1811    1.0000 0.17300  0.26811  0.98651  Biso   1.000  H
  O94      1.0000 0.25846  0.19296  0.98108  Biso   1.000  O
  C1377    1.0000 0.19911  0.20720  0.95381  Biso   1.000  C
  H1812    1.0000 0.33511  0.35751  0.89069  Biso   1.000  H
  C1378    1.0000 0.38621  0.34490  0.91690  Biso   1.000  C
  C1379    1.0000 0.34550  0.29589  0.88430  Biso   1.000  C
  H1813    1.0000 0.42731  0.31951  0.94480  Biso   1.000  H
  C1380    1.0000 0.40291  0.27310  0.91921  Biso   1.000  C
  H1814    1.0000 0.36420  0.23701  0.89451  Biso   1.000  H
  H1815    1.0000 0.23570  0.08480  0.14681  Biso   1.000  H
  N95      1.0000 0.15759  0.11001  0.12511  Biso   1.000  N
  H1816    1.0000 0.13629  0.11909  0.16740  Biso   1.000  H
  H1817    1.0000 0.15401  0.07530  0.16209  Biso   1.000  H
  N96      1.0000 0.13181  0.13800  0.15100  Biso   1.000  N
  H1818    1.0000 0.32979  0.11470  0.35620  Biso   1.000  H
  H1819    1.0000 0.35389  0.13280  0.32710  Biso   1.000  H
  H1820    1.0000 0.25610  0.09920  0.35149  Biso   1.000  H
  H1821    1.0000 0.23289  0.10941  0.31971  Biso   1.000  H
  H1822    1.0000 0.27280  0.20039  0.37680  Biso   1.000  H
  H1823    1.0000 0.28170  0.15451  0.38540  Biso   1.000  H
  N97      1.0000 0.10380  0.18349  0.11234  Biso   1.000  N
  N98      1.0000 0.12951  0.15929  0.08161  Biso   1.000  N
  H1824    1.0000 0.11201  0.16751  0.06699  Biso   1.000  H
  H1825    1.0000 0.07049  0.19000  0.07289  Biso   1.000  H
  H1826    1.0000 0.15389  0.20631  0.03479  Biso   1.000  H
  H1827    1.0000 0.06129  0.47630  0.99250  Biso   1.000  H
  H1828    1.0000 0.10559  0.45909  0.98970  Biso   1.000  H
  H1829    1.0000 0.03280  0.50560  0.04180  Biso   1.000  H
  H1830    1.0000 0.06120  0.50889  0.07179  Biso   1.000  H
  H1831    1.0000 0.00899  0.43789  0.02209  Biso   1.000  H
  H1832    1.0000 0.02249  0.39900  0.04120  Biso   1.000  H
  C1381    1.0000 0.35951  0.01219  0.15300  Biso   1.000  C
  C1382    1.0000 0.28591  0.01010  0.14310  Biso   1.000  C
  C1383    1.0000 0.33051  0.99450  0.10029  Biso   1.000  C
  H1833    1.0000 0.53840  0.14430  0.17370  Biso   1.000  H
  H1834    1.0000 0.56740  0.11279  0.15710  Biso   1.000  H
  H1835    1.0000 0.55351  0.09421  0.09929  Biso   1.000  H
  H1836    1.0000 0.51540  0.11261  0.08191  Biso   1.000  H
  H1837    1.0000 0.54100  0.04409  0.14790  Biso   1.000  H
  H1838    1.0000 0.49530  0.03551  0.15641  Biso   1.000  H
  C1384    1.0000 0.15601  0.19609  0.96400  Biso   1.000  C
  C1385    1.0000 0.19881  0.24460  0.93091  Biso   1.000  C
  C1386    1.0000 0.21560  0.17250  0.93380  Biso   1.000  C
  H1839    1.0000 0.38499  0.36999  0.92900  Biso   1.000  H
  H1840    1.0000 0.40509  0.34891  0.89940  Biso   1.000  H
  H1841    1.0000 0.31841  0.28890  0.87701  Biso   1.000  H
  H1842    1.0000 0.36309  0.29920  0.86589  Biso   1.000  H
  H1843    1.0000 0.41220  0.25171  0.93340  Biso   1.000  H
  H1844    1.0000 0.42229  0.27549  0.90190  Biso   1.000  H
  C1387    1.0000 0.17130  0.14980  0.11430  Biso   1.000  C
  C1388    1.0000 0.13970  0.08689  0.10211  Biso   1.000  C
  C1389    1.0000 0.14720  0.17599  0.13590  Biso   1.000  C
  C1390    1.0000 0.08841  0.13411  0.15200  Biso   1.000  C
  C1391    1.0000 0.14370  0.18450  0.12420  Biso   1.000  C
  C1392    1.0000 0.07291  0.17070  0.13250  Biso   1.000  C
  C1393    1.0000 0.16019  0.16640  0.10199  Biso   1.000  C
  C1394    1.0000 0.12019  0.11951  0.07270  Biso   1.000  C
  H1845    1.0000 0.38570  0.01921  0.14359  Biso   1.000  H
  H1846    1.0000 0.35601  0.02820  0.17220  Biso   1.000  H
  C1395    1.0000 0.35799  0.96601  0.16090  Biso   1.000  C
  H1847    1.0000 0.27970  0.02829  0.16060  Biso   1.000  H
  H1848    1.0000 0.26500  0.01389  0.12700  Biso   1.000  H
  C1396    1.0000 0.28400  0.96679  0.15480  Biso   1.000  C
  H1849    1.0000 0.30939  0.00069  0.08489  Biso   1.000  H
  H1850    1.0000 0.35679  0.99991  0.09051  Biso   1.000  H
  C1397    1.0000 0.32779  0.95030  0.11001  Biso   1.000  C
  H1851    1.0000 0.14481  0.21781  0.97691  Biso   1.000  H
  H1852    1.0000 0.15661  0.17139  0.97670  Biso   1.000  H
  C1398    1.0000 0.12990  0.18961  0.93559  Biso   1.000  C
  C1399    1.0000 0.17190  0.23561  0.90390  Biso   1.000  C
  H1853    1.0000 0.22620  0.25001  0.92340  Biso   1.000  H
  H1854    1.0000 0.18910  0.26859  0.94209  Biso   1.000  H
  H1855    1.0000 0.21820  0.14830  0.94689  Biso   1.000  H
  H1856    1.0000 0.24251  0.17961  0.92611  Biso   1.000  H
  C1400    1.0000 0.18901  0.16360  0.90679  Biso   1.000  C
  H1857    1.0000 0.19839  0.15490  0.12271  Biso   1.000  H
  H1858    1.0000 0.17330  0.14959  0.09130  Biso   1.000  H
  H1859    1.0000 0.17781  0.14269  0.10239  Biso   1.000  H
  O95      1.0000 0.13289  0.09979  0.07660  Biso   1.000  O
  C1401    1.0000 0.12919  0.04349  0.11010  Biso   1.000  C
  O96      1.0000 0.14430  0.09349  0.08021  Biso   1.000  O
  H1860    1.0000 0.14230  0.18480  0.14720  Biso   1.000  H
  H1861    1.0000 0.12599  0.19660  0.13590  Biso   1.000  H
  H1862    1.0000 0.17020  0.18639  0.14790  Biso   1.000  H
  O97      1.0000 0.08110  0.16070  0.15911  Biso   1.000  O
  O98      1.0000 0.07339  0.15801  0.14541  Biso   1.000  O
  C1402    1.0000 0.07199  0.09251  0.16130  Biso   1.000  C
  H1863    1.0000 0.15619  0.20980  0.11749  Biso   1.000  H
  C1403    1.0000 0.02900  0.17441  0.12180  Biso   1.000  C
  H1864    1.0000 0.17611  0.18910  0.09400  Biso   1.000  H
  C1404    1.0000 0.08590  0.10911  0.05040  Biso   1.000  C
  H1865    1.0000 0.38060  0.95881  0.17509  Biso   1.000  H
  C1405    1.0000 0.31901  0.95890  0.17680  Biso   1.000  C
  C1406    1.0000 0.36100  0.94199  0.13049  Biso   1.000  C
  H1866    1.0000 0.25789  0.96090  0.16510  Biso   1.000  H
  C1407    1.0000 0.28961  0.94149  0.12411  Biso   1.000  C
  H1867    1.0000 0.33071  0.93339  0.09090  Biso   1.000  H
  H1868    1.0000 0.10209  0.18319  0.94249  Biso   1.000  H
  C1408    1.0000 0.12910  0.22450  0.91581  Biso   1.000  C
  C1409    1.0000 0.14711  0.15350  0.91620  Biso   1.000  C
  H1869    1.0000 0.17011  0.25980  0.89020  Biso   1.000  H
  C1410    1.0000 0.18851  0.20051  0.88491  Biso   1.000  C
  H1870    1.0000 0.20039  0.14039  0.89509  Biso   1.000  H
  C1411    1.0000 0.16389  0.01939  0.12250  Biso   1.000  C
  C1412    1.0000 0.09301  0.04161  0.13371  Biso   1.000  C
  C1413    1.0000 0.11551  0.02360  0.07960  Biso   1.000  C
  H1871    1.0000 0.15030  0.03050  0.09130  Biso   1.000  H
  C1414    1.0000 0.08160  0.05609  0.14140  Biso   1.000  C
  C1415    1.0000 0.08429  0.08519  0.19630  Biso   1.000  C
  C1416    1.0000 0.02670  0.09761  0.15710  Biso   1.000  C
  C1417    1.0000 0.01861  0.21470  0.10819  Biso   1.000  C
  C1418    1.0000 0.01879  0.13961  0.09850  Biso   1.000  C
  C1419    1.0000 0.00311  0.17100  0.15091  Biso   1.000  C
  C1420    1.0000 0.07599  0.09860  0.01750  Biso   1.000  C
  H1872    1.0000 0.08940  0.09911  0.03831  Biso   1.000  H
  C1421    1.0000 0.04460  0.11291  0.06441  Biso   1.000  C
  C1422    1.0000 0.09041  0.13289  0.01899  Biso   1.000  C
  C1423    1.0000 0.09119  0.06389  0.04460  Biso   1.000  C
  H1873    1.0000 0.31781  0.93091  0.18421  Biso   1.000  H
  H1874    1.0000 0.31680  0.97661  0.19520  Biso   1.000  H
  H1875    1.0000 0.36151  0.91311  0.13541  Biso   1.000  H
  H1876    1.0000 0.38630  0.94880  0.11980  Biso   1.000  H
  H1877    1.0000 0.26790  0.94791  0.10931  Biso   1.000  H
  H1878    1.0000 0.28809  0.91269  0.12910  Biso   1.000  H
  H1879    1.0000 0.11150  0.21930  0.89780  Biso   1.000  H
  H1880    1.0000 0.11789  0.24729  0.92760  Biso   1.000  H
  H1881    1.0000 0.13050  0.14890  0.89749  Biso   1.000  H
  H1882    1.0000 0.14699  0.12889  0.92900  Biso   1.000  H
  H1883    1.0000 0.17139  0.19541  0.86650  Biso   1.000  H
  H1884    1.0000 0.21590  0.20661  0.87750  Biso   1.000  H
  H1885    1.0000 0.18579  0.02040  0.10691  Biso   1.000  H
  H1886    1.0000 0.17381  0.03241  0.14170  Biso   1.000  H
  C1424    1.0000 0.16031  0.00239  0.09270  Biso   1.000  C
  C1425    1.0000 0.15490  0.97509  0.12991  Biso   1.000  C
  H1887    1.0000 0.10051  0.05379  0.15389  Biso   1.000  H
  H1888    1.0000 0.06960  0.05601  0.12520  Biso   1.000  H
  H1889    1.0000 0.07279  0.06141  0.11970  Biso   1.000  H
  H1890    1.0000 0.11099  0.05230  0.14100  Biso   1.000  H
  C1426    1.0000 0.06180  0.01679  0.15270  Biso   1.000  C
  C1427    1.0000 0.08340  0.99531  0.13781  Biso   1.000  C
  H1891    1.0000 0.09161  0.03761  0.07140  Biso   1.000  H
  H1892    1.0000 0.13701  0.02569  0.06380  Biso   1.000  H
  C1428    1.0000 0.10439  0.97431  0.08610  Biso   1.000  C
  Cl55     1.0000 0.11969  0.96711  0.08380  Biso   1.000  Cl
  C1429    1.0000 0.05379  0.10371  0.21161  Biso   1.000  C
  Cl56     1.0000 0.09791  0.08480  0.22706  Biso   1.000  Cl
  C1430    1.0000 0.06180  0.04570  0.20781  Biso   1.000  C
  H1893    1.0000 0.11359  0.08169  0.19800  Biso   1.000  H
  H1894    1.0000 0.07641  0.10831  0.20930  Biso   1.000  H
  H1895    1.0000 0.01780  0.12300  0.16671  Biso   1.000  H
  H1896    1.0000 0.02001  0.09830  0.13471  Biso   1.000  H
  C1431    1.0000 0.00320  0.05789  0.17479  Biso   1.000  C
  H1897    1.0000 0.03620  0.21990  0.09011  Biso   1.000  H
  H1898    1.0000 0.02399  0.23549  0.12399  Biso   1.000  H
  C1432    1.0000 0.97551  0.21781  0.09789  Biso   1.000  C
  H1899    1.0000 0.03459  0.14239  0.07920  Biso   1.000  H
  H1900    1.0000 0.02500  0.11341  0.10810  Biso   1.000  H
  C1433    1.0000 0.97180  0.14290  0.09090  Biso   1.000  C
  H1901    1.0000 0.00839  0.14511  0.16130  Biso   1.000  H
  H1902    1.0000 0.01019  0.19260  0.16570  Biso   1.000  H
  C1434    1.0000 0.95230  0.17450  0.14149  Biso   1.000  C
  Cl57     1.0000 0.03420  0.07100  0.01999  Biso   1.000  Cl
  Cl58     1.0000 0.06270  0.15069  0.00580  Biso   1.000  Cl
  Cl59     1.0000 0.11031  0.08259  0.98902  Biso   1.000  Cl
  C1435    1.0000 0.05609  0.11640  0.99660  Biso   1.000  C
  C1436    1.0000 0.06231  0.07330  0.99310  Biso   1.000  C
  H1903    1.0000 0.04301  0.09549  0.08300  Biso   1.000  H
  H1904    1.0000 0.04080  0.14080  0.07149  Biso   1.000  H
  C1437    1.0000 0.01051  0.10191  0.04199  Biso   1.000  C
  H1905    1.0000 0.08701  0.16189  0.02270  Biso   1.000  H
  H1906    1.0000 0.11709  0.12829  0.00969  Biso   1.000  H
  H1907    1.0000 0.11849  0.05851  0.03670  Biso   1.000  H
  H1908    1.0000 0.08761  0.04911  0.06441  Biso   1.000  H
  C1438    1.0000 0.05630  0.04839  0.01771  Biso   1.000  C
  C1439    1.0000 0.14221  0.96069  0.09449  Biso   1.000  C
  H1909    1.0000 0.16210  0.97100  0.07951  Biso   1.000  H
  Cl60     1.0000 0.17441  0.99119  0.13080  Biso   1.000  Cl
  Cl61     1.0000 0.19669  0.99501  0.06681  Biso   1.000  Cl
  H1910    1.0000 0.17790  0.96009  0.13900  Biso   1.000  H
  C1440    1.0000 0.11610  0.97500  0.15070  Biso   1.000  C
  C1441    1.0000 0.07091  0.01281  0.18861  Biso   1.000  C
  C1442    1.0000 0.01431  0.03029  0.15149  Biso   1.000  C
  H1911    1.0000 0.05971  0.99220  0.15179  Biso   1.000  H
  H1912    1.0000 0.06849  0.99271  0.14000  Biso   1.000  H
  C1443    1.0000 0.07449  0.97679  0.10719  Biso   1.000  C
  H1913    1.0000 0.09501  0.96099  0.06651  Biso   1.000  H
  H1914    1.0000 0.06099  0.11849  0.19220  Biso   1.000  H
  Cl62     1.0000 0.02924  0.13698  0.23556  Biso   1.000  Cl
  Cl63     1.0000 0.02070  0.06470  0.20040  Biso   1.000  Cl
  H1915    1.0000 0.06801  0.03970  0.23020  Biso   1.000  H
  C1444    1.0000 0.01971  0.05601  0.20380  Biso   1.000  C
  H1916    1.0000 0.97360  0.06171  0.17570  Biso   1.000  H
  H1917    1.0000 0.96971  0.24371  0.08720  Biso   1.000  H
  C1445    1.0000 0.96469  0.18110  0.07729  Biso   1.000  C
  C1446    1.0000 0.95409  0.21470  0.13271  Biso   1.000  C
  H1918    1.0000 0.96210  0.12049  0.07750  Biso   1.000  H
  C1447    1.0000 0.94970  0.14651  0.11901  Biso   1.000  C
  H1919    1.0000 0.93411  0.16939  0.15951  Biso   1.000  H
  C1448    1.0000 0.01810  0.12249  0.00990  Biso   1.000  C
  H1920    1.0000 0.05759  0.12981  0.97591  Biso   1.000  H
  H1921    1.0000 0.09009  0.06930  0.98590  Biso   1.000  H
  H1922    1.0000 0.04460  0.06410  0.97600  Biso   1.000  H
  C1449    1.0000 0.02419  0.05460  0.03801  Biso   1.000  C
  H1923    1.0000 0.98309  0.10580  0.05071  Biso   1.000  H
  H1924    1.0000 0.05959  0.01959  0.01191  Biso   1.000  H
  H1925    1.0000 0.14269  0.93121  0.09349  Biso   1.000  H
  H1926    1.0000 0.12261  0.98731  0.17111  Biso   1.000  H
  H1927    1.0000 0.10819  0.94701  0.15470  Biso   1.000  H
  H1928    1.0000 0.09979  0.00681  0.19101  Biso   1.000  H
  H1929    1.0000 0.05609  0.98931  0.19651  Biso   1.000  H
  H1930    1.0000 0.00869  0.04221  0.13080  Biso   1.000  H
  H1931    1.0000 0.99749  0.00609  0.15361  Biso   1.000  H
  H1932    1.0000 0.00251  0.99391  0.15361  Biso   1.000  H
  H1933    1.0000 0.05239  0.99211  0.09759  Biso   1.000  H
  H1934    1.0000 0.06449  0.94949  0.11111  Biso   1.000  H
  H1935    1.0000 0.01550  0.08229  0.21380  Biso   1.000  H
  H1936    1.0000 0.00391  0.03629  0.21590  Biso   1.000  H
  H1937    1.0000 0.98020  0.18280  0.05770  Biso   1.000  H
  H1938    1.0000 0.93611  0.18289  0.07170  Biso   1.000  H
  H1939    1.0000 0.92679  0.22620  0.13180  Biso   1.000  H
  H1940    1.0000 0.96980  0.23011  0.14811  Biso   1.000  H
  H1941    1.0000 0.95361  0.12079  0.12979  Biso   1.000  H
  H1942    1.0000 0.92141  0.14690  0.11229  Biso   1.000  H
  H1943    1.0000 0.01401  0.15159  0.01249  Biso   1.000  H
  H1944    1.0000 0.99770  0.11279  0.99499  Biso   1.000  H
  H1945    1.0000 0.00099  0.03910  0.03029  Biso   1.000  H
  H1946    1.0000 0.03139  0.04391  0.05870  Biso   1.000  H
  C1450    1.0000 0.41620  0.54031  0.75129  Biso   1.000  C
  C1451    1.0000 0.43260  0.57851  0.76360  Biso   1.000  C
  C1452    1.0000 0.39861  0.51190  0.77469  Biso   1.000  C
  H1947    1.0000 0.43789  0.52621  0.74011  Biso   1.000  H
  H1948    1.0000 0.39529  0.54679  0.73580  Biso   1.000  H
  C1453    1.0000 0.40231  0.60059  0.78100  Biso   1.000  C
  H1949    1.0000 0.44141  0.59521  0.74561  Biso   1.000  H
  C1454    1.0000 0.46761  0.56821  0.78201  Biso   1.000  C
  C1455    1.0000 0.37331  0.53481  0.79531  Biso   1.000  C
  H1950    1.0000 0.38591  0.48759  0.76551  Biso   1.000  H
  C1456    1.0000 0.43989  0.50270  0.79750  Biso   1.000  C
  C1457    1.0000 0.38881  0.57230  0.80911  Biso   1.000  C
  H1951    1.0000 0.37931  0.60689  0.76749  Biso   1.000  H
  H1952    1.0000 0.41360  0.62591  0.78909  Biso   1.000  H
  C1458    1.0000 0.45691  0.54031  0.80999  Biso   1.000  C
  H1953    1.0000 0.48000  0.59300  0.79000  Biso   1.000  H
  H1954    1.0000 0.48741  0.55471  0.76840  Biso   1.000  H
  H1955    1.0000 0.36530  0.51701  0.81270  Biso   1.000  H
  H1956    1.0000 0.34861  0.54150  0.78359  Biso   1.000  H
  H1957    1.0000 0.43221  0.48499  0.81500  Biso   1.000  H
  H1958    1.0000 0.46041  0.48869  0.78499  Biso   1.000  H
  C1459    1.0000 0.35551  0.59201  0.83050  Biso   1.000  C
  C1460    1.0000 0.42519  0.56181  0.82931  Biso   1.000  C
  H1959    1.0000 0.48111  0.53469  0.82290  Biso   1.000  H
  N99      1.0000 0.35796  0.62965  0.84171  Biso   1.000  N
  O99      1.0000 0.32629  0.57203  0.83637  Biso   1.000  O
  H1960    1.0000 0.43669  0.58661  0.83830  Biso   1.000  H
  H1961    1.0000 0.41659  0.54449  0.84681  Biso   1.000  H
  C1461    1.0000 0.39341  0.65569  0.84049  Biso   1.000  C
  C1462    1.0000 0.32411  0.64530  0.85951  Biso   1.000  C
  C1463    1.0000 0.38520  0.69560  0.82516  Biso   1.000  C
  H1962    1.0000 0.41489  0.64181  0.82889  Biso   1.000  H
  H1963    1.0000 0.40309  0.66041  0.86200  Biso   1.000  H
  H1964    1.0000 0.30040  0.62851  0.85511  Biso   1.000  H
  H1965    1.0000 0.31820  0.67269  0.85210  Biso   1.000  H
  C1464    1.0000 0.33089  0.64649  0.89451  Biso   1.000  C
  C1465    1.0000 0.36121  0.69850  0.79850  Biso   1.000  C
  C1466    1.0000 0.40171  0.73031  0.83814  Biso   1.000  C
  N100     1.0000 0.33585  0.60737  0.90914  Biso   1.000  N
  H1966    1.0000 0.35500  0.66271  0.89870  Biso   1.000  H
  H1967    1.0000 0.30789  0.66009  0.90430  Biso   1.000  H
  C1467    1.0000 0.35389  0.73560  0.78524  Biso   1.000  C
  H1968    1.0000 0.34989  0.67511  0.78951  Biso   1.000  H
  C1468    1.0000 0.39529  0.76660  0.82379  Biso   1.000  C
  H1969    1.0000 0.41719  0.72890  0.85660  Biso   1.000  H
  C1469    1.0000 0.30061  0.58210  0.90805  Biso   1.000  C
  C1470    1.0000 0.37370  0.59530  0.91625  Biso   1.000  C
  C1471    1.0000 0.32901  0.73751  0.75588  Biso   1.000  C
  C1472    1.0000 0.37179  0.76950  0.79776  Biso   1.000  C
  C1473    1.0000 0.41471  0.80289  0.83851  Biso   1.000  C
  C1474    1.0000 0.26381  0.60139  0.92334  Biso   1.000  C
  H1970    1.0000 0.30649  0.55659  0.91879  Biso   1.000  H
  H1971    1.0000 0.29430  0.57579  0.88600  Biso   1.000  H
  O100     1.0000 0.40171  0.61749  0.91001  Biso   1.000  O
  C1475    1.0000 0.38119  0.55530  0.93384  Biso   1.000  C
  N101     1.0000 0.29947  0.77039  0.75677  Biso   1.000  N
  H1972    1.0000 0.34690  0.74130  0.73771  Biso   1.000  H
  H1973    1.0000 0.31479  0.71179  0.75311  Biso   1.000  H
  H1974    1.0000 0.36781  0.79471  0.78820  Biso   1.000  H
  N102     1.0000 0.39021  0.83640  0.83893  Biso   1.000  N
  H1975    1.0000 0.42250  0.79629  0.86021  Biso   1.000  H
  H1976    1.0000 0.43941  0.80940  0.82691  Biso   1.000  H
  C1476    1.0000 0.22650  0.59461  0.91003  Biso   1.000  C
  C1477    1.0000 0.26790  0.62430  0.94985  Biso   1.000  C
  C1478    1.0000 0.37310  0.51850  0.91301  Biso   1.000  C
  C1479    1.0000 0.35679  0.55229  0.96467  Biso   1.000  C
  C1480    1.0000 0.42570  0.55471  0.94240  Biso   1.000  C
  C1481    1.0000 0.27151  0.76911  0.78336  Biso   1.000  C
  C1482    1.0000 0.29090  0.79641  0.73349  Biso   1.000  C
  C1483    1.0000 0.35180  0.83151  0.85511  Biso   1.000  C
  C1484    1.0000 0.40160  0.87449  0.83281  Biso   1.000  C
  C1485    1.0000 0.19311  0.61095  0.92373  Biso   1.000  C
  H1977    1.0000 0.22420  0.57890  0.89169  Biso   1.000  H
  C1486    1.0000 0.23331  0.64109  0.96351  Biso   1.000  C
  H1978    1.0000 0.29341  0.62881  0.95880  Biso   1.000  H
  H1979    1.0000 0.34460  0.51791  0.90700  Biso   1.000  H
  H1980    1.0000 0.38929  0.52039  0.89381  Biso   1.000  H
  C1487    1.0000 0.38379  0.47949  0.93049  Biso   1.000  C
  C1488    1.0000 0.36671  0.51250  0.98106  Biso   1.000  C
  H1981    1.0000 0.36360  0.57490  0.97849  Biso   1.000  H
  H1982    1.0000 0.32791  0.55351  0.95999  Biso   1.000  H
  H1983    1.0000 0.43221  0.57839  0.95519  Biso   1.000  H
  H1984    1.0000 0.44201  0.55581  0.92310  Biso   1.000  H
  C1489    1.0000 0.43559  0.51549  0.96111  Biso   1.000  C
  C1490    1.0000 0.24000  0.73670  0.78112  Biso   1.000  C
  H1985    1.0000 0.25801  0.79530  0.78511  Biso   1.000  H
  H1986    1.0000 0.28711  0.76499  0.80270  Biso   1.000  H
  O101     1.0000 0.26052  0.81654  0.73480  Biso   1.000  O
  C1491    1.0000 0.31871  0.80259  0.70539  Biso   1.000  C
  H1987    1.0000 0.33651  0.80991  0.84469  Biso   1.000  H
  H1988    1.0000 0.33621  0.85639  0.85289  Biso   1.000  H
  C1492    1.0000 0.35569  0.82189  0.88850  Biso   1.000  C
  O102     1.0000 0.37740  0.90164  0.83947  Biso   1.000  O
  C1493    1.0000 0.44240  0.88249  0.81470  Biso   1.000  C
  C1494    1.0000 0.15129  0.60259  0.90870  Biso   1.000  C
  C1495    1.0000 0.19660  0.63359  0.94962  Biso   1.000  C
  C1496    1.0000 0.23540  0.66531  0.99382  Biso   1.000  C
  H1989    1.0000 0.37809  0.45590  0.91700  Biso   1.000  H
  C1497    1.0000 0.35760  0.47740  0.96081  Biso   1.000  C
  C1498    1.0000 0.42710  0.48000  0.93951  Biso   1.000  C
  C1499    1.0000 0.41121  0.51390  0.99000  Biso   1.000  C
  H1990    1.0000 0.35040  0.51041  0.00049  Biso   1.000  H
  H1991    1.0000 0.46459  0.51549  0.96679  Biso   1.000  H
  N103     1.0000 0.21139  0.74079  0.75516  Biso   1.000  N
  H1992    1.0000 0.25371  0.71059  0.77909  Biso   1.000  H
  H1993    1.0000 0.22480  0.73631  0.80090  Biso   1.000  H
  C1500    1.0000 0.32101  0.76741  0.68281  Biso   1.000  C
  C1501    1.0000 0.36160  0.81460  0.71711  Biso   1.000  C
  C1502    1.0000 0.30279  0.83799  0.68609  Biso   1.000  C
  N104     1.0000 0.36838  0.85860  0.90635  Biso   1.000  N
  H1994    1.0000 0.37570  0.80050  0.89129  Biso   1.000  H
  H1995    1.0000 0.32979  0.81221  0.89661  Biso   1.000  H
  C1503    1.0000 0.44299  0.86039  0.78240  Biso   1.000  C
  C1504    1.0000 0.47860  0.87541  0.83600  Biso   1.000  C
  C1505    1.0000 0.44249  0.92819  0.80729  Biso   1.000  C
  N105     1.0000 0.14938  0.61113  0.87557  Biso   1.000  N
  H1996    1.0000 0.14439  0.57421  0.91210  Biso   1.000  H
  H1997    1.0000 0.13101  0.61901  0.91961  Biso   1.000  H
  H1998    1.0000 0.17321  0.64479  0.95859  Biso   1.000  H
  N106     1.0000 0.26897  0.69312  0.99450  Biso   1.000  N
  H1999    1.0000 0.21019  0.68040  0.99641  Biso   1.000  H
  H2000    1.0000 0.23779  0.64661  0.01170  Biso   1.000  H
  H2001    1.0000 0.32901  0.47761  0.95510  Biso   1.000  H
  H2002    1.0000 0.36339  0.45240  0.97220  Biso   1.000  H
  H2003    1.0000 0.44380  0.48209  0.92049  Biso   1.000  H
  H2004    1.0000 0.43400  0.45479  0.95030  Biso   1.000  H
  H2005    1.0000 0.41650  0.53780  0.00301  Biso   1.000  H
  H2006    1.0000 0.41829  0.48989  0.00231  Biso   1.000  H
  C1506    1.0000 0.21909  0.72009  0.72813  Biso   1.000  C
  C1507    1.0000 0.18280  0.77350  0.75831  Biso   1.000  C
  H2007    1.0000 0.29401  0.76069  0.67500  Biso   1.000  H
  H2008    1.0000 0.33200  0.74369  0.69350  Biso   1.000  H
  C1508    1.0000 0.34879  0.77959  0.65489  Biso   1.000  C
  C1509    1.0000 0.38869  0.82491  0.68800  Biso   1.000  C
  H2009    1.0000 0.37349  0.79229  0.72899  Biso   1.000  H
  H2010    1.0000 0.35981  0.83811  0.73100  Biso   1.000  H
  H2011    1.0000 0.27549  0.83151  0.67880  Biso   1.000  H
  H2012    1.0000 0.30070  0.86170  0.69991  Biso   1.000  H
  C1510    1.0000 0.32791  0.84901  0.65841  Biso   1.000  C
  C1511    1.0000 0.34000  0.88981  0.91119  Biso   1.000  C
  C1512    1.0000 0.40879  0.85561  0.91700  Biso   1.000  C
  H2013    1.0000 0.42041  0.86950  0.76931  Biso   1.000  H
  H2014    1.0000 0.44081  0.83121  0.78541  Biso   1.000  H
  C1513    1.0000 0.48469  0.87141  0.76621  Biso   1.000  C
  C1514    1.0000 0.51689  0.88650  0.81710  Biso   1.000  C
  H2015    1.0000 0.47970  0.84710  0.84250  Biso   1.000  H
  H2016    1.0000 0.47660  0.89229  0.85480  Biso   1.000  H
  H2017    1.0000 0.41719  0.93500  0.79650  Biso   1.000  H
  H2018    1.0000 0.44299  0.94310  0.82719  Biso   1.000  H
  C1515    1.0000 0.47699  0.94199  0.78739  Biso   1.000  C
  C1516    1.0000 0.16380  0.65121  0.86659  Biso   1.000  C
  C1517    1.0000 0.13169  0.58891  0.85271  Biso   1.000  C
  C1518    1.0000 0.27050  0.72180  0.96901  Biso   1.000  C
  C1519    1.0000 0.29150  0.70029  0.02090  Biso   1.000  C
  C1520    1.0000 0.18860  0.71941  0.70110  Biso   1.000  C
  O103     1.0000 0.25007  0.69951  0.72650  Biso   1.000  O
  C1521    1.0000 0.15571  0.76959  0.78601  Biso   1.000  C
  H2019    1.0000 0.16631  0.77469  0.73920  Biso   1.000  H
  H2020    1.0000 0.19771  0.79889  0.75989  Biso   1.000  H
  H2021    1.0000 0.35109  0.75591  0.64091  Biso   1.000  H
  C1522    1.0000 0.39189  0.78870  0.66810  Biso   1.000  C
  C1523    1.0000 0.33110  0.81170  0.63681  Biso   1.000  C
  H2022    1.0000 0.41599  0.83231  0.69551  Biso   1.000  H
  C1524    1.0000 0.37131  0.85970  0.66999  Biso   1.000  C
  H2023    1.0000 0.31581  0.87201  0.64690  Biso   1.000  H
  C1525    1.0000 0.30159  0.87792  0.92681  Biso   1.000  C
  H2024    1.0000 0.33349  0.90170  0.89069  Biso   1.000  H
  H2025    1.0000 0.35279  0.91090  0.92389  Biso   1.000  H
  O104     1.0000 0.42851  0.83091  0.90989  Biso   1.000  O
  C1526    1.0000 0.42519  0.88951  0.93790  Biso   1.000  C
  H2026    1.0000 0.48720  0.85579  0.74640  Biso   1.000  H
  C1527    1.0000 0.52080  0.86179  0.78720  Biso   1.000  C
  C1528    1.0000 0.48350  0.91410  0.75849  Biso   1.000  C
  H2027    1.0000 0.54061  0.88079  0.83050  Biso   1.000  H
  C1529    1.0000 0.51719  0.93091  0.80941  Biso   1.000  C
  H2028    1.0000 0.47549  0.97100  0.78180  Biso   1.000  H
  C1530    1.0000 0.13701  0.68509  0.87762  Biso   1.000  C
  H2029    1.0000 0.16601  0.65241  0.84359  Biso   1.000  H
  H2030    1.0000 0.19090  0.65510  0.87531  Biso   1.000  H
  O105     1.0000 0.12677  0.60205  0.82719  Biso   1.000  O
  C1531    1.0000 0.11730  0.54521  0.85921  Biso   1.000  C
  C1532    1.0000 0.23740  0.75319  0.96819  Biso   1.000  C
  H2031    1.0000 0.26990  0.70689  0.94911  Biso   1.000  H
  H2032    1.0000 0.29651  0.73589  0.97001  Biso   1.000  H
  O106     1.0000 0.31196  0.73210  0.02132  Biso   1.000  O
  C1533    1.0000 0.29490  0.67111  0.04749  Biso   1.000  C
  C1534    1.0000 0.20329  0.68500  0.67901  Biso   1.000  C
  C1535    1.0000 0.14660  0.70779  0.71196  Biso   1.000  C
  C1536    1.0000 0.19030  0.75889  0.68246  Biso   1.000  C
  C1537    1.0000 0.14319  0.80418  0.80158  Biso   1.000  C
  C1538    1.0000 0.14060  0.73291  0.79617  Biso   1.000  C
  H2033    1.0000 0.40160  0.76579  0.68050  Biso   1.000  H
  H2034    1.0000 0.41079  0.79351  0.65079  Biso   1.000  H
  H2035    1.0000 0.30431  0.80379  0.62931  Biso   1.000  H
  H2036    1.0000 0.34810  0.81789  0.61849  Biso   1.000  H
  H2037    1.0000 0.38851  0.86589  0.65191  Biso   1.000  H
  H2038    1.0000 0.37029  0.88360  0.68351  Biso   1.000  H
  C1539    1.0000 0.26530  0.89241  0.91688  Biso   1.000  C
  C1540    1.0000 0.30273  0.85179  0.95218  Biso   1.000  C
  C1541    1.0000 0.46680  0.87500  0.94720  Biso   1.000  C
  C1542    1.0000 0.40130  0.90071  0.96649  Biso   1.000  C
  C1543    1.0000 0.43170  0.92769  0.91809  Biso   1.000  C
  H2039    1.0000 0.52119  0.83300  0.79231  Biso   1.000  H
  H2040    1.0000 0.54601  0.86860  0.77639  Biso   1.000  H
  H2041    1.0000 0.46169  0.91881  0.74339  Biso   1.000  H
  H2042    1.0000 0.50889  0.92159  0.74819  Biso   1.000  H
  H2043    1.0000 0.54189  0.93769  0.79790  Biso   1.000  H
  H2044    1.0000 0.51659  0.94671  0.82889  Biso   1.000  H
  N107     1.0000 0.09696  0.68404  0.86319  Biso   1.000  N
  H2045    1.0000 0.13411  0.68350  0.90050  Biso   1.000  H
  H2046    1.0000 0.14991  0.71089  0.87261  Biso   1.000  H
  C1544    1.0000 0.15251  0.51791  0.87030  Biso   1.000  C
  C1545    1.0000 0.10311  0.52821  0.82810  Biso   1.000  C
  C1546    1.0000 0.08301  0.54309  0.88400  Biso   1.000  C
  N108     1.0000 0.23713  0.78079  0.99480  Biso   1.000  N
  H2047    1.0000 0.24009  0.76899  0.94880  Biso   1.000  H
  H2048    1.0000 0.21130  0.73939  0.96731  Biso   1.000  H
  C1547    1.0000 0.32910  0.68491  0.06839  Biso   1.000  C
  C1548    1.0000 0.30709  0.62860  0.03514  Biso   1.000  C
  C1549    1.0000 0.25730  0.66779  0.06760  Biso   1.000  C
  C1550    1.0000 0.17539  0.68231  0.65091  Biso   1.000  C
  H2049    1.0000 0.23089  0.69049  0.67190  Biso   1.000  H
  H2050    1.0000 0.20329  0.65931  0.69040  Biso   1.000  H
  C1551    1.0000 0.11909  0.70519  0.68381  Biso   1.000  C
  H2051    1.0000 0.14741  0.68180  0.72279  Biso   1.000  H
  H2052    1.0000 0.13629  0.72810  0.72671  Biso   1.000  H
  C1552    1.0000 0.16049  0.75370  0.65419  Biso   1.000  C
  H2053    1.0000 0.21769  0.76391  0.67479  Biso   1.000  H
  H2054    1.0000 0.18199  0.78159  0.69569  Biso   1.000  H
  C1553    1.0000 0.11679  0.80241  0.82670  Biso   1.000  C
  H2055    1.0000 0.15290  0.82939  0.79489  Biso   1.000  H
  C1554    1.0000 0.11380  0.73120  0.82083  Biso   1.000  C
  H2056    1.0000 0.14869  0.70901  0.78611  Biso   1.000  H
  C1555    1.0000 0.23035  0.88130  0.93205  Biso   1.000  C
  H2057    1.0000 0.26411  0.91000  0.89959  Biso   1.000  H
  C1556    1.0000 0.26751  0.83900  0.96630  Biso   1.000  C
  H2058    1.0000 0.32770  0.84271  0.95990  Biso   1.000  H
  H2059    1.0000 0.48341  0.87180  0.92830  Biso   1.000  H
  H2060    1.0000 0.46459  0.84871  0.95750  Biso   1.000  H
  C1557    1.0000 0.48771  0.90481  0.96959  Biso   1.000  C
  C1558    1.0000 0.42191  0.93211  0.98660  Biso   1.000  C
  H2061    1.0000 0.39670  0.87640  0.97919  Biso   1.000  H
  H2062    1.0000 0.37501  0.91099  0.95980  Biso   1.000  H
  H2063    1.0000 0.44741  0.92079  0.89931  Biso   1.000  H
  H2064    1.0000 0.40551  0.93811  0.91119  Biso   1.000  H
  C1559    1.0000 0.45321  0.95899  0.93610  Biso   1.000  C
  C1560    1.0000 0.09591  0.69121  0.83008  Biso   1.000  C
  C1561    1.0000 0.06529  0.67129  0.88239  Biso   1.000  C
  H2065    1.0000 0.17420  0.51830  0.85459  Biso   1.000  H
  H2066    1.0000 0.16330  0.52809  0.89020  Biso   1.000  H
  C1562    1.0000 0.13761  0.47501  0.87470  Biso   1.000  C
  C1563    1.0000 0.08901  0.48571  0.82989  Biso   1.000  C
  H2067    1.0000 0.08110  0.54509  0.82011  Biso   1.000  H
  H2068    1.0000 0.12539  0.52979  0.81290  Biso   1.000  H
  H2069    1.0000 0.09280  0.55259  0.90439  Biso   1.000  H
  H2070    1.0000 0.06031  0.56020  0.87750  Biso   1.000  H
  C1564    1.0000 0.06939  0.49909  0.88640  Biso   1.000  C
  C1565    1.0000 0.26939  0.81090  0.99415  Biso   1.000  C
  C1566    1.0000 0.21270  0.77269  0.01941  Biso   1.000  C
  H2071    1.0000 0.32310  0.71191  0.07660  Biso   1.000  H
  H2072    1.0000 0.35401  0.68649  0.05609  Biso   1.000  H
  C1567    1.0000 0.33490  0.65540  0.09589  Biso   1.000  C
  C1568    1.0000 0.31249  0.59981  0.06329  Biso   1.000  C
  H2073    1.0000 0.28600  0.61821  0.02109  Biso   1.000  H
  H2074    1.0000 0.33230  0.63040  0.02321  Biso   1.000  H
  H2075    1.0000 0.25099  0.69420  0.07671  Biso   1.000  H
  H2076    1.0000 0.23451  0.65961  0.05441  Biso   1.000  H
  C1569    1.0000 0.26261  0.63780  0.09361  Biso   1.000  C
  C1570    1.0000 0.13289  0.67209  0.66191  Biso   1.000  C
  H2077    1.0000 0.18501  0.66041  0.63699  Biso   1.000  H
  C1571    1.0000 0.17369  0.72090  0.63201  Biso   1.000  C
  H2078    1.0000 0.09149  0.69880  0.69110  Biso   1.000  H
  C1572    1.0000 0.11810  0.74539  0.66610  Biso   1.000  C
  H2079    1.0000 0.15989  0.77941  0.64231  Biso   1.000  H
  C1573    1.0000 0.10260  0.76591  0.83602  Biso   1.000  C
  C1574    1.0000 0.10401  0.84139  0.84220  Biso   1.000  C
  C1575    1.0000 0.18979  0.90080  0.92166  Biso   1.000  C
  C1576    1.0000 0.23059  0.85439  0.95580  Biso   1.000  C
  H2080    1.0000 0.51420  0.89459  0.97679  Biso   1.000  H
  C1577    1.0000 0.46241  0.91729  0.99599  Biso   1.000  C
  C1578    1.0000 0.49219  0.94549  0.94650  Biso   1.000  C
  C1579    1.0000 0.42579  0.96891  0.96591  Biso   1.000  C
  H2081    1.0000 0.40539  0.93829  0.00541  Biso   1.000  H
  H2082    1.0000 0.45620  0.98351  0.92301  Biso   1.000  H
  H2083    1.0000 0.06780  0.69010  0.82290  Biso   1.000  H
  H2084    1.0000 0.11070  0.66961  0.81941  Biso   1.000  H
  O107     1.0000 0.07222  0.65811  0.90742  Biso   1.000  O
  C1580    1.0000 0.02130  0.67469  0.87039  Biso   1.000  C
  H2085    1.0000 0.15980  0.45751  0.88209  Biso   1.000  H
  C1581    1.0000 0.12199  0.46059  0.84140  Biso   1.000  C
  C1582    1.0000 0.10329  0.47430  0.89770  Biso   1.000  C
  H2086    1.0000 0.07990  0.47630  0.80899  Biso   1.000  H
  C1583    1.0000 0.05609  0.48601  0.85131  Biso   1.000  C
  H2087    1.0000 0.04621  0.49679  0.90089  Biso   1.000  H
  H2088    1.0000 0.29541  0.79689  0.99389  Biso   1.000  H
  H2089    1.0000 0.26811  0.82700  0.01349  Biso   1.000  H
  O108     1.0000 0.19296  0.74154  0.01892  Biso   1.000  O
  C1584    1.0000 0.20720  0.80089  0.04619  Biso   1.000  C
  H2090    1.0000 0.35751  0.66489  0.10931  Biso   1.000  H
  C1585    1.0000 0.34490  0.61379  0.08310  Biso   1.000  C
  C1586    1.0000 0.29589  0.65450  0.11570  Biso   1.000  C
  H2091    1.0000 0.31951  0.57269  0.05520  Biso   1.000  H
  C1587    1.0000 0.27310  0.59709  0.08079  Biso   1.000  C
  H2092    1.0000 0.23701  0.63580  0.10549  Biso   1.000  H
  H2093    1.0000 0.11470  0.67021  0.64380  Biso   1.000  H
  H2094    1.0000 0.13280  0.64611  0.67290  Biso   1.000  H
  H2095    1.0000 0.20039  0.72720  0.62320  Biso   1.000  H
  H2096    1.0000 0.15451  0.71830  0.61460  Biso   1.000  H
  H2097    1.0000 0.09920  0.74390  0.64851  Biso   1.000  H
  H2098    1.0000 0.10941  0.76711  0.68029  Biso   1.000  H
  H2099    1.0000 0.08480  0.76430  0.85319  Biso   1.000  H
  N109     1.0000 0.11001  0.84241  0.87489  Biso   1.000  N
  H2100    1.0000 0.11909  0.86371  0.83260  Biso   1.000  H
  H2101    1.0000 0.07530  0.84599  0.83791  Biso   1.000  H
  N110     1.0000 0.13800  0.86819  0.84900  Biso   1.000  N
  N111     1.0000 0.18349  0.89620  0.88766  Biso   1.000  N
  N112     1.0000 0.15929  0.87049  0.91839  Biso   1.000  N
  H2102    1.0000 0.16751  0.88799  0.93301  Biso   1.000  H
  H2103    1.0000 0.19000  0.92951  0.92711  Biso   1.000  H
  H2104    1.0000 0.20631  0.84611  0.96521  Biso   1.000  H
  H2105    1.0000 0.47630  0.93871  0.00750  Biso   1.000  H
  H2106    1.0000 0.45909  0.89441  0.01030  Biso   1.000  H
  H2107    1.0000 0.50560  0.96720  0.95820  Biso   1.000  H
  H2108    1.0000 0.50889  0.93880  0.92821  Biso   1.000  H
  H2109    1.0000 0.43789  0.99101  0.97791  Biso   1.000  H
  H2110    1.0000 0.39900  0.97751  0.95880  Biso   1.000  H
  C1588    1.0000 0.01219  0.64049  0.84700  Biso   1.000  C
  C1589    1.0000 0.01010  0.71409  0.85690  Biso   1.000  C
  C1590    1.0000 0.99450  0.66949  0.89971  Biso   1.000  C
  H2111    1.0000 0.14430  0.46160  0.82630  Biso   1.000  H
  H2112    1.0000 0.11279  0.43260  0.84290  Biso   1.000  H
  H2113    1.0000 0.09421  0.44649  0.90071  Biso   1.000  H
  H2114    1.0000 0.11261  0.48460  0.91809  Biso   1.000  H
  H2115    1.0000 0.04409  0.45900  0.85210  Biso   1.000  H
  H2116    1.0000 0.03551  0.50470  0.84359  Biso   1.000  H
  C1591    1.0000 0.19609  0.84399  0.03600  Biso   1.000  C
  C1592    1.0000 0.24460  0.80119  0.06909  Biso   1.000  C
  C1593    1.0000 0.17250  0.78440  0.06620  Biso   1.000  C
  H2117    1.0000 0.36999  0.61501  0.07100  Biso   1.000  H
  H2118    1.0000 0.34891  0.59491  0.10060  Biso   1.000  H
  H2119    1.0000 0.28890  0.68159  0.12299  Biso   1.000  H
  H2120    1.0000 0.29920  0.63691  0.13411  Biso   1.000  H
  H2121    1.0000 0.25171  0.58780  0.06660  Biso   1.000  H
  H2122    1.0000 0.27549  0.57771  0.09810  Biso   1.000  H
  C1594    1.0000 0.14980  0.82870  0.88570  Biso   1.000  C
  C1595    1.0000 0.08689  0.86030  0.89789  Biso   1.000  C
  C1596    1.0000 0.17599  0.85280  0.86410  Biso   1.000  C
  C1597    1.0000 0.13411  0.91159  0.84800  Biso   1.000  C
  C1598    1.0000 0.18450  0.85630  0.87580  Biso   1.000  C
  C1599    1.0000 0.17070  0.92709  0.86750  Biso   1.000  C
  C1600    1.0000 0.16640  0.83981  0.89801  Biso   1.000  C
  C1601    1.0000 0.11951  0.87981  0.92730  Biso   1.000  C
  H2123    1.0000 0.01921  0.61430  0.85641  Biso   1.000  H
  H2124    1.0000 0.02820  0.64399  0.82780  Biso   1.000  H
  C1602    1.0000 0.96601  0.64201  0.83910  Biso   1.000  C
  H2125    1.0000 0.02829  0.72030  0.83940  Biso   1.000  H
  H2126    1.0000 0.01389  0.73500  0.87300  Biso   1.000  H
  C1603    1.0000 0.96679  0.71600  0.84520  Biso   1.000  C
  H2127    1.0000 0.00069  0.69061  0.91511  Biso   1.000  H
  H2128    1.0000 0.99991  0.64321  0.90949  Biso   1.000  H
  C1604    1.0000 0.95030  0.67221  0.88999  Biso   1.000  C
  H2129    1.0000 0.21781  0.85519  0.02309  Biso   1.000  H
  H2130    1.0000 0.17139  0.84339  0.02330  Biso   1.000  H
  C1605    1.0000 0.18961  0.87010  0.06441  Biso   1.000  C
  C1606    1.0000 0.23561  0.82810  0.09610  Biso   1.000  C
  H2131    1.0000 0.25001  0.77380  0.07660  Biso   1.000  H
  H2132    1.0000 0.26859  0.81090  0.05791  Biso   1.000  H
  H2133    1.0000 0.14830  0.78180  0.05311  Biso   1.000  H
  H2134    1.0000 0.17961  0.75749  0.07389  Biso   1.000  H
  C1607    1.0000 0.16360  0.81099  0.09321  Biso   1.000  C
  H2135    1.0000 0.15490  0.80161  0.87729  Biso   1.000  H
  H2136    1.0000 0.14959  0.82670  0.90870  Biso   1.000  H
  H2137    1.0000 0.14269  0.82219  0.89761  Biso   1.000  H
  O109     1.0000 0.09979  0.86711  0.92340  Biso   1.000  O
  C1608    1.0000 0.04349  0.87081  0.88990  Biso   1.000  C
  O110     1.0000 0.09349  0.85570  0.91979  Biso   1.000  O
  H2138    1.0000 0.18480  0.85770  0.85280  Biso   1.000  H
  H2139    1.0000 0.19660  0.87401  0.86410  Biso   1.000  H
  H2140    1.0000 0.18639  0.82980  0.85210  Biso   1.000  H
  O111     1.0000 0.16070  0.91890  0.84089  Biso   1.000  O
  O112     1.0000 0.15801  0.92661  0.85459  Biso   1.000  O
  C1609    1.0000 0.09251  0.92801  0.83870  Biso   1.000  C
  H2141    1.0000 0.20980  0.84381  0.88251  Biso   1.000  H
  C1610    1.0000 0.17441  0.97100  0.87820  Biso   1.000  C
  H2142    1.0000 0.18910  0.82389  0.90600  Biso   1.000  H
  C1611    1.0000 0.10911  0.91410  0.94960  Biso   1.000  C
  H2143    1.0000 0.95881  0.61940  0.82491  Biso   1.000  H
  C1612    1.0000 0.95890  0.68099  0.82320  Biso   1.000  C
  C1613    1.0000 0.94199  0.63900  0.86951  Biso   1.000  C
  H2144    1.0000 0.96090  0.74211  0.83490  Biso   1.000  H
  C1614    1.0000 0.94149  0.71039  0.87589  Biso   1.000  C
  H2145    1.0000 0.93339  0.66929  0.90910  Biso   1.000  H
  H2146    1.0000 0.18319  0.89791  0.05751  Biso   1.000  H
  C1615    1.0000 0.22450  0.87090  0.08419  Biso   1.000  C
  C1616    1.0000 0.15350  0.85289  0.08380  Biso   1.000  C
  H2147    1.0000 0.25980  0.82989  0.10980  Biso   1.000  H
  C1617    1.0000 0.20051  0.81149  0.11509  Biso   1.000  C
  H2148    1.0000 0.14039  0.79961  0.10491  Biso   1.000  H
  C1618    1.0000 0.01939  0.83611  0.87750  Biso   1.000  C
  C1619    1.0000 0.04161  0.90699  0.86629  Biso   1.000  C
  C1620    1.0000 0.02360  0.88449  0.92040  Biso   1.000  C
  H2149    1.0000 0.03050  0.84970  0.90870  Biso   1.000  H
  C1621    1.0000 0.05609  0.91840  0.85860  Biso   1.000  C
  C1622    1.0000 0.08519  0.91571  0.80370  Biso   1.000  C
  C1623    1.0000 0.09761  0.97330  0.84290  Biso   1.000  C
  C1624    1.0000 0.21470  0.98139  0.89181  Biso   1.000  C
  C1625    1.0000 0.13961  0.98121  0.90150  Biso   1.000  C
  C1626    1.0000 0.17100  0.99689  0.84909  Biso   1.000  C
  C1627    1.0000 0.09860  0.92401  0.98250  Biso   1.000  C
  H2150    1.0000 0.09911  0.91060  0.96169  Biso   1.000  H
  C1628    1.0000 0.11291  0.95540  0.93559  Biso   1.000  C
  C1629    1.0000 0.13289  0.90959  0.98101  Biso   1.000  C
  C1630    1.0000 0.06389  0.90881  0.95540  Biso   1.000  C
  H2151    1.0000 0.93091  0.68219  0.81579  Biso   1.000  H
  H2152    1.0000 0.97661  0.68320  0.80480  Biso   1.000  H
  H2153    1.0000 0.91311  0.63849  0.86459  Biso   1.000  H
  H2154    1.0000 0.94880  0.61370  0.88020  Biso   1.000  H
  H2155    1.0000 0.94791  0.73210  0.89069  Biso   1.000  H
  H2156    1.0000 0.91269  0.71191  0.87090  Biso   1.000  H
  H2157    1.0000 0.21930  0.88850  0.10220  Biso   1.000  H
  H2158    1.0000 0.24729  0.88211  0.07240  Biso   1.000  H
  H2159    1.0000 0.14890  0.86950  0.10251  Biso   1.000  H
  H2160    1.0000 0.12889  0.85301  0.07100  Biso   1.000  H
  H2161    1.0000 0.19541  0.82861  0.13350  Biso   1.000  H
  H2162    1.0000 0.20661  0.78410  0.12250  Biso   1.000  H
  H2163    1.0000 0.02040  0.81421  0.89309  Biso   1.000  H
  H2164    1.0000 0.03241  0.82619  0.85830  Biso   1.000  H
  C1631    1.0000 0.00239  0.83969  0.90730  Biso   1.000  C
  C1632    1.0000 0.97509  0.84510  0.87009  Biso   1.000  C
  H2165    1.0000 0.05379  0.89949  0.84611  Biso   1.000  H
  H2166    1.0000 0.05601  0.93040  0.87480  Biso   1.000  H
  H2167    1.0000 0.06141  0.92721  0.88030  Biso   1.000  H
  H2168    1.0000 0.05230  0.88901  0.85900  Biso   1.000  H
  C1633    1.0000 0.01679  0.93820  0.84730  Biso   1.000  C
  C1634    1.0000 0.99531  0.91660  0.86219  Biso   1.000  C
  H2169    1.0000 0.03761  0.90839  0.92860  Biso   1.000  H
  H2170    1.0000 0.02569  0.86299  0.93620  Biso   1.000  H
  C1635    1.0000 0.97431  0.89561  0.91390  Biso   1.000  C
  Cl64     1.0000 0.96711  0.88031  0.91620  Biso   1.000  Cl
  C1636    1.0000 0.10371  0.94621  0.78839  Biso   1.000  C
  Cl65     1.0000 0.08480  0.90209  0.77294  Biso   1.000  Cl
  C1637    1.0000 0.04570  0.93820  0.79219  Biso   1.000  C
  H2171    1.0000 0.08169  0.88641  0.80200  Biso   1.000  H
  H2172    1.0000 0.10831  0.92359  0.79070  Biso   1.000  H
  H2173    1.0000 0.12300  0.98220  0.83329  Biso   1.000  H
  H2174    1.0000 0.09830  0.97999  0.86529  Biso   1.000  H
  C1638    1.0000 0.05789  0.99680  0.82521  Biso   1.000  C
  H2175    1.0000 0.21990  0.96380  0.90989  Biso   1.000  H
  H2176    1.0000 0.23549  0.97601  0.87601  Biso   1.000  H
  C1639    1.0000 0.21781  0.02449  0.90211  Biso   1.000  C
  H2177    1.0000 0.14239  0.96541  0.92080  Biso   1.000  H
  H2178    1.0000 0.11341  0.97500  0.89190  Biso   1.000  H
  C1640    1.0000 0.14290  0.02820  0.90910  Biso   1.000  C
  H2179    1.0000 0.14511  0.99161  0.83870  Biso   1.000  H
  H2180    1.0000 0.19260  0.98981  0.83430  Biso   1.000  H
  C1641    1.0000 0.17450  0.04770  0.85851  Biso   1.000  C
  Cl66     1.0000 0.07100  0.96580  0.98001  Biso   1.000  Cl
  Cl67     1.0000 0.15069  0.93730  0.99420  Biso   1.000  Cl
  Cl68     1.0000 0.08259  0.88969  0.01098  Biso   1.000  Cl
  C1642    1.0000 0.11640  0.94391  0.00340  Biso   1.000  C
  C1643    1.0000 0.07330  0.93769  0.00690  Biso   1.000  C
  H2181    1.0000 0.09549  0.95699  0.91700  Biso   1.000  H
  H2182    1.0000 0.14080  0.95920  0.92851  Biso   1.000  H
  C1644    1.0000 0.10191  0.98949  0.95801  Biso   1.000  C
  H2183    1.0000 0.16189  0.91299  0.97730  Biso   1.000  H
  H2184    1.0000 0.12829  0.88291  0.99031  Biso   1.000  H
  H2185    1.0000 0.05851  0.88151  0.96330  Biso   1.000  H
  H2186    1.0000 0.04911  0.91239  0.93559  Biso   1.000  H
  C1645    1.0000 0.04839  0.94370  0.98229  Biso   1.000  C
  C1646    1.0000 0.96069  0.85779  0.90551  Biso   1.000  C
  H2187    1.0000 0.97100  0.83790  0.92049  Biso   1.000  H
  Cl69     1.0000 0.99119  0.82559  0.86920  Biso   1.000  Cl
  Cl70     1.0000 0.99501  0.80331  0.93319  Biso   1.000  Cl
  H2188    1.0000 0.96009  0.82210  0.86100  Biso   1.000  H
  C1647    1.0000 0.97500  0.88390  0.84930  Biso   1.000  C
  C1648    1.0000 0.01281  0.92909  0.81139  Biso   1.000  C
  C1649    1.0000 0.03029  0.98569  0.84851  Biso   1.000  C
  H2189    1.0000 0.99220  0.94029  0.84821  Biso   1.000  H
  H2190    1.0000 0.99271  0.93151  0.86000  Biso   1.000  H
  C1650    1.0000 0.97679  0.92551  0.89281  Biso   1.000  C
  H2191    1.0000 0.96099  0.90499  0.93349  Biso   1.000  H
  H2192    1.0000 0.11849  0.93901  0.80780  Biso   1.000  H
  Cl71     1.0000 0.13698  0.97076  0.76444  Biso   1.000  Cl
  Cl72     1.0000 0.06470  0.97930  0.79960  Biso   1.000  Cl
  H2193    1.0000 0.03970  0.93199  0.76980  Biso   1.000  H
  C1651    1.0000 0.05601  0.98029  0.79620  Biso   1.000  C
  H2194    1.0000 0.06171  0.02640  0.82430  Biso   1.000  H
  H2195    1.0000 0.24371  0.03029  0.91280  Biso   1.000  H
  C1652    1.0000 0.18110  0.03531  0.92271  Biso   1.000  C
  C1653    1.0000 0.21470  0.04591  0.86729  Biso   1.000  C
  H2196    1.0000 0.12049  0.03790  0.92250  Biso   1.000  H
  C1654    1.0000 0.14651  0.05030  0.88099  Biso   1.000  C
  H2197    1.0000 0.16939  0.06589  0.84049  Biso   1.000  H
  C1655    1.0000 0.12249  0.98190  0.99010  Biso   1.000  C
  H2198    1.0000 0.12981  0.94241  0.02409  Biso   1.000  H
  H2199    1.0000 0.06930  0.90991  0.01410  Biso   1.000  H
  H2200    1.0000 0.06410  0.95540  0.02400  Biso   1.000  H
  C1656    1.0000 0.05460  0.97581  0.96199  Biso   1.000  C
  H2201    1.0000 0.10580  0.01691  0.94929  Biso   1.000  H
  H2202    1.0000 0.01959  0.94041  0.98809  Biso   1.000  H
  H2203    1.0000 0.93121  0.85731  0.90651  Biso   1.000  H
  H2204    1.0000 0.98731  0.87739  0.82889  Biso   1.000  H
  H2205    1.0000 0.94701  0.89181  0.84530  Biso   1.000  H
  H2206    1.0000 0.00681  0.90021  0.80899  Biso   1.000  H
  H2207    1.0000 0.98931  0.94391  0.80349  Biso   1.000  H
  H2208    1.0000 0.04221  0.99131  0.86920  Biso   1.000  H
  H2209    1.0000 0.99391  0.99749  0.84639  Biso   1.000  H
  H2210    1.0000 0.00609  0.00251  0.84639  Biso   1.000  H
  H2211    1.0000 0.99211  0.94761  0.90241  Biso   1.000  H
  H2212    1.0000 0.94949  0.93551  0.88889  Biso   1.000  H
  H2213    1.0000 0.08229  0.98450  0.78620  Biso   1.000  H
  H2214    1.0000 0.03629  0.99609  0.78410  Biso   1.000  H
  H2215    1.0000 0.18280  0.01980  0.94230  Biso   1.000  H
  H2216    1.0000 0.18289  0.06389  0.92830  Biso   1.000  H
  H2217    1.0000 0.22620  0.07321  0.86820  Biso   1.000  H
  H2218    1.0000 0.23011  0.03020  0.85189  Biso   1.000  H
  H2219    1.0000 0.12079  0.04639  0.87021  Biso   1.000  H
  H2220    1.0000 0.14690  0.07859  0.88771  Biso   1.000  H
  H2221    1.0000 0.15159  0.98599  0.98751  Biso   1.000  H
  H2222    1.0000 0.11279  0.00230  0.00501  Biso   1.000  H
  H2223    1.0000 0.03910  0.99901  0.96971  Biso   1.000  H
  H2224    1.0000 0.04391  0.96861  0.94130  Biso   1.000  H
