data_image0
_cell_length_a       20.33
_cell_length_b       20.33
_cell_length_c       20.33
_cell_angle_alpha    90
_cell_angle_beta     90
_cell_angle_gamma    90

_symmetry_space_group_name_H-M    "P 1"
_symmetry_int_tables_number       1

loop_
  _symmetry_equiv_pos_as_xyz
  'x, y, z'

loop_
  _atom_site_label
  _atom_site_occupancy
  _atom_site_fract_x
  _atom_site_fract_y
  _atom_site_fract_z
  _atom_site_thermal_displace_type
  _atom_site_B_iso_or_equiv
  _atom_site_type_symbol
  C1       1.0000 0.40915  0.32086  0.33242  Biso   1.000  C
  H1       1.0000 0.44693  0.29769  0.31741  Biso   1.000  H
  C2       1.0000 0.37575  0.29882  0.38810  Biso   1.000  C
  C3       1.0000 0.38810  0.37575  0.29882  Biso   1.000  C
  C4       1.0000 0.32086  0.33242  0.40915  Biso   1.000  C
  C5       1.0000 0.40059  0.23984  0.42700  Biso   1.000  C
  C6       1.0000 0.33242  0.40915  0.32086  Biso   1.000  C
  C7       1.0000 0.42700  0.40059  0.23984  Biso   1.000  C
  H2       1.0000 0.29769  0.31741  0.44693  Biso   1.000  H
  C8       1.0000 0.29882  0.38810  0.37575  Biso   1.000  C
  N1       1.0000 0.47245  0.23896  0.43114  Biso   1.000  N
  H3       1.0000 0.38190  0.24132  0.47191  Biso   1.000  H
  H4       1.0000 0.38519  0.19892  0.40561  Biso   1.000  H
  H5       1.0000 0.31741  0.44693  0.29769  Biso   1.000  H
  N2       1.0000 0.43114  0.47245  0.23896  Biso   1.000  N
  H6       1.0000 0.47191  0.38190  0.24132  Biso   1.000  H
  H7       1.0000 0.40561  0.38519  0.19892  Biso   1.000  H
  C9       1.0000 0.23984  0.42700  0.40059  Biso   1.000  C
  C10      1.0000 0.50290  0.29651  0.46272  Biso   1.000  C
  C11      1.0000 0.51363  0.19090  0.40989  Biso   1.000  C
  C12      1.0000 0.46272  0.50290  0.29651  Biso   1.000  C
  C13      1.0000 0.40989  0.51363  0.19090  Biso   1.000  C
  N3       1.0000 0.23896  0.43114  0.47245  Biso   1.000  N
  H8       1.0000 0.24132  0.47191  0.38190  Biso   1.000  H
  H9       1.0000 0.19892  0.40561  0.38519  Biso   1.000  H
  C14      1.0000 0.49710  0.29651  0.53728  Biso   1.000  C
  H10      1.0000 0.48190  0.33689  0.44530  Biso   1.000  H
  H11      1.0000 0.55002  0.29788  0.45061  Biso   1.000  H
  O1       1.0000 0.57329  0.19651  0.41854  Biso   1.000  O
  C15      1.0000 0.48869  0.13000  0.37423  Biso   1.000  C
  C16      1.0000 0.53728  0.49710  0.29651  Biso   1.000  C
  H12      1.0000 0.44530  0.48190  0.33689  Biso   1.000  H
  H13      1.0000 0.45061  0.55002  0.29788  Biso   1.000  H
  O2       1.0000 0.41854  0.57329  0.19651  Biso   1.000  O
  C17      1.0000 0.37423  0.48869  0.13000  Biso   1.000  C
  C18      1.0000 0.29651  0.46272  0.50290  Biso   1.000  C
  C19      1.0000 0.19090  0.40989  0.51363  Biso   1.000  C
  N4       1.0000 0.52755  0.23896  0.56891  Biso   1.000  N
  H14      1.0000 0.51810  0.33689  0.55470  Biso   1.000  H
  H15      1.0000 0.45002  0.29788  0.54939  Biso   1.000  H
  Br1      1.0000 0.42774  0.08032  0.42961  Biso   1.000  Br
  C20      1.0000 0.54761  0.08731  0.35470  Biso   1.000  C
  C21      1.0000 0.44850  0.13891  0.30679  Biso   1.000  C
  Br2      1.0000 0.44245  0.14643  0.29867  Biso   1.000  Br
  C22      1.0000 0.45170  0.08721  0.42691  Biso   1.000  C
  N5       1.0000 0.56891  0.52755  0.23896  Biso   1.000  N
  H16      1.0000 0.55470  0.51810  0.33689  Biso   1.000  H
  H17      1.0000 0.54939  0.45002  0.29788  Biso   1.000  H
  Br3      1.0000 0.42961  0.42774  0.08032  Biso   1.000  Br
  C23      1.0000 0.35470  0.54761  0.08731  Biso   1.000  C
  C24      1.0000 0.30679  0.44850  0.13891  Biso   1.000  C
  Br4      1.0000 0.29867  0.44245  0.14643  Biso   1.000  Br
  C25      1.0000 0.42691  0.45170  0.08721  Biso   1.000  C
  C26      1.0000 0.29651  0.53728  0.49710  Biso   1.000  C
  H18      1.0000 0.33689  0.44530  0.48190  Biso   1.000  H
  H19      1.0000 0.29788  0.45061  0.55002  Biso   1.000  H
  O3       1.0000 0.19651  0.41854  0.57329  Biso   1.000  O
  C27      1.0000 0.13000  0.37423  0.48869  Biso   1.000  C
  C28      1.0000 0.59941  0.23984  0.57300  Biso   1.000  C
  C29      1.0000 0.48642  0.19090  0.59011  Biso   1.000  C
  H20      1.0000 0.57378  0.07732  0.39390  Biso   1.000  H
  H21      1.0000 0.57491  0.11112  0.32282  Biso   1.000  H
  H22      1.0000 0.53192  0.04629  0.33502  Biso   1.000  H
  H23      1.0000 0.43532  0.09572  0.29011  Biso   1.000  H
  H24      1.0000 0.47649  0.16080  0.27423  Biso   1.000  H
  H25      1.0000 0.40930  0.16581  0.31490  Biso   1.000  H
  H26      1.0000 0.43468  0.04722  0.40610  Biso   1.000  H
  H27      1.0000 0.41510  0.11249  0.44540  Biso   1.000  H
  H28      1.0000 0.48229  0.07511  0.46222  Biso   1.000  H
  C30      1.0000 0.57300  0.59941  0.23984  Biso   1.000  C
  C31      1.0000 0.59011  0.48642  0.19090  Biso   1.000  C
  H29      1.0000 0.39390  0.57378  0.07732  Biso   1.000  H
  H30      1.0000 0.32282  0.57491  0.11112  Biso   1.000  H
  H31      1.0000 0.33502  0.53192  0.04629  Biso   1.000  H
  H32      1.0000 0.29011  0.43532  0.09572  Biso   1.000  H
  H33      1.0000 0.27423  0.47649  0.16080  Biso   1.000  H
  H34      1.0000 0.31490  0.40930  0.16581  Biso   1.000  H
  H35      1.0000 0.40610  0.43468  0.04722  Biso   1.000  H
  H36      1.0000 0.44540  0.41510  0.11249  Biso   1.000  H
  H37      1.0000 0.46222  0.48229  0.07511  Biso   1.000  H
  N6       1.0000 0.23896  0.56891  0.52755  Biso   1.000  N
  H38      1.0000 0.33689  0.55470  0.51810  Biso   1.000  H
  H39      1.0000 0.29788  0.54939  0.45002  Biso   1.000  H
  Br5      1.0000 0.08032  0.42961  0.42774  Biso   1.000  Br
  C32      1.0000 0.08731  0.35470  0.54761  Biso   1.000  C
  C33      1.0000 0.13891  0.30679  0.44850  Biso   1.000  C
  Br6      1.0000 0.14643  0.29867  0.44245  Biso   1.000  Br
  C34      1.0000 0.08721  0.42691  0.45170  Biso   1.000  C
  C35      1.0000 0.62425  0.29882  0.61190  Biso   1.000  C
  H40      1.0000 0.61810  0.24132  0.52809  Biso   1.000  H
  H41      1.0000 0.61481  0.19892  0.59439  Biso   1.000  H
  O4       1.0000 0.42671  0.19651  0.58146  Biso   1.000  O
  C36      1.0000 0.51131  0.13000  0.62582  Biso   1.000  C
  C37      1.0000 0.61190  0.62425  0.29882  Biso   1.000  C
  H42      1.0000 0.52809  0.61810  0.24132  Biso   1.000  H
  H43      1.0000 0.59439  0.61481  0.19892  Biso   1.000  H
  O5       1.0000 0.58146  0.42671  0.19651  Biso   1.000  O
  C38      1.0000 0.62582  0.51131  0.13000  Biso   1.000  C
  C39      1.0000 0.23984  0.57300  0.59941  Biso   1.000  C
  C40      1.0000 0.19090  0.59011  0.48642  Biso   1.000  C
  H44      1.0000 0.07732  0.39390  0.57378  Biso   1.000  H
  H45      1.0000 0.11112  0.32282  0.57491  Biso   1.000  H
  H46      1.0000 0.04629  0.33502  0.53192  Biso   1.000  H
  H47      1.0000 0.09572  0.29011  0.43532  Biso   1.000  H
  H48      1.0000 0.16080  0.27423  0.47649  Biso   1.000  H
  H49      1.0000 0.16581  0.31490  0.40930  Biso   1.000  H
  H50      1.0000 0.04722  0.40610  0.43468  Biso   1.000  H
  H51      1.0000 0.11249  0.44540  0.41510  Biso   1.000  H
  H52      1.0000 0.07511  0.46222  0.48229  Biso   1.000  H
  C41      1.0000 0.59085  0.32086  0.66758  Biso   1.000  C
  C42      1.0000 0.67914  0.33242  0.59085  Biso   1.000  C
  Br7      1.0000 0.57226  0.08032  0.57039  Biso   1.000  Br
  C43      1.0000 0.45239  0.08731  0.64530  Biso   1.000  C
  C44      1.0000 0.55150  0.13891  0.69321  Biso   1.000  C
  Br8      1.0000 0.55755  0.14643  0.70133  Biso   1.000  Br
  C45      1.0000 0.54830  0.08721  0.57309  Biso   1.000  C
  C46      1.0000 0.59085  0.67914  0.33242  Biso   1.000  C
  C47      1.0000 0.66758  0.59085  0.32086  Biso   1.000  C
  Br9      1.0000 0.57039  0.57226  0.08032  Biso   1.000  Br
  C48      1.0000 0.64530  0.45239  0.08731  Biso   1.000  C
  C49      1.0000 0.69321  0.55150  0.13891  Biso   1.000  C
  Br10     1.0000 0.70133  0.55755  0.14643  Biso   1.000  Br
  C50      1.0000 0.57309  0.54830  0.08721  Biso   1.000  C
  C51      1.0000 0.29882  0.61190  0.62425  Biso   1.000  C
  H53      1.0000 0.24132  0.52809  0.61810  Biso   1.000  H
  H54      1.0000 0.19892  0.59439  0.61481  Biso   1.000  H
  O6       1.0000 0.19651  0.58146  0.42671  Biso   1.000  O
  C52      1.0000 0.13000  0.62582  0.51131  Biso   1.000  C
  H55      1.0000 0.55312  0.29769  0.68259  Biso   1.000  H
  C53      1.0000 0.61190  0.37575  0.70118  Biso   1.000  C
  H56      1.0000 0.70231  0.31741  0.55312  Biso   1.000  H
  C54      1.0000 0.70118  0.38810  0.62425  Biso   1.000  C
  H57      1.0000 0.42622  0.07732  0.60610  Biso   1.000  H
  H58      1.0000 0.42509  0.11112  0.67723  Biso   1.000  H
  H59      1.0000 0.46813  0.04629  0.66503  Biso   1.000  H
  H60      1.0000 0.56468  0.09572  0.70989  Biso   1.000  H
  H61      1.0000 0.52351  0.16080  0.72582  Biso   1.000  H
  H62      1.0000 0.59070  0.16581  0.68510  Biso   1.000  H
  H63      1.0000 0.56532  0.04722  0.59390  Biso   1.000  H
  H64      1.0000 0.58490  0.11249  0.55460  Biso   1.000  H
  H65      1.0000 0.51771  0.07511  0.53783  Biso   1.000  H
  H66      1.0000 0.55312  0.70231  0.31741  Biso   1.000  H
  C55      1.0000 0.62425  0.70118  0.38810  Biso   1.000  C
  H67      1.0000 0.68259  0.55312  0.29769  Biso   1.000  H
  C56      1.0000 0.70118  0.61190  0.37575  Biso   1.000  C
  H68      1.0000 0.60610  0.42622  0.07732  Biso   1.000  H
  H69      1.0000 0.67723  0.42509  0.11112  Biso   1.000  H
  H70      1.0000 0.66503  0.46813  0.04629  Biso   1.000  H
  H71      1.0000 0.70989  0.56468  0.09572  Biso   1.000  H
  H72      1.0000 0.72582  0.52351  0.16080  Biso   1.000  H
  H73      1.0000 0.68510  0.59070  0.16581  Biso   1.000  H
  H74      1.0000 0.59390  0.56532  0.04722  Biso   1.000  H
  H75      1.0000 0.55460  0.58490  0.11249  Biso   1.000  H
  H76      1.0000 0.53783  0.51771  0.07511  Biso   1.000  H
  C57      1.0000 0.33242  0.59085  0.67914  Biso   1.000  C
  C58      1.0000 0.32086  0.66758  0.59085  Biso   1.000  C
  Br11     1.0000 0.08032  0.57039  0.57226  Biso   1.000  Br
  C59      1.0000 0.08731  0.64530  0.45239  Biso   1.000  C
  C60      1.0000 0.13891  0.69321  0.55150  Biso   1.000  C
  Br12     1.0000 0.14643  0.70133  0.55755  Biso   1.000  Br
  C61      1.0000 0.08721  0.57309  0.54830  Biso   1.000  C
  C62      1.0000 0.66758  0.40915  0.67914  Biso   1.000  C
  C63      1.0000 0.57300  0.40059  0.76016  Biso   1.000  C
  C64      1.0000 0.76016  0.42700  0.59941  Biso   1.000  C
  C65      1.0000 0.67914  0.66758  0.40915  Biso   1.000  C
  C66      1.0000 0.59941  0.76016  0.42700  Biso   1.000  C
  C67      1.0000 0.76016  0.57300  0.40059  Biso   1.000  C
  H77      1.0000 0.31741  0.55312  0.70231  Biso   1.000  H
  C68      1.0000 0.38810  0.62425  0.70118  Biso   1.000  C
  H78      1.0000 0.29769  0.68259  0.55312  Biso   1.000  H
  C69      1.0000 0.37575  0.70118  0.61190  Biso   1.000  C
  H79      1.0000 0.07732  0.60610  0.42622  Biso   1.000  H
  H80      1.0000 0.11112  0.67723  0.42509  Biso   1.000  H
  H81      1.0000 0.04629  0.66503  0.46813  Biso   1.000  H
  H82      1.0000 0.09572  0.70989  0.56468  Biso   1.000  H
  H83      1.0000 0.16080  0.72582  0.52351  Biso   1.000  H
  H84      1.0000 0.16581  0.68510  0.59070  Biso   1.000  H
  H85      1.0000 0.04722  0.59390  0.56532  Biso   1.000  H
  H86      1.0000 0.11249  0.55460  0.58490  Biso   1.000  H
  H87      1.0000 0.07511  0.53783  0.51771  Biso   1.000  H
  H88      1.0000 0.68259  0.44693  0.70231  Biso   1.000  H
  N7       1.0000 0.56891  0.47245  0.76104  Biso   1.000  N
  H89      1.0000 0.52809  0.38190  0.75868  Biso   1.000  H
  H90      1.0000 0.59439  0.38519  0.80108  Biso   1.000  H
  N8       1.0000 0.76104  0.43114  0.52755  Biso   1.000  N
  H91      1.0000 0.75868  0.47191  0.61810  Biso   1.000  H
  H92      1.0000 0.80108  0.40561  0.61481  Biso   1.000  H
  H93      1.0000 0.70231  0.68259  0.44693  Biso   1.000  H
  N9       1.0000 0.52755  0.76104  0.43114  Biso   1.000  N
  H94      1.0000 0.61810  0.75868  0.47191  Biso   1.000  H
  H95      1.0000 0.61481  0.80108  0.40561  Biso   1.000  H
  N10      1.0000 0.76104  0.56891  0.47245  Biso   1.000  N
  H96      1.0000 0.75868  0.52809  0.38190  Biso   1.000  H
  H97      1.0000 0.80108  0.59439  0.38519  Biso   1.000  H
  C70      1.0000 0.40915  0.67914  0.66758  Biso   1.000  C
  C71      1.0000 0.42700  0.59941  0.76016  Biso   1.000  C
  C72      1.0000 0.40059  0.76016  0.57300  Biso   1.000  C
  C73      1.0000 0.53728  0.50290  0.70349  Biso   1.000  C
  C74      1.0000 0.59011  0.51363  0.80910  Biso   1.000  C
  C75      1.0000 0.70349  0.46272  0.49710  Biso   1.000  C
  C76      1.0000 0.80910  0.40989  0.48642  Biso   1.000  C
  C77      1.0000 0.49710  0.70349  0.46272  Biso   1.000  C
  C78      1.0000 0.48642  0.80910  0.40989  Biso   1.000  C
  C79      1.0000 0.70349  0.53728  0.50290  Biso   1.000  C
  C80      1.0000 0.80910  0.59011  0.51363  Biso   1.000  C
  H98      1.0000 0.44693  0.70231  0.68259  Biso   1.000  H
  N11      1.0000 0.43114  0.52755  0.76104  Biso   1.000  N
  H99      1.0000 0.47191  0.61810  0.75868  Biso   1.000  H
  H100     1.0000 0.40561  0.61481  0.80108  Biso   1.000  H
  N12      1.0000 0.47245  0.76104  0.56891  Biso   1.000  N
  H101     1.0000 0.38190  0.75868  0.52809  Biso   1.000  H
  H102     1.0000 0.38519  0.80108  0.59439  Biso   1.000  H
  C81      1.0000 0.46272  0.49710  0.70349  Biso   1.000  C
  H103     1.0000 0.55470  0.48190  0.66311  Biso   1.000  H
  H104     1.0000 0.54939  0.55002  0.70212  Biso   1.000  H
  O7       1.0000 0.58146  0.57329  0.80349  Biso   1.000  O
  C82      1.0000 0.62582  0.48869  0.87000  Biso   1.000  C
  H105     1.0000 0.66311  0.44530  0.51810  Biso   1.000  H
  H106     1.0000 0.70212  0.45061  0.45002  Biso   1.000  H
  O8       1.0000 0.80349  0.41854  0.42671  Biso   1.000  O
  C83      1.0000 0.87000  0.37423  0.51131  Biso   1.000  C
  C84      1.0000 0.50290  0.70349  0.53728  Biso   1.000  C
  H107     1.0000 0.51810  0.66311  0.44530  Biso   1.000  H
  H108     1.0000 0.45002  0.70212  0.45061  Biso   1.000  H
  O9       1.0000 0.42671  0.80349  0.41854  Biso   1.000  O
  C85      1.0000 0.51131  0.87000  0.37423  Biso   1.000  C
  H109     1.0000 0.66311  0.55470  0.48190  Biso   1.000  H
  H110     1.0000 0.70212  0.54939  0.55002  Biso   1.000  H
  O10      1.0000 0.80349  0.58146  0.57329  Biso   1.000  O
  C86      1.0000 0.87000  0.62582  0.48869  Biso   1.000  C
  C87      1.0000 0.40989  0.48642  0.80910  Biso   1.000  C
  C88      1.0000 0.51363  0.80910  0.59011  Biso   1.000  C
  H111     1.0000 0.44530  0.51810  0.66311  Biso   1.000  H
  H112     1.0000 0.45061  0.45002  0.70212  Biso   1.000  H
  Br13     1.0000 0.57039  0.42774  0.91968  Biso   1.000  Br
  C89      1.0000 0.64530  0.54761  0.91269  Biso   1.000  C
  C90      1.0000 0.69321  0.44850  0.86109  Biso   1.000  C
  Br14     1.0000 0.70133  0.44245  0.85357  Biso   1.000  Br
  C91      1.0000 0.57309  0.45170  0.91279  Biso   1.000  C
  Br15     1.0000 0.91968  0.42961  0.57226  Biso   1.000  Br
  C92      1.0000 0.91269  0.35470  0.45239  Biso   1.000  C
  C93      1.0000 0.86109  0.30679  0.55150  Biso   1.000  C
  Br16     1.0000 0.85357  0.29867  0.55755  Biso   1.000  Br
  C94      1.0000 0.91279  0.42691  0.54830  Biso   1.000  C
  H113     1.0000 0.48190  0.66311  0.55470  Biso   1.000  H
  H114     1.0000 0.55002  0.70212  0.54939  Biso   1.000  H
  Br17     1.0000 0.57226  0.91968  0.42961  Biso   1.000  Br
  C95      1.0000 0.45239  0.91269  0.35470  Biso   1.000  C
  C96      1.0000 0.55150  0.86109  0.30679  Biso   1.000  C
  Br18     1.0000 0.55755  0.85357  0.29867  Biso   1.000  Br
  C97      1.0000 0.54830  0.91279  0.42691  Biso   1.000  C
  Br19     1.0000 0.91968  0.57039  0.42774  Biso   1.000  Br
  C98      1.0000 0.91269  0.64530  0.54761  Biso   1.000  C
  C99      1.0000 0.86109  0.69321  0.44850  Biso   1.000  C
  Br20     1.0000 0.85357  0.70133  0.44245  Biso   1.000  Br
  C100     1.0000 0.91279  0.57309  0.45170  Biso   1.000  C
  O11      1.0000 0.41854  0.42671  0.80349  Biso   1.000  O
  C101     1.0000 0.37423  0.51131  0.87000  Biso   1.000  C
  O12      1.0000 0.57329  0.80349  0.58146  Biso   1.000  O
  C102     1.0000 0.48869  0.87000  0.62582  Biso   1.000  C
  H115     1.0000 0.60610  0.57378  0.92273  Biso   1.000  H
  H116     1.0000 0.67723  0.57491  0.88888  Biso   1.000  H
  H117     1.0000 0.66503  0.53192  0.95371  Biso   1.000  H
  H118     1.0000 0.70989  0.43532  0.90433  Biso   1.000  H
  H119     1.0000 0.72582  0.47649  0.83920  Biso   1.000  H
  H120     1.0000 0.68510  0.40930  0.83419  Biso   1.000  H
  H121     1.0000 0.59390  0.43468  0.95283  Biso   1.000  H
  H122     1.0000 0.55460  0.41510  0.88751  Biso   1.000  H
  H123     1.0000 0.53783  0.48229  0.92489  Biso   1.000  H
  H124     1.0000 0.92273  0.39390  0.42622  Biso   1.000  H
  H125     1.0000 0.88888  0.32282  0.42509  Biso   1.000  H
  H126     1.0000 0.95371  0.33502  0.46813  Biso   1.000  H
  H127     1.0000 0.90433  0.29011  0.56468  Biso   1.000  H
  H128     1.0000 0.83920  0.27423  0.52351  Biso   1.000  H
  H129     1.0000 0.83419  0.31490  0.59070  Biso   1.000  H
  H130     1.0000 0.95283  0.40610  0.56532  Biso   1.000  H
  H131     1.0000 0.88751  0.44540  0.58490  Biso   1.000  H
  H132     1.0000 0.92489  0.46222  0.51771  Biso   1.000  H
  H133     1.0000 0.42622  0.92273  0.39390  Biso   1.000  H
  H134     1.0000 0.42509  0.88888  0.32282  Biso   1.000  H
  H135     1.0000 0.46813  0.95371  0.33502  Biso   1.000  H
  H136     1.0000 0.56468  0.90433  0.29011  Biso   1.000  H
  H137     1.0000 0.52351  0.83920  0.27423  Biso   1.000  H
  H138     1.0000 0.59070  0.83419  0.31490  Biso   1.000  H
  H139     1.0000 0.56532  0.95283  0.40610  Biso   1.000  H
  H140     1.0000 0.58490  0.88751  0.44540  Biso   1.000  H
  H141     1.0000 0.51771  0.92489  0.46222  Biso   1.000  H
  H142     1.0000 0.92273  0.60610  0.57378  Biso   1.000  H
  H143     1.0000 0.88888  0.67723  0.57491  Biso   1.000  H
  H144     1.0000 0.95371  0.66503  0.53192  Biso   1.000  H
  H145     1.0000 0.90433  0.70989  0.43532  Biso   1.000  H
  H146     1.0000 0.83920  0.72582  0.47649  Biso   1.000  H
  H147     1.0000 0.83419  0.68510  0.40930  Biso   1.000  H
  H148     1.0000 0.95283  0.59390  0.43468  Biso   1.000  H
  H149     1.0000 0.88751  0.55460  0.41510  Biso   1.000  H
  H150     1.0000 0.92489  0.53783  0.48229  Biso   1.000  H
  Br21     1.0000 0.42961  0.57226  0.91968  Biso   1.000  Br
  C103     1.0000 0.35470  0.45239  0.91269  Biso   1.000  C
  C104     1.0000 0.30679  0.55150  0.86109  Biso   1.000  C
  Br22     1.0000 0.29867  0.55755  0.85357  Biso   1.000  Br
  C105     1.0000 0.42691  0.54830  0.91279  Biso   1.000  C
  Br23     1.0000 0.42774  0.91968  0.57039  Biso   1.000  Br
  C106     1.0000 0.54761  0.91269  0.64530  Biso   1.000  C
  C107     1.0000 0.44850  0.86109  0.69321  Biso   1.000  C
  Br24     1.0000 0.44245  0.85357  0.70133  Biso   1.000  Br
  C108     1.0000 0.45170  0.91279  0.57309  Biso   1.000  C
  H151     1.0000 0.39390  0.42622  0.92273  Biso   1.000  H
  H152     1.0000 0.32282  0.42509  0.88888  Biso   1.000  H
  H153     1.0000 0.33502  0.46813  0.95371  Biso   1.000  H
  H154     1.0000 0.29011  0.56468  0.90433  Biso   1.000  H
  H155     1.0000 0.27423  0.52351  0.83920  Biso   1.000  H
  H156     1.0000 0.31490  0.59070  0.83419  Biso   1.000  H
  H157     1.0000 0.40610  0.56532  0.95283  Biso   1.000  H
  H158     1.0000 0.44540  0.58490  0.88751  Biso   1.000  H
  H159     1.0000 0.46222  0.51771  0.92489  Biso   1.000  H
  H160     1.0000 0.57378  0.92273  0.60610  Biso   1.000  H
  H161     1.0000 0.57491  0.88888  0.67723  Biso   1.000  H
  H162     1.0000 0.53192  0.95371  0.66503  Biso   1.000  H
  H163     1.0000 0.43532  0.90433  0.70989  Biso   1.000  H
  H164     1.0000 0.47649  0.83920  0.72582  Biso   1.000  H
  H165     1.0000 0.40930  0.83419  0.68510  Biso   1.000  H
  H166     1.0000 0.43468  0.95283  0.59390  Biso   1.000  H
  H167     1.0000 0.41510  0.88751  0.55460  Biso   1.000  H
  H168     1.0000 0.48229  0.92489  0.53783  Biso   1.000  H
  C109     1.0000 0.41269  0.04761  0.14530  Biso   1.000  C
  C110     1.0000 0.37000  0.98869  0.12582  Biso   1.000  C
  H169     1.0000 0.42273  0.07378  0.10610  Biso   1.000  H
  H170     1.0000 0.38888  0.07491  0.17718  Biso   1.000  H
  H171     1.0000 0.45371  0.03192  0.16498  Biso   1.000  H
  C111     1.0000 0.30910  0.01358  0.09011  Biso   1.000  C
  Br25     1.0000 0.41968  0.92774  0.07039  Biso   1.000  Br
  C112     1.0000 0.36109  0.94850  0.19321  Biso   1.000  C
  Br26     1.0000 0.35357  0.94245  0.20133  Biso   1.000  Br
  C113     1.0000 0.41279  0.95170  0.07309  Biso   1.000  C
  O13      1.0000 0.30349  0.07329  0.08146  Biso   1.000  O
  N13      1.0000 0.26104  0.97245  0.06891  Biso   1.000  N
  H172     1.0000 0.40428  0.93532  0.20989  Biso   1.000  H
  H173     1.0000 0.33920  0.97649  0.22582  Biso   1.000  H
  H174     1.0000 0.33419  0.90930  0.18510  Biso   1.000  H
  H175     1.0000 0.45278  0.93473  0.09390  Biso   1.000  H
  H176     1.0000 0.38751  0.91510  0.05460  Biso   1.000  H
  H177     1.0000 0.42489  0.98229  0.03778  Biso   1.000  H
  C114     1.0000 0.20349  0.00290  0.03728  Biso   1.000  C
  C115     1.0000 0.26016  0.90059  0.07300  Biso   1.000  C
  H178     1.0000 0.20212  0.05002  0.04939  Biso   1.000  H
  C116     1.0000 0.20349  0.99710  0.96272  Biso   1.000  C
  H179     1.0000 0.16311  0.98190  0.05470  Biso   1.000  H
  C117     1.0000 0.20118  0.87575  0.11190  Biso   1.000  C
  H180     1.0000 0.25868  0.88190  0.02809  Biso   1.000  H
  H181     1.0000 0.30108  0.88519  0.09439  Biso   1.000  H
  H182     1.0000 0.20212  0.95002  0.95061  Biso   1.000  H
  N14      1.0000 0.26104  0.02755  0.93114  Biso   1.000  N
  H183     1.0000 0.16311  0.01810  0.94530  Biso   1.000  H
  C118     1.0000 0.17914  0.90915  0.16758  Biso   1.000  C
  C119     1.0000 0.16758  0.82086  0.09085  Biso   1.000  C
  C120     1.0000 0.30910  0.98642  0.90989  Biso   1.000  C
  C121     1.0000 0.26016  0.09941  0.92700  Biso   1.000  C
  H184     1.0000 0.20231  0.94693  0.18259  Biso   1.000  H
  C122     1.0000 0.12425  0.88810  0.20118  Biso   1.000  C
  H185     1.0000 0.18259  0.79769  0.05312  Biso   1.000  H
  C123     1.0000 0.11190  0.79882  0.12425  Biso   1.000  C
  O14      1.0000 0.30349  0.92671  0.91854  Biso   1.000  O
  C124     1.0000 0.37000  0.01131  0.87423  Biso   1.000  C
  C125     1.0000 0.20118  0.12425  0.88810  Biso   1.000  C
  H186     1.0000 0.25868  0.11810  0.97191  Biso   1.000  H
  H187     1.0000 0.30108  0.11481  0.90561  Biso   1.000  H
  C126     1.0000 0.09085  0.83242  0.17914  Biso   1.000  C
  C127     1.0000 0.09941  0.92700  0.26016  Biso   1.000  C
  C128     1.0000 0.07300  0.73984  0.09941  Biso   1.000  C
  C129     1.0000 0.41269  0.95239  0.85470  Biso   1.000  C
  Br27     1.0000 0.41968  0.07226  0.92961  Biso   1.000  Br
  C130     1.0000 0.36109  0.05150  0.80679  Biso   1.000  C
  Br28     1.0000 0.35357  0.05755  0.79867  Biso   1.000  Br
  C131     1.0000 0.41279  0.04830  0.92691  Biso   1.000  C
  C132     1.0000 0.17914  0.09085  0.83242  Biso   1.000  C
  C133     1.0000 0.16758  0.17914  0.90915  Biso   1.000  C
  H188     1.0000 0.05312  0.81741  0.20231  Biso   1.000  H
  N15      1.0000 0.02755  0.93114  0.26104  Biso   1.000  N
  H189     1.0000 0.11810  0.97191  0.25868  Biso   1.000  H
  H190     1.0000 0.11481  0.90561  0.30108  Biso   1.000  H
  N16      1.0000 0.06891  0.73896  0.02755  Biso   1.000  N
  H191     1.0000 0.02809  0.74132  0.11810  Biso   1.000  H
  H192     1.0000 0.09439  0.69892  0.11481  Biso   1.000  H
  H193     1.0000 0.42273  0.92622  0.89390  Biso   1.000  H
  H194     1.0000 0.38888  0.92509  0.82282  Biso   1.000  H
  H195     1.0000 0.45371  0.96813  0.83502  Biso   1.000  H
  H196     1.0000 0.40428  0.06468  0.79011  Biso   1.000  H
  H197     1.0000 0.33920  0.02351  0.77423  Biso   1.000  H
  H198     1.0000 0.33419  0.09070  0.81490  Biso   1.000  H
  H199     1.0000 0.45278  0.06532  0.90610  Biso   1.000  H
  H200     1.0000 0.38751  0.08490  0.94540  Biso   1.000  H
  H201     1.0000 0.42489  0.01771  0.96222  Biso   1.000  H
  H202     1.0000 0.20231  0.05312  0.81741  Biso   1.000  H
  C134     1.0000 0.12425  0.11190  0.79882  Biso   1.000  C
  H203     1.0000 0.18259  0.20231  0.94693  Biso   1.000  H
  C135     1.0000 0.11190  0.20118  0.87575  Biso   1.000  C
  C136     1.0000 0.99710  0.96272  0.20349  Biso   1.000  C
  C137     1.0000 0.98642  0.90989  0.30910  Biso   1.000  C
  C138     1.0000 0.03728  0.79651  0.99710  Biso   1.000  C
  C139     1.0000 0.09011  0.69090  0.98642  Biso   1.000  C
  C140     1.0000 0.09085  0.16758  0.82086  Biso   1.000  C
  C141     1.0000 0.09941  0.07300  0.73984  Biso   1.000  C
  C142     1.0000 0.07300  0.26016  0.90059  Biso   1.000  C
  C143     1.0000 0.00290  0.03728  0.20349  Biso   1.000  C
  H204     1.0000 0.95002  0.95061  0.20212  Biso   1.000  H
  H205     1.0000 0.01810  0.94530  0.16311  Biso   1.000  H
  O15      1.0000 0.92671  0.91854  0.30349  Biso   1.000  O
  C144     1.0000 0.01131  0.87423  0.37000  Biso   1.000  C
  C145     1.0000 0.96272  0.79651  0.00290  Biso   1.000  C
  H206     1.0000 0.04939  0.79788  0.95002  Biso   1.000  H
  H207     1.0000 0.05470  0.83689  0.01810  Biso   1.000  H
  O16      1.0000 0.08146  0.69651  0.92671  Biso   1.000  O
  C146     1.0000 0.12582  0.63000  0.01131  Biso   1.000  C
  H208     1.0000 0.05312  0.18259  0.79769  Biso   1.000  H
  N17      1.0000 0.02755  0.06891  0.73896  Biso   1.000  N
  H209     1.0000 0.11810  0.02809  0.74132  Biso   1.000  H
  H210     1.0000 0.11481  0.09439  0.69892  Biso   1.000  H
  N18      1.0000 0.06891  0.26104  0.97245  Biso   1.000  N
  H211     1.0000 0.02809  0.25868  0.88190  Biso   1.000  H
  H212     1.0000 0.09439  0.30108  0.88519  Biso   1.000  H
  H213     1.0000 0.05002  0.04939  0.20212  Biso   1.000  H
  N19      1.0000 0.97245  0.06891  0.26104  Biso   1.000  N
  H214     1.0000 0.98190  0.05470  0.16311  Biso   1.000  H
  C147     1.0000 0.95239  0.85470  0.41269  Biso   1.000  C
  Br29     1.0000 0.07226  0.92961  0.41968  Biso   1.000  Br
  C148     1.0000 0.05150  0.80679  0.36109  Biso   1.000  C
  Br30     1.0000 0.05755  0.79867  0.35357  Biso   1.000  Br
  C149     1.0000 0.04830  0.92691  0.41279  Biso   1.000  C
  N20      1.0000 0.93114  0.73896  0.97245  Biso   1.000  N
  H215     1.0000 0.94530  0.83689  0.98190  Biso   1.000  H
  H216     1.0000 0.95061  0.79788  0.05002  Biso   1.000  H
  C150     1.0000 0.14530  0.58731  0.95239  Biso   1.000  C
  Br31     1.0000 0.07039  0.58032  0.07226  Biso   1.000  Br
  C151     1.0000 0.19321  0.63891  0.05150  Biso   1.000  C
  Br32     1.0000 0.20133  0.64643  0.05755  Biso   1.000  Br
  C152     1.0000 0.07309  0.58721  0.04830  Biso   1.000  C
  C153     1.0000 0.99710  0.03728  0.79651  Biso   1.000  C
  C154     1.0000 0.98642  0.09011  0.69090  Biso   1.000  C
  C155     1.0000 0.03728  0.20349  0.00290  Biso   1.000  C
  C156     1.0000 0.09011  0.30910  0.01358  Biso   1.000  C
  C157     1.0000 0.01358  0.09011  0.30910  Biso   1.000  C
  C158     1.0000 0.90059  0.07300  0.26016  Biso   1.000  C
  H217     1.0000 0.92622  0.89390  0.42273  Biso   1.000  H
  H218     1.0000 0.92509  0.82282  0.38888  Biso   1.000  H
  H219     1.0000 0.96813  0.83502  0.45371  Biso   1.000  H
  H220     1.0000 0.06468  0.79011  0.40428  Biso   1.000  H
  H221     1.0000 0.02351  0.77423  0.33920  Biso   1.000  H
  H222     1.0000 0.09070  0.81490  0.33419  Biso   1.000  H
  H223     1.0000 0.06532  0.90610  0.45278  Biso   1.000  H
  H224     1.0000 0.08490  0.94540  0.38751  Biso   1.000  H
  H225     1.0000 0.01771  0.96222  0.42489  Biso   1.000  H
  C159     1.0000 0.92700  0.73984  0.90059  Biso   1.000  C
  C160     1.0000 0.90989  0.69090  0.01358  Biso   1.000  C
  H226     1.0000 0.10610  0.57732  0.92622  Biso   1.000  H
  H227     1.0000 0.17718  0.61112  0.92509  Biso   1.000  H
  H228     1.0000 0.16498  0.54629  0.96813  Biso   1.000  H
  H229     1.0000 0.20989  0.59572  0.06468  Biso   1.000  H
  H230     1.0000 0.22582  0.66080  0.02351  Biso   1.000  H
  H231     1.0000 0.18510  0.66581  0.09070  Biso   1.000  H
  H232     1.0000 0.09390  0.54722  0.06532  Biso   1.000  H
  H233     1.0000 0.05460  0.61249  0.08490  Biso   1.000  H
  H234     1.0000 0.03778  0.57511  0.01771  Biso   1.000  H
  H235     1.0000 0.95002  0.04939  0.79788  Biso   1.000  H
  C161     1.0000 0.00290  0.96272  0.79651  Biso   1.000  C
  H236     1.0000 0.01810  0.05470  0.83689  Biso   1.000  H
  O17      1.0000 0.92671  0.08146  0.69651  Biso   1.000  O
  C162     1.0000 0.01131  0.12582  0.63000  Biso   1.000  C
  H237     1.0000 0.04939  0.20212  0.05002  Biso   1.000  H
  C163     1.0000 0.96272  0.20349  0.99710  Biso   1.000  C
  H238     1.0000 0.05470  0.16311  0.98190  Biso   1.000  H
  O18      1.0000 0.08146  0.30349  0.07329  Biso   1.000  O
  C164     1.0000 0.12582  0.37000  0.98869  Biso   1.000  C
  O19      1.0000 0.07329  0.08146  0.30349  Biso   1.000  O
  C165     1.0000 0.98869  0.12582  0.37000  Biso   1.000  C
  C166     1.0000 0.87575  0.11190  0.20118  Biso   1.000  C
  H239     1.0000 0.88190  0.02809  0.25868  Biso   1.000  H
  H240     1.0000 0.88519  0.09439  0.30108  Biso   1.000  H
  C167     1.0000 0.88810  0.79882  0.87575  Biso   1.000  C
  H241     1.0000 0.97191  0.74132  0.88190  Biso   1.000  H
  H242     1.0000 0.90561  0.69892  0.88519  Biso   1.000  H
  C168     1.0000 0.87423  0.63000  0.98869  Biso   1.000  C
  O20      1.0000 0.91854  0.69651  0.07329  Biso   1.000  O
  N21      1.0000 0.97245  0.93114  0.73896  Biso   1.000  N
  H243     1.0000 0.98190  0.94530  0.83689  Biso   1.000  H
  H244     1.0000 0.05002  0.95061  0.79788  Biso   1.000  H
  C169     1.0000 0.95239  0.14530  0.58731  Biso   1.000  C
  Br33     1.0000 0.07226  0.07039  0.58032  Biso   1.000  Br
  C170     1.0000 0.05150  0.19321  0.63891  Biso   1.000  C
  Br34     1.0000 0.05755  0.20133  0.64643  Biso   1.000  Br
  C171     1.0000 0.04830  0.07309  0.58721  Biso   1.000  C
  H245     1.0000 0.95061  0.20212  0.95002  Biso   1.000  H
  N22      1.0000 0.93114  0.26104  0.02755  Biso   1.000  N
  H246     1.0000 0.94530  0.16311  0.01810  Biso   1.000  H
  C172     1.0000 0.14530  0.41269  0.04761  Biso   1.000  C
  Br35     1.0000 0.07039  0.41968  0.92774  Biso   1.000  Br
  C173     1.0000 0.19321  0.36109  0.94850  Biso   1.000  C
  Br36     1.0000 0.20133  0.35357  0.94245  Biso   1.000  Br
  C174     1.0000 0.07309  0.41279  0.95170  Biso   1.000  C
  C175     1.0000 0.04761  0.14530  0.41269  Biso   1.000  C
  Br37     1.0000 0.92774  0.07039  0.41968  Biso   1.000  Br
  C176     1.0000 0.94850  0.19321  0.36109  Biso   1.000  C
  Br38     1.0000 0.94245  0.20133  0.35357  Biso   1.000  Br
  C177     1.0000 0.95170  0.07309  0.41279  Biso   1.000  C
  C178     1.0000 0.82086  0.09085  0.16758  Biso   1.000  C
  C179     1.0000 0.90915  0.16758  0.17914  Biso   1.000  C
  C180     1.0000 0.90915  0.83242  0.82086  Biso   1.000  C
  C181     1.0000 0.83242  0.82086  0.90915  Biso   1.000  C
  Br39     1.0000 0.92961  0.58032  0.92774  Biso   1.000  Br
  C182     1.0000 0.80679  0.63891  0.94850  Biso   1.000  C
  Br40     1.0000 0.79867  0.64643  0.94245  Biso   1.000  Br
  C183     1.0000 0.92691  0.58721  0.95170  Biso   1.000  C
  C184     1.0000 0.85470  0.58731  0.04761  Biso   1.000  C
  C185     1.0000 0.90059  0.92700  0.73984  Biso   1.000  C
  C186     1.0000 0.01358  0.90989  0.69090  Biso   1.000  C
  H247     1.0000 0.92622  0.10610  0.57732  Biso   1.000  H
  H248     1.0000 0.92509  0.17718  0.61112  Biso   1.000  H
  H249     1.0000 0.96813  0.16498  0.54629  Biso   1.000  H
  H250     1.0000 0.06468  0.20989  0.59572  Biso   1.000  H
  H251     1.0000 0.02351  0.22582  0.66080  Biso   1.000  H
  H252     1.0000 0.09070  0.18510  0.66581  Biso   1.000  H
  H253     1.0000 0.06532  0.09390  0.54722  Biso   1.000  H
  H254     1.0000 0.08490  0.05460  0.61249  Biso   1.000  H
  H255     1.0000 0.01771  0.03778  0.57511  Biso   1.000  H
  C187     1.0000 0.90989  0.30910  0.98642  Biso   1.000  C
  C188     1.0000 0.92700  0.26016  0.09941  Biso   1.000  C
  H256     1.0000 0.10610  0.42273  0.07378  Biso   1.000  H
  H257     1.0000 0.17718  0.38888  0.07491  Biso   1.000  H
  H258     1.0000 0.16498  0.45371  0.03192  Biso   1.000  H
  H259     1.0000 0.20989  0.40428  0.93532  Biso   1.000  H
  H260     1.0000 0.22582  0.33920  0.97649  Biso   1.000  H
  H261     1.0000 0.18510  0.33419  0.90930  Biso   1.000  H
  H262     1.0000 0.09390  0.45278  0.93473  Biso   1.000  H
  H263     1.0000 0.05460  0.38751  0.91510  Biso   1.000  H
  H264     1.0000 0.03778  0.42489  0.98229  Biso   1.000  H
  H265     1.0000 0.07378  0.10610  0.42273  Biso   1.000  H
  H266     1.0000 0.07491  0.17718  0.38888  Biso   1.000  H
  H267     1.0000 0.03192  0.16498  0.45371  Biso   1.000  H
  H268     1.0000 0.93532  0.20989  0.40428  Biso   1.000  H
  H269     1.0000 0.97649  0.22582  0.33920  Biso   1.000  H
  H270     1.0000 0.90930  0.18510  0.33419  Biso   1.000  H
  H271     1.0000 0.93473  0.09390  0.45278  Biso   1.000  H
  H272     1.0000 0.91510  0.05460  0.38751  Biso   1.000  H
  H273     1.0000 0.98229  0.03778  0.42489  Biso   1.000  H
  H274     1.0000 0.79769  0.05312  0.18259  Biso   1.000  H
  C189     1.0000 0.79882  0.12425  0.11190  Biso   1.000  C
  H275     1.0000 0.94693  0.18259  0.20231  Biso   1.000  H
  C190     1.0000 0.88810  0.20118  0.12425  Biso   1.000  C
  H276     1.0000 0.94693  0.81741  0.79769  Biso   1.000  H
  C191     1.0000 0.87575  0.88810  0.79882  Biso   1.000  C
  H277     1.0000 0.81741  0.79769  0.94693  Biso   1.000  H
  C192     1.0000 0.79882  0.87575  0.88810  Biso   1.000  C
  H278     1.0000 0.79011  0.59572  0.93532  Biso   1.000  H
  H279     1.0000 0.77423  0.66080  0.97649  Biso   1.000  H
  H280     1.0000 0.81490  0.66581  0.90930  Biso   1.000  H
  H281     1.0000 0.90610  0.54722  0.93473  Biso   1.000  H
  H282     1.0000 0.94540  0.61249  0.91510  Biso   1.000  H
  H283     1.0000 0.96222  0.57511  0.98229  Biso   1.000  H
  H284     1.0000 0.89390  0.57732  0.07378  Biso   1.000  H
  H285     1.0000 0.82282  0.61112  0.07491  Biso   1.000  H
  H286     1.0000 0.83502  0.54629  0.03192  Biso   1.000  H
  H287     1.0000 0.88190  0.97191  0.74132  Biso   1.000  H
  H288     1.0000 0.88519  0.90561  0.69892  Biso   1.000  H
  C193     1.0000 0.98869  0.87423  0.63000  Biso   1.000  C
  O21      1.0000 0.07329  0.91854  0.69651  Biso   1.000  O
  O22      1.0000 0.91854  0.30349  0.92671  Biso   1.000  O
  C194     1.0000 0.87423  0.37000  0.01131  Biso   1.000  C
  H289     1.0000 0.97191  0.25868  0.11810  Biso   1.000  H
  H290     1.0000 0.90561  0.30108  0.11481  Biso   1.000  H
  C195     1.0000 0.83242  0.17914  0.09085  Biso   1.000  C
  C196     1.0000 0.73984  0.09941  0.07300  Biso   1.000  C
  C197     1.0000 0.82086  0.90915  0.83242  Biso   1.000  C
  C198     1.0000 0.73984  0.90059  0.92700  Biso   1.000  C
  Br41     1.0000 0.92774  0.92961  0.58032  Biso   1.000  Br
  C199     1.0000 0.94850  0.80679  0.63891  Biso   1.000  C
  Br42     1.0000 0.94245  0.79867  0.64643  Biso   1.000  Br
  C200     1.0000 0.95170  0.92691  0.58721  Biso   1.000  C
  C201     1.0000 0.04761  0.85470  0.58731  Biso   1.000  C
  C202     1.0000 0.85470  0.41269  0.95239  Biso   1.000  C
  Br43     1.0000 0.92961  0.41968  0.07226  Biso   1.000  Br
  C203     1.0000 0.80679  0.36109  0.05150  Biso   1.000  C
  Br44     1.0000 0.79867  0.35357  0.05755  Biso   1.000  Br
  C204     1.0000 0.92691  0.41279  0.04830  Biso   1.000  C
  H291     1.0000 0.81741  0.20231  0.05312  Biso   1.000  H
  N23      1.0000 0.73896  0.02755  0.06891  Biso   1.000  N
  H292     1.0000 0.74132  0.11810  0.02809  Biso   1.000  H
  H293     1.0000 0.69892  0.11481  0.09439  Biso   1.000  H
  H294     1.0000 0.79769  0.94693  0.81741  Biso   1.000  H
  N24      1.0000 0.73896  0.97245  0.93114  Biso   1.000  N
  H295     1.0000 0.74132  0.88190  0.97191  Biso   1.000  H
  H296     1.0000 0.69892  0.88519  0.90561  Biso   1.000  H
  H297     1.0000 0.93532  0.79011  0.59572  Biso   1.000  H
  H298     1.0000 0.97649  0.77423  0.66080  Biso   1.000  H
  H299     1.0000 0.90930  0.81490  0.66581  Biso   1.000  H
  H300     1.0000 0.93473  0.90610  0.54722  Biso   1.000  H
  H301     1.0000 0.91510  0.94540  0.61249  Biso   1.000  H
  H302     1.0000 0.98229  0.96222  0.57511  Biso   1.000  H
  H303     1.0000 0.07378  0.89390  0.57732  Biso   1.000  H
  H304     1.0000 0.07491  0.82282  0.61112  Biso   1.000  H
  H305     1.0000 0.03192  0.83502  0.54629  Biso   1.000  H
  H306     1.0000 0.89390  0.42273  0.92622  Biso   1.000  H
  H307     1.0000 0.82282  0.38888  0.92509  Biso   1.000  H
  H308     1.0000 0.83502  0.45371  0.96813  Biso   1.000  H
  H309     1.0000 0.79011  0.40428  0.06468  Biso   1.000  H
  H310     1.0000 0.77423  0.33920  0.02351  Biso   1.000  H
  H311     1.0000 0.81490  0.33419  0.09070  Biso   1.000  H
  H312     1.0000 0.90610  0.45278  0.06532  Biso   1.000  H
  H313     1.0000 0.94540  0.38751  0.08490  Biso   1.000  H
  H314     1.0000 0.96222  0.42489  0.01771  Biso   1.000  H
  C205     1.0000 0.79651  0.99710  0.03728  Biso   1.000  C
  C206     1.0000 0.69090  0.98642  0.09011  Biso   1.000  C
  C207     1.0000 0.79651  0.00290  0.96272  Biso   1.000  C
  C208     1.0000 0.69090  0.01358  0.90989  Biso   1.000  C
  H315     1.0000 0.79788  0.95002  0.04939  Biso   1.000  H
  H316     1.0000 0.83689  0.01810  0.05470  Biso   1.000  H
  O23      1.0000 0.69651  0.92671  0.08146  Biso   1.000  O
  C209     1.0000 0.63000  0.01131  0.12582  Biso   1.000  C
  H317     1.0000 0.83689  0.98190  0.94530  Biso   1.000  H
  H318     1.0000 0.79788  0.05002  0.95061  Biso   1.000  H
  C210     1.0000 0.63000  0.98869  0.87423  Biso   1.000  C
  O24      1.0000 0.69651  0.07329  0.91854  Biso   1.000  O
  C211     1.0000 0.58731  0.95239  0.14530  Biso   1.000  C
  Br45     1.0000 0.58032  0.07226  0.07039  Biso   1.000  Br
  C212     1.0000 0.63891  0.05150  0.19321  Biso   1.000  C
  Br46     1.0000 0.64643  0.05755  0.20133  Biso   1.000  Br
  C213     1.0000 0.58721  0.04830  0.07309  Biso   1.000  C
  Br47     1.0000 0.58032  0.92774  0.92961  Biso   1.000  Br
  C214     1.0000 0.63891  0.94850  0.80679  Biso   1.000  C
  Br48     1.0000 0.64643  0.94245  0.79867  Biso   1.000  Br
  C215     1.0000 0.58721  0.95170  0.92691  Biso   1.000  C
  C216     1.0000 0.58731  0.04761  0.85470  Biso   1.000  C
  H319     1.0000 0.57732  0.92622  0.10610  Biso   1.000  H
  H320     1.0000 0.61112  0.92509  0.17718  Biso   1.000  H
  H321     1.0000 0.54629  0.96813  0.16498  Biso   1.000  H
  H322     1.0000 0.59572  0.06468  0.20989  Biso   1.000  H
  H323     1.0000 0.66080  0.02351  0.22582  Biso   1.000  H
  H324     1.0000 0.66581  0.09070  0.18510  Biso   1.000  H
  H325     1.0000 0.54722  0.06532  0.09390  Biso   1.000  H
  H326     1.0000 0.61249  0.08490  0.05460  Biso   1.000  H
  H327     1.0000 0.57511  0.01771  0.03778  Biso   1.000  H
  H328     1.0000 0.59572  0.93532  0.79011  Biso   1.000  H
  H329     1.0000 0.66080  0.97649  0.77423  Biso   1.000  H
  H330     1.0000 0.66581  0.90930  0.81490  Biso   1.000  H
  H331     1.0000 0.54722  0.93473  0.90610  Biso   1.000  H
  H332     1.0000 0.61249  0.91510  0.94540  Biso   1.000  H
  H333     1.0000 0.57511  0.98229  0.96222  Biso   1.000  H
  H334     1.0000 0.57732  0.07378  0.89390  Biso   1.000  H
  H335     1.0000 0.61112  0.07491  0.82282  Biso   1.000  H
  H336     1.0000 0.54629  0.03192  0.83502  Biso   1.000  H
