data_image0
_cell_length_a       14.928
_cell_length_b       14.928
_cell_length_c       39.286
_cell_angle_alpha    90
_cell_angle_beta     90
_cell_angle_gamma    90

_symmetry_space_group_name_H-M    "P 1"
_symmetry_int_tables_number       1

loop_
  _symmetry_equiv_pos_as_xyz
  'x, y, z'

loop_
  _atom_site_label
  _atom_site_occupancy
  _atom_site_fract_x
  _atom_site_fract_y
  _atom_site_fract_z
  _atom_site_thermal_displace_type
  _atom_site_B_iso_or_equiv
  _atom_site_type_symbol
  C1       1.0000 0.29086  0.37969  0.51825  Biso   1.000  C
  O1       1.0000 0.31873  0.28946  0.51499  Biso   1.000  O
  H1       1.0000 0.31712  0.40561  0.53889  Biso   1.000  H
  H2       1.0000 0.22542  0.38210  0.51980  Biso   1.000  H
  H3       1.0000 0.31089  0.41379  0.49840  Biso   1.000  H
  C2       1.0000 0.40990  0.27197  0.51446  Biso   1.000  C
  C3       1.0000 0.43462  0.18227  0.51405  Biso   1.000  C
  C4       1.0000 0.47475  0.33876  0.51403  Biso   1.000  C
  C5       1.0000 0.36555  0.10778  0.51474  Biso   1.000  C
  C6       1.0000 0.52525  0.16124  0.51403  Biso   1.000  C
  C7       1.0000 0.56538  0.31773  0.51405  Biso   1.000  C
  H4       1.0000 0.45679  0.39979  0.51369  Biso   1.000  H
  C8       1.0000 0.33869  0.08528  0.55091  Biso   1.000  C
  H5       1.0000 0.31190  0.12667  0.50171  Biso   1.000  H
  H6       1.0000 0.39061  0.05379  0.50359  Biso   1.000  H
  C9       1.0000 0.59010  0.22803  0.51446  Biso   1.000  C
  H7       1.0000 0.54321  0.10021  0.51369  Biso   1.000  H
  C10      1.0000 0.63445  0.39222  0.51474  Biso   1.000  C
  C11      1.0000 0.38130  0.01869  0.56967  Biso   1.000  C
  C12      1.0000 0.27244  0.13491  0.56692  Biso   1.000  C
  O2       1.0000 0.68127  0.21054  0.51499  Biso   1.000  O
  C13      1.0000 0.66131  0.41472  0.55091  Biso   1.000  C
  H8       1.0000 0.68810  0.37333  0.50171  Biso   1.000  H
  H9       1.0000 0.60939  0.44621  0.50359  Biso   1.000  H
  C14      1.0000 0.35638  0.00167  0.60312  Biso   1.000  C
  O3       1.0000 0.44775  0.97166  0.55302  Biso   1.000  O
  H10      1.0000 0.24169  0.17993  0.55440  Biso   1.000  H
  C15      1.0000 0.25000  0.12031  0.60077  Biso   1.000  C
  C16      1.0000 0.70914  0.12031  0.51825  Biso   1.000  C
  C17      1.0000 0.61870  0.48131  0.56967  Biso   1.000  C
  C18      1.0000 0.72756  0.36509  0.56692  Biso   1.000  C
  C19      1.0000 0.29093  0.05238  0.61936  Biso   1.000  C
  H11      1.0000 0.38471  0.95438  0.61521  Biso   1.000  H
  C20      1.0000 0.51199  0.92638  0.57244  Biso   1.000  C
  O4       1.0000 0.18696  0.17082  0.61785  Biso   1.000  O
  H12      1.0000 0.68288  0.09439  0.53889  Biso   1.000  H
  H13      1.0000 0.77458  0.11790  0.51980  Biso   1.000  H
  H14      1.0000 0.68911  0.08621  0.49840  Biso   1.000  H
  C21      1.0000 0.64362  0.49833  0.60312  Biso   1.000  C
  O5       1.0000 0.55225  0.52834  0.55302  Biso   1.000  O
  H15      1.0000 0.75831  0.32007  0.55440  Biso   1.000  H
  C22      1.0000 0.75000  0.37969  0.60077  Biso   1.000  C
  C23      1.0000 0.26755  0.03591  0.65632  Biso   1.000  C
  H16      1.0000 0.53838  0.96771  0.58899  Biso   1.000  H
  H17      1.0000 0.55902  0.90320  0.55740  Biso   1.000  H
  H18      1.0000 0.48339  0.87647  0.58451  Biso   1.000  H
  C24      1.0000 0.15809  0.25047  0.60238  Biso   1.000  C
  C25      1.0000 0.70907  0.44762  0.61936  Biso   1.000  C
  H19      1.0000 0.61529  0.54562  0.61521  Biso   1.000  H
  C26      1.0000 0.48801  0.57362  0.57244  Biso   1.000  C
  O6       1.0000 0.81304  0.32918  0.61785  Biso   1.000  O
  C27      1.0000 0.32623  0.08956  0.68040  Biso   1.000  C
  H20      1.0000 0.20398  0.05212  0.66021  Biso   1.000  H
  H21      1.0000 0.27452  0.97133  0.66141  Biso   1.000  H
  H22      1.0000 0.21008  0.28798  0.59711  Biso   1.000  H
  H23      1.0000 0.11817  0.28282  0.61790  Biso   1.000  H
  H24      1.0000 0.12580  0.23627  0.58130  Biso   1.000  H
  C28      1.0000 0.73245  0.46409  0.65632  Biso   1.000  C
  H25      1.0000 0.46162  0.53229  0.58899  Biso   1.000  H
  H26      1.0000 0.44098  0.59680  0.55740  Biso   1.000  H
  H27      1.0000 0.51661  0.62353  0.58451  Biso   1.000  H
  C29      1.0000 0.84191  0.24953  0.60238  Biso   1.000  C
  C30      1.0000 0.40943  0.05801  0.69063  Biso   1.000  C
  C31      1.0000 0.29937  0.17397  0.69195  Biso   1.000  C
  C32      1.0000 0.67377  0.41044  0.68040  Biso   1.000  C
  H28      1.0000 0.72548  0.52867  0.66141  Biso   1.000  H
  H29      1.0000 0.79602  0.44788  0.66021  Biso   1.000  H
  H30      1.0000 0.78992  0.21202  0.59711  Biso   1.000  H
  H31      1.0000 0.88183  0.21718  0.61790  Biso   1.000  H
  H32      1.0000 0.87420  0.26373  0.58130  Biso   1.000  H
  C33      1.0000 0.46336  0.10852  0.71186  Biso   1.000  C
  O7       1.0000 0.43261  0.97381  0.67874  Biso   1.000  O
  H33      1.0000 0.24223  0.19641  0.68559  Biso   1.000  H
  C34      1.0000 0.35457  0.22575  0.71252  Biso   1.000  C
  C35      1.0000 0.59057  0.44199  0.69063  Biso   1.000  C
  C36      1.0000 0.70063  0.32603  0.69195  Biso   1.000  C
  C37      1.0000 0.43783  0.19326  0.72298  Biso   1.000  C
  H34      1.0000 0.51929  0.08467  0.71911  Biso   1.000  H
  C38      1.0000 0.52452  0.95177  0.67765  Biso   1.000  C
  O8       1.0000 0.33186  0.30989  0.72425  Biso   1.000  O
  C39      1.0000 0.53664  0.39148  0.71186  Biso   1.000  C
  O9       1.0000 0.56739  0.52619  0.67874  Biso   1.000  O
  H35      1.0000 0.75777  0.30359  0.68559  Biso   1.000  H
  C40      1.0000 0.64543  0.27425  0.71252  Biso   1.000  C
  C41      1.0000 0.50000  0.25000  0.74457  Biso   1.000  C
  H36      1.0000 0.55808  0.00141  0.66749  Biso   1.000  H
  H37      1.0000 0.53289  0.89771  0.66390  Biso   1.000  H
  H38      1.0000 0.54629  0.94078  0.70081  Biso   1.000  H
  C42      1.0000 0.25429  0.35082  0.71046  Biso   1.000  C
  C43      1.0000 0.56217  0.30674  0.72298  Biso   1.000  C
  H39      1.0000 0.48071  0.41533  0.71911  Biso   1.000  H
  C44      1.0000 0.47548  0.54823  0.67765  Biso   1.000  C
  O10      1.0000 0.66814  0.19011  0.72425  Biso   1.000  O
  H40      1.0000 0.46389  0.28959  0.75941  Biso   1.000  H
  H41      1.0000 0.53611  0.21041  0.75941  Biso   1.000  H
  H42      1.0000 0.26132  0.35732  0.68579  Biso   1.000  H
  H43      1.0000 0.24611  0.40997  0.72079  Biso   1.000  H
  H44      1.0000 0.20177  0.31350  0.71529  Biso   1.000  H
  H45      1.0000 0.44192  0.49859  0.66749  Biso   1.000  H
  H46      1.0000 0.46711  0.60229  0.66390  Biso   1.000  H
  H47      1.0000 0.45371  0.55922  0.70081  Biso   1.000  H
  C45      1.0000 0.74571  0.14918  0.71046  Biso   1.000  C
  H48      1.0000 0.73868  0.14268  0.68579  Biso   1.000  H
  H49      1.0000 0.75389  0.09003  0.72079  Biso   1.000  H
  H50      1.0000 0.79823  0.18650  0.71529  Biso   1.000  H
  C46      1.0000 0.36555  0.60778  0.48526  Biso   1.000  C
  C47      1.0000 0.33869  0.58528  0.44909  Biso   1.000  C
  H51      1.0000 0.31190  0.62667  0.49829  Biso   1.000  H
  H52      1.0000 0.39061  0.55379  0.49641  Biso   1.000  H
  C48      1.0000 0.43462  0.68227  0.48595  Biso   1.000  C
  C49      1.0000 0.38130  0.51869  0.43033  Biso   1.000  C
  C50      1.0000 0.27244  0.63491  0.43308  Biso   1.000  C
  C51      1.0000 0.40990  0.77197  0.48554  Biso   1.000  C
  C52      1.0000 0.52525  0.66124  0.48597  Biso   1.000  C
  C53      1.0000 0.35638  0.50167  0.39688  Biso   1.000  C
  O11      1.0000 0.44775  0.47166  0.44698  Biso   1.000  O
  C54      1.0000 0.25000  0.62031  0.39923  Biso   1.000  C
  H53      1.0000 0.24169  0.67993  0.44560  Biso   1.000  H
  C55      1.0000 0.47475  0.83876  0.48597  Biso   1.000  C
  O12      1.0000 0.31873  0.78946  0.48501  Biso   1.000  O
  C56      1.0000 0.59010  0.72803  0.48554  Biso   1.000  C
  H54      1.0000 0.54321  0.60021  0.48631  Biso   1.000  H
  C57      1.0000 0.29093  0.55238  0.38064  Biso   1.000  C
  H55      1.0000 0.38471  0.45438  0.38479  Biso   1.000  H
  C58      1.0000 0.51199  0.42638  0.42756  Biso   1.000  C
  O13      1.0000 0.18696  0.67082  0.38215  Biso   1.000  O
  C59      1.0000 0.56538  0.81773  0.48595  Biso   1.000  C
  H56      1.0000 0.45679  0.89979  0.48631  Biso   1.000  H
  C60      1.0000 0.29086  0.87969  0.48175  Biso   1.000  C
  O14      1.0000 0.68127  0.71054  0.48501  Biso   1.000  O
  C61      1.0000 0.26755  0.53591  0.34368  Biso   1.000  C
  H57      1.0000 0.53838  0.46771  0.41101  Biso   1.000  H
  H58      1.0000 0.55902  0.40320  0.44260  Biso   1.000  H
  H59      1.0000 0.48339  0.37647  0.41549  Biso   1.000  H
  C62      1.0000 0.15809  0.75047  0.39762  Biso   1.000  C
  C63      1.0000 0.63445  0.89222  0.48526  Biso   1.000  C
  H60      1.0000 0.31712  0.90561  0.46111  Biso   1.000  H
  H61      1.0000 0.22542  0.88210  0.48020  Biso   1.000  H
  H62      1.0000 0.31089  0.91379  0.50160  Biso   1.000  H
  C64      1.0000 0.70914  0.62031  0.48175  Biso   1.000  C
  C65      1.0000 0.32623  0.58956  0.31960  Biso   1.000  C
  H63      1.0000 0.27452  0.47133  0.33859  Biso   1.000  H
  H64      1.0000 0.20398  0.55212  0.33979  Biso   1.000  H
  H65      1.0000 0.21008  0.78798  0.40289  Biso   1.000  H
  H66      1.0000 0.11817  0.78282  0.38210  Biso   1.000  H
  H67      1.0000 0.12580  0.73627  0.41870  Biso   1.000  H
  C66      1.0000 0.66131  0.91472  0.44909  Biso   1.000  C
  H68      1.0000 0.68810  0.87333  0.49829  Biso   1.000  H
  H69      1.0000 0.60939  0.94621  0.49641  Biso   1.000  H
  H70      1.0000 0.68288  0.59439  0.46111  Biso   1.000  H
  H71      1.0000 0.77458  0.61790  0.48020  Biso   1.000  H
  H72      1.0000 0.68911  0.58621  0.50160  Biso   1.000  H
  C67      1.0000 0.40943  0.55801  0.30937  Biso   1.000  C
  C68      1.0000 0.29937  0.67397  0.30805  Biso   1.000  C
  C69      1.0000 0.61870  0.98131  0.43033  Biso   1.000  C
  C70      1.0000 0.72756  0.86509  0.43308  Biso   1.000  C
  O15      1.0000 0.43261  0.47381  0.32126  Biso   1.000  O
  C71      1.0000 0.46336  0.60852  0.28814  Biso   1.000  C
  C72      1.0000 0.35457  0.72575  0.28748  Biso   1.000  C
  H73      1.0000 0.24223  0.69641  0.31441  Biso   1.000  H
  C73      1.0000 0.64362  0.99833  0.39688  Biso   1.000  C
  O16      1.0000 0.55225  0.02834  0.44698  Biso   1.000  O
  C74      1.0000 0.75000  0.87969  0.39923  Biso   1.000  C
  H74      1.0000 0.75831  0.82007  0.44560  Biso   1.000  H
  C75      1.0000 0.52452  0.45177  0.32235  Biso   1.000  C
  C76      1.0000 0.43783  0.69326  0.27702  Biso   1.000  C
  H75      1.0000 0.51929  0.58467  0.28089  Biso   1.000  H
  O17      1.0000 0.33186  0.80989  0.27575  Biso   1.000  O
  C77      1.0000 0.70907  0.94762  0.38064  Biso   1.000  C
  H76      1.0000 0.61529  0.04562  0.38479  Biso   1.000  H
  C78      1.0000 0.48801  0.07362  0.42756  Biso   1.000  C
  O18      1.0000 0.81304  0.82918  0.38215  Biso   1.000  O
  H77      1.0000 0.55808  0.50141  0.33251  Biso   1.000  H
  H78      1.0000 0.53289  0.39771  0.33610  Biso   1.000  H
  H79      1.0000 0.54629  0.44078  0.29919  Biso   1.000  H
  C79      1.0000 0.50000  0.75000  0.25543  Biso   1.000  C
  C80      1.0000 0.25429  0.85082  0.28954  Biso   1.000  C
  C81      1.0000 0.73245  0.96409  0.34368  Biso   1.000  C
  H80      1.0000 0.46162  0.03229  0.41101  Biso   1.000  H
  H81      1.0000 0.44098  0.09680  0.44260  Biso   1.000  H
  H82      1.0000 0.51661  0.12353  0.41549  Biso   1.000  H
  C82      1.0000 0.84191  0.74953  0.39762  Biso   1.000  C
  H83      1.0000 0.53611  0.71041  0.24059  Biso   1.000  H
  H84      1.0000 0.46389  0.78959  0.24059  Biso   1.000  H
  C83      1.0000 0.56217  0.80674  0.27702  Biso   1.000  C
  H85      1.0000 0.26132  0.85732  0.31421  Biso   1.000  H
  H86      1.0000 0.24611  0.90997  0.27921  Biso   1.000  H
  H87      1.0000 0.20177  0.81350  0.28471  Biso   1.000  H
  C84      1.0000 0.67377  0.91044  0.31960  Biso   1.000  C
  H88      1.0000 0.79602  0.94788  0.33979  Biso   1.000  H
  H89      1.0000 0.72548  0.02867  0.33859  Biso   1.000  H
  H90      1.0000 0.78992  0.71202  0.40289  Biso   1.000  H
  H91      1.0000 0.88183  0.71718  0.38210  Biso   1.000  H
  H92      1.0000 0.87420  0.76373  0.41870  Biso   1.000  H
  C85      1.0000 0.53664  0.89148  0.28814  Biso   1.000  C
  C86      1.0000 0.64543  0.77425  0.28748  Biso   1.000  C
  C87      1.0000 0.59057  0.94199  0.30937  Biso   1.000  C
  C88      1.0000 0.70063  0.82603  0.30805  Biso   1.000  C
  H93      1.0000 0.48071  0.91533  0.28089  Biso   1.000  H
  O19      1.0000 0.66814  0.69011  0.27575  Biso   1.000  O
  O20      1.0000 0.56739  0.02619  0.32126  Biso   1.000  O
  H94      1.0000 0.75777  0.80359  0.31441  Biso   1.000  H
  C89      1.0000 0.74571  0.64918  0.28954  Biso   1.000  C
  C90      1.0000 0.47548  0.04823  0.32235  Biso   1.000  C
  H95      1.0000 0.73868  0.64268  0.31421  Biso   1.000  H
  H96      1.0000 0.75389  0.59003  0.27921  Biso   1.000  H
  H97      1.0000 0.79823  0.68650  0.28471  Biso   1.000  H
  H98      1.0000 0.44192  0.99859  0.33251  Biso   1.000  H
  H99      1.0000 0.46711  0.10229  0.33610  Biso   1.000  H
  H100     1.0000 0.45371  0.05922  0.29919  Biso   1.000  H
  C91      1.0000 0.10082  0.49571  0.46047  Biso   1.000  C
  O21      1.0000 0.05989  0.41814  0.47424  Biso   1.000  O
  H101     1.0000 0.10732  0.48868  0.43580  Biso   1.000  H
  H102     1.0000 0.15997  0.50389  0.47080  Biso   1.000  H
  H103     1.0000 0.06350  0.54823  0.46531  Biso   1.000  H
  C92      1.0000 0.97575  0.39543  0.46253  Biso   1.000  C
  C93      1.0000 0.94326  0.31217  0.47297  Biso   1.000  C
  C94      1.0000 0.92397  0.45063  0.44194  Biso   1.000  C
  C95      1.0000 0.00000  0.25000  0.49458  Biso   1.000  C
  C96      1.0000 0.85852  0.28664  0.46187  Biso   1.000  C
  C97      1.0000 0.83956  0.42377  0.43041  Biso   1.000  C
  H104     1.0000 0.94641  0.50777  0.43560  Biso   1.000  H
  C98      1.0000 0.05674  0.18783  0.47297  Biso   1.000  C
  H105     1.0000 0.03959  0.28611  0.50939  Biso   1.000  H
  H106     1.0000 0.96041  0.21389  0.50939  Biso   1.000  H
  H107     1.0000 0.83467  0.23071  0.46910  Biso   1.000  H
  C99      1.0000 0.80801  0.34057  0.44064  Biso   1.000  C
  C100     1.0000 0.78591  0.48245  0.40630  Biso   1.000  C
  C101     1.0000 0.14148  0.21336  0.46187  Biso   1.000  C
  C102     1.0000 0.02425  0.10457  0.46253  Biso   1.000  C
  O22      1.0000 0.72381  0.31739  0.42873  Biso   1.000  O
  C103     1.0000 0.80238  0.45907  0.36934  Biso   1.000  C
  H108     1.0000 0.72133  0.47548  0.41139  Biso   1.000  H
  H109     1.0000 0.80212  0.54602  0.41020  Biso   1.000  H
  C104     1.0000 0.19199  0.15943  0.44064  Biso   1.000  C
  H110     1.0000 0.16533  0.26929  0.46910  Biso   1.000  H
  C105     1.0000 0.07603  0.04937  0.44194  Biso   1.000  C
  O23      1.0000 0.94011  0.08186  0.47424  Biso   1.000  O
  C106     1.0000 0.70177  0.22548  0.42766  Biso   1.000  C
  C107     1.0000 0.75167  0.39362  0.35313  Biso   1.000  C
  C108     1.0000 0.87031  0.50000  0.35076  Biso   1.000  C
  C109     1.0000 0.16044  0.07623  0.43041  Biso   1.000  C
  O24      1.0000 0.27619  0.18261  0.42873  Biso   1.000  O
  H111     1.0000 0.05359  0.99223  0.43560  Biso   1.000  H
  C110     1.0000 0.89918  0.00429  0.46047  Biso   1.000  C
  H112     1.0000 0.75141  0.19192  0.41750  Biso   1.000  H
  H113     1.0000 0.64771  0.21711  0.41389  Biso   1.000  H
  H114     1.0000 0.69078  0.20371  0.45080  Biso   1.000  H
  C111     1.0000 0.76869  0.36870  0.31968  Biso   1.000  C
  H115     1.0000 0.70438  0.36529  0.36519  Biso   1.000  H
  C112     1.0000 0.88491  0.47756  0.31691  Biso   1.000  C
  O25      1.0000 0.92082  0.56304  0.36787  Biso   1.000  O
  C113     1.0000 0.21409  0.01755  0.40630  Biso   1.000  C
  C114     1.0000 0.29823  0.27452  0.42766  Biso   1.000  C
  H116     1.0000 0.84003  0.99611  0.47080  Biso   1.000  H
  H117     1.0000 0.93650  0.95177  0.46531  Biso   1.000  H
  H118     1.0000 0.89268  0.01132  0.43580  Biso   1.000  H
  C115     1.0000 0.83528  0.41131  0.30090  Biso   1.000  C
  O26      1.0000 0.72166  0.30225  0.30301  Biso   1.000  O
  H119     1.0000 0.92993  0.50831  0.30441  Biso   1.000  H
  C116     1.0000 0.00047  0.59191  0.35236  Biso   1.000  C
  C117     1.0000 0.19762  0.04093  0.36934  Biso   1.000  C
  H120     1.0000 0.27867  0.02452  0.41139  Biso   1.000  H
  H121     1.0000 0.19788  0.95398  0.41020  Biso   1.000  H
  H122     1.0000 0.24859  0.30808  0.41750  Biso   1.000  H
  H123     1.0000 0.35229  0.28289  0.41389  Biso   1.000  H
  H124     1.0000 0.30922  0.29629  0.45080  Biso   1.000  H
  C118     1.0000 0.85778  0.38445  0.26473  Biso   1.000  C
  C119     1.0000 0.67638  0.23801  0.32243  Biso   1.000  C
  H125     1.0000 0.03798  0.53992  0.34710  Biso   1.000  H
  H126     1.0000 0.03282  0.63183  0.36789  Biso   1.000  H
  H127     1.0000 0.98627  0.62420  0.33129  Biso   1.000  H
  C120     1.0000 0.24833  0.10638  0.35313  Biso   1.000  C
  C121     1.0000 0.12969  0.00000  0.35076  Biso   1.000  C
  C122     1.0000 0.93227  0.31538  0.26404  Biso   1.000  C
  H128     1.0000 0.87667  0.43810  0.25169  Biso   1.000  H
  H129     1.0000 0.80379  0.35939  0.25360  Biso   1.000  H
  H130     1.0000 0.71771  0.21162  0.33900  Biso   1.000  H
  H131     1.0000 0.65320  0.19098  0.30741  Biso   1.000  H
  H132     1.0000 0.62647  0.26661  0.33450  Biso   1.000  H
  C123     1.0000 0.23131  0.13130  0.31968  Biso   1.000  C
  H133     1.0000 0.29562  0.13471  0.36519  Biso   1.000  H
  C124     1.0000 0.11509  0.02244  0.31691  Biso   1.000  C
  O27      1.0000 0.07918  0.93696  0.36787  Biso   1.000  O
  C125     1.0000 0.02197  0.34010  0.26445  Biso   1.000  C
  C126     1.0000 0.91124  0.22475  0.26401  Biso   1.000  C
  O28      1.0000 0.27834  0.19775  0.30301  Biso   1.000  O
  C127     1.0000 0.16472  0.08869  0.30090  Biso   1.000  C
  H134     1.0000 0.07007  0.99169  0.30441  Biso   1.000  H
  C128     1.0000 0.99953  0.90809  0.35236  Biso   1.000  C
  C129     1.0000 0.08876  0.27525  0.26401  Biso   1.000  C
  O29      1.0000 0.03946  0.43127  0.26501  Biso   1.000  O
  C130     1.0000 0.97803  0.15990  0.26445  Biso   1.000  C
  H135     1.0000 0.85021  0.20679  0.26371  Biso   1.000  H
  C131     1.0000 0.32362  0.26199  0.32243  Biso   1.000  C
  C132     1.0000 0.14222  0.11555  0.26473  Biso   1.000  C
  H136     1.0000 0.96202  0.96008  0.34710  Biso   1.000  H
  H137     1.0000 0.96718  0.86817  0.36789  Biso   1.000  H
  H138     1.0000 0.01373  0.87580  0.33129  Biso   1.000  H
  C133     1.0000 0.06773  0.18462  0.26404  Biso   1.000  C
  H139     1.0000 0.14979  0.29321  0.26371  Biso   1.000  H
  C134     1.0000 0.12969  0.45914  0.26826  Biso   1.000  C
  O30      1.0000 0.96054  0.06873  0.26501  Biso   1.000  O
  H140     1.0000 0.28229  0.28838  0.33900  Biso   1.000  H
  H141     1.0000 0.34680  0.30902  0.30741  Biso   1.000  H
  H142     1.0000 0.37353  0.23339  0.33450  Biso   1.000  H
  H143     1.0000 0.12333  0.06190  0.25169  Biso   1.000  H
  H144     1.0000 0.19621  0.14061  0.25360  Biso   1.000  H
  H145     1.0000 0.15561  0.43288  0.28891  Biso   1.000  H
  H146     1.0000 0.13210  0.52458  0.26979  Biso   1.000  H
  H147     1.0000 0.16379  0.43911  0.24841  Biso   1.000  H
  C135     1.0000 0.87031  0.04086  0.26826  Biso   1.000  C
  H148     1.0000 0.86790  0.97542  0.26979  Biso   1.000  H
  H149     1.0000 0.84439  0.06712  0.28891  Biso   1.000  H
  H150     1.0000 0.83621  0.06089  0.24841  Biso   1.000  H
  C136     1.0000 0.16044  0.57623  0.56959  Biso   1.000  C
  C137     1.0000 0.07603  0.54937  0.55806  Biso   1.000  C
  C138     1.0000 0.19199  0.65943  0.55936  Biso   1.000  C
  C139     1.0000 0.21409  0.51755  0.59370  Biso   1.000  C
  C140     1.0000 0.02425  0.60457  0.53747  Biso   1.000  C
  H151     1.0000 0.05359  0.49223  0.56440  Biso   1.000  H
  C141     1.0000 0.14148  0.71336  0.53813  Biso   1.000  C
  O31      1.0000 0.27619  0.68261  0.57127  Biso   1.000  O
  H152     1.0000 0.27867  0.52452  0.58861  Biso   1.000  H
  H153     1.0000 0.19788  0.45398  0.58980  Biso   1.000  H
  C142     1.0000 0.19762  0.54093  0.63066  Biso   1.000  C
  C143     1.0000 0.05674  0.68783  0.52703  Biso   1.000  C
  O32      1.0000 0.94011  0.58186  0.52576  Biso   1.000  O
  H154     1.0000 0.16533  0.76929  0.53090  Biso   1.000  H
  C144     1.0000 0.29823  0.77452  0.57234  Biso   1.000  C
  C145     1.0000 0.24833  0.60638  0.64687  Biso   1.000  C
  C146     1.0000 0.12969  0.50000  0.64924  Biso   1.000  C
  C147     1.0000 0.00000  0.75000  0.50542  Biso   1.000  C
  C148     1.0000 0.89918  0.50429  0.53953  Biso   1.000  C
  H155     1.0000 0.24859  0.80808  0.58250  Biso   1.000  H
  H156     1.0000 0.35229  0.78289  0.58611  Biso   1.000  H
  H157     1.0000 0.30922  0.79629  0.54920  Biso   1.000  H
  H158     1.0000 0.29562  0.63471  0.63481  Biso   1.000  H
  C149     1.0000 0.23131  0.63130  0.68032  Biso   1.000  C
  C150     1.0000 0.11509  0.52244  0.68309  Biso   1.000  C
  O33      1.0000 0.07918  0.43696  0.63213  Biso   1.000  O
  H159     1.0000 0.03959  0.78611  0.49061  Biso   1.000  H
  H160     1.0000 0.96041  0.71389  0.49061  Biso   1.000  H
  C151     1.0000 0.94326  0.81217  0.52703  Biso   1.000  C
  H161     1.0000 0.89268  0.51132  0.56420  Biso   1.000  H
  H162     1.0000 0.84003  0.49611  0.52920  Biso   1.000  H
  H163     1.0000 0.93650  0.45177  0.53469  Biso   1.000  H
  C152     1.0000 0.16472  0.58869  0.69910  Biso   1.000  C
  O34      1.0000 0.27834  0.69775  0.69699  Biso   1.000  O
  H164     1.0000 0.07007  0.49169  0.69559  Biso   1.000  H
  C153     1.0000 0.99953  0.40809  0.64764  Biso   1.000  C
  C154     1.0000 0.85852  0.78664  0.53813  Biso   1.000  C
  C155     1.0000 0.97575  0.89543  0.53747  Biso   1.000  C
  C156     1.0000 0.14222  0.61555  0.73527  Biso   1.000  C
  C157     1.0000 0.32362  0.76199  0.67757  Biso   1.000  C
  H165     1.0000 0.01373  0.37580  0.66871  Biso   1.000  H
  H166     1.0000 0.96202  0.46008  0.65290  Biso   1.000  H
  H167     1.0000 0.96718  0.36817  0.63211  Biso   1.000  H
  H168     1.0000 0.83467  0.73071  0.53090  Biso   1.000  H
  C158     1.0000 0.80801  0.84057  0.55936  Biso   1.000  C
  O35      1.0000 0.05989  0.91814  0.52576  Biso   1.000  O
  C159     1.0000 0.92397  0.95063  0.55806  Biso   1.000  C
  H169     1.0000 0.12333  0.56190  0.74831  Biso   1.000  H
  H170     1.0000 0.19621  0.64061  0.74640  Biso   1.000  H
  C160     1.0000 0.06773  0.68462  0.73596  Biso   1.000  C
  H171     1.0000 0.28229  0.78838  0.66100  Biso   1.000  H
  H172     1.0000 0.34680  0.80902  0.69259  Biso   1.000  H
  H173     1.0000 0.37353  0.73339  0.66550  Biso   1.000  H
  C161     1.0000 0.83956  0.92377  0.56959  Biso   1.000  C
  O36      1.0000 0.72381  0.81739  0.57127  Biso   1.000  O
  C162     1.0000 0.10082  0.99571  0.53953  Biso   1.000  C
  H174     1.0000 0.94641  0.00777  0.56440  Biso   1.000  H
  C163     1.0000 0.08876  0.77525  0.73599  Biso   1.000  C
  C164     1.0000 0.97803  0.65990  0.73555  Biso   1.000  C
  C165     1.0000 0.78591  0.98245  0.59370  Biso   1.000  C
  C166     1.0000 0.70177  0.72548  0.57234  Biso   1.000  C
  H175     1.0000 0.10732  0.98868  0.56420  Biso   1.000  H
  H176     1.0000 0.15997  0.00389  0.52920  Biso   1.000  H
  H177     1.0000 0.06350  0.04823  0.53469  Biso   1.000  H
  C167     1.0000 0.02197  0.84010  0.73555  Biso   1.000  C
  H178     1.0000 0.14979  0.79321  0.73629  Biso   1.000  H
  C168     1.0000 0.91124  0.72475  0.73599  Biso   1.000  C
  O37      1.0000 0.96054  0.56873  0.73499  Biso   1.000  O
  H179     1.0000 0.72133  0.97548  0.58861  Biso   1.000  H
  C169     1.0000 0.80238  0.95907  0.63066  Biso   1.000  C
  H180     1.0000 0.80212  0.04602  0.58980  Biso   1.000  H
  H181     1.0000 0.75141  0.69192  0.58250  Biso   1.000  H
  H182     1.0000 0.64771  0.71711  0.58611  Biso   1.000  H
  H183     1.0000 0.69078  0.70371  0.54920  Biso   1.000  H
  O38      1.0000 0.03946  0.93127  0.73499  Biso   1.000  O
  C170     1.0000 0.93227  0.81538  0.73596  Biso   1.000  C
  H184     1.0000 0.85021  0.70679  0.73629  Biso   1.000  H
  C171     1.0000 0.87031  0.54086  0.73174  Biso   1.000  C
  C172     1.0000 0.75167  0.89362  0.64687  Biso   1.000  C
  C173     1.0000 0.87031  0.00000  0.64924  Biso   1.000  C
  C174     1.0000 0.12969  0.95914  0.73174  Biso   1.000  C
  C175     1.0000 0.85778  0.88445  0.73527  Biso   1.000  C
  H185     1.0000 0.84439  0.56712  0.71109  Biso   1.000  H
  H186     1.0000 0.86790  0.47542  0.73021  Biso   1.000  H
  H187     1.0000 0.83621  0.56089  0.75159  Biso   1.000  H
  H188     1.0000 0.70438  0.86529  0.63481  Biso   1.000  H
  C176     1.0000 0.76869  0.86870  0.68032  Biso   1.000  C
  C177     1.0000 0.88491  0.97756  0.68309  Biso   1.000  C
  O39      1.0000 0.92082  0.06304  0.63213  Biso   1.000  O
  H189     1.0000 0.15561  0.93288  0.71109  Biso   1.000  H
  H190     1.0000 0.16379  0.93911  0.75159  Biso   1.000  H
  H191     1.0000 0.13210  0.02458  0.73021  Biso   1.000  H
  C178     1.0000 0.83528  0.91131  0.69910  Biso   1.000  C
  H192     1.0000 0.87667  0.93810  0.74831  Biso   1.000  H
  H193     1.0000 0.80379  0.85939  0.74640  Biso   1.000  H
  O40      1.0000 0.72166  0.80225  0.69699  Biso   1.000  O
  H194     1.0000 0.92993  0.00831  0.69559  Biso   1.000  H
  C179     1.0000 0.00047  0.09191  0.64764  Biso   1.000  C
  C180     1.0000 0.67638  0.73801  0.67757  Biso   1.000  C
  H195     1.0000 0.98627  0.12420  0.66871  Biso   1.000  H
  H196     1.0000 0.03798  0.03992  0.65290  Biso   1.000  H
  H197     1.0000 0.03282  0.13183  0.63211  Biso   1.000  H
  H198     1.0000 0.71771  0.71162  0.66100  Biso   1.000  H
  H199     1.0000 0.65320  0.69098  0.69259  Biso   1.000  H
  H200     1.0000 0.62647  0.76661  0.66550  Biso   1.000  H
  C181     1.0000 0.35778  0.38445  0.23527  Biso   1.000  C
  C182     1.0000 0.33528  0.41131  0.19910  Biso   1.000  C
  H201     1.0000 0.37667  0.43810  0.24831  Biso   1.000  H
  H202     1.0000 0.30379  0.35939  0.24640  Biso   1.000  H
  C183     1.0000 0.43227  0.31538  0.23596  Biso   1.000  C
  C184     1.0000 0.26869  0.36870  0.18032  Biso   1.000  C
  C185     1.0000 0.38491  0.47756  0.18309  Biso   1.000  C
  C186     1.0000 0.52197  0.34010  0.23555  Biso   1.000  C
  C187     1.0000 0.41124  0.22475  0.23599  Biso   1.000  C
  O41      1.0000 0.22166  0.30225  0.19699  Biso   1.000  O
  C188     1.0000 0.25167  0.39362  0.14687  Biso   1.000  C
  C189     1.0000 0.37031  0.50000  0.14924  Biso   1.000  C
  H203     1.0000 0.42993  0.50831  0.19559  Biso   1.000  H
  C190     1.0000 0.58876  0.27525  0.23599  Biso   1.000  C
  O42      1.0000 0.53946  0.43127  0.23499  Biso   1.000  O
  C191     1.0000 0.47803  0.15990  0.23555  Biso   1.000  C
  H204     1.0000 0.35021  0.20679  0.23629  Biso   1.000  H
  C192     1.0000 0.17638  0.23801  0.17757  Biso   1.000  C
  C193     1.0000 0.30238  0.45907  0.13066  Biso   1.000  C
  H205     1.0000 0.20438  0.36529  0.13481  Biso   1.000  H
  O43      1.0000 0.42082  0.56304  0.13213  Biso   1.000  O
  C194     1.0000 0.56773  0.18462  0.23596  Biso   1.000  C
  H206     1.0000 0.64979  0.29321  0.23629  Biso   1.000  H
  C195     1.0000 0.62969  0.45914  0.23174  Biso   1.000  C
  O44      1.0000 0.46054  0.06873  0.23499  Biso   1.000  O
  H207     1.0000 0.21771  0.21162  0.16100  Biso   1.000  H
  H208     1.0000 0.15320  0.19098  0.19259  Biso   1.000  H
  H209     1.0000 0.12647  0.26661  0.16550  Biso   1.000  H
  C196     1.0000 0.28591  0.48245  0.09370  Biso   1.000  C
  C197     1.0000 0.50047  0.59191  0.14764  Biso   1.000  C
  C198     1.0000 0.64222  0.11555  0.23527  Biso   1.000  C
  H210     1.0000 0.65561  0.43288  0.21109  Biso   1.000  H
  H211     1.0000 0.63210  0.52458  0.23021  Biso   1.000  H
  H212     1.0000 0.66379  0.43911  0.25159  Biso   1.000  H
  C199     1.0000 0.37031  0.04086  0.23174  Biso   1.000  C
  C200     1.0000 0.33956  0.42377  0.06959  Biso   1.000  C
  H213     1.0000 0.22133  0.47548  0.08861  Biso   1.000  H
  H214     1.0000 0.30212  0.54602  0.08980  Biso   1.000  H
  H215     1.0000 0.53798  0.53992  0.15290  Biso   1.000  H
  H216     1.0000 0.53282  0.63183  0.13211  Biso   1.000  H
  H217     1.0000 0.48627  0.62420  0.16871  Biso   1.000  H
  C201     1.0000 0.66472  0.08869  0.19910  Biso   1.000  C
  H218     1.0000 0.62333  0.06190  0.24831  Biso   1.000  H
  H219     1.0000 0.69621  0.14061  0.24640  Biso   1.000  H
  H220     1.0000 0.34439  0.06712  0.21109  Biso   1.000  H
  H221     1.0000 0.33621  0.06089  0.25159  Biso   1.000  H
  H222     1.0000 0.36790  0.97542  0.23021  Biso   1.000  H
  C202     1.0000 0.30801  0.34057  0.05936  Biso   1.000  C
  C203     1.0000 0.42397  0.45063  0.05806  Biso   1.000  C
  C204     1.0000 0.73131  0.13130  0.18032  Biso   1.000  C
  C205     1.0000 0.61509  0.02244  0.18309  Biso   1.000  C
  C206     1.0000 0.35852  0.28664  0.03813  Biso   1.000  C
  O45      1.0000 0.22381  0.31739  0.07127  Biso   1.000  O
  H223     1.0000 0.44641  0.50777  0.06440  Biso   1.000  H
  C207     1.0000 0.47575  0.39543  0.03747  Biso   1.000  C
  C208     1.0000 0.74833  0.10638  0.14687  Biso   1.000  C
  O46      1.0000 0.77834  0.19775  0.19699  Biso   1.000  O
  C209     1.0000 0.62969  0.00000  0.14924  Biso   1.000  C
  H224     1.0000 0.57007  0.99169  0.19559  Biso   1.000  H
  C210     1.0000 0.44326  0.31217  0.02703  Biso   1.000  C
  H225     1.0000 0.33467  0.23071  0.03090  Biso   1.000  H
  C211     1.0000 0.20177  0.22548  0.07234  Biso   1.000  C
  O47      1.0000 0.55989  0.41814  0.02576  Biso   1.000  O
  C212     1.0000 0.69762  0.04093  0.13066  Biso   1.000  C
  H226     1.0000 0.79562  0.13471  0.13481  Biso   1.000  H
  C213     1.0000 0.82362  0.26199  0.17757  Biso   1.000  C
  O48      1.0000 0.57918  0.93696  0.13213  Biso   1.000  O
  C214     1.0000 0.50000  0.25000  0.00542  Biso   1.000  C
  H227     1.0000 0.25141  0.19192  0.08250  Biso   1.000  H
  H228     1.0000 0.14771  0.21711  0.08611  Biso   1.000  H
  H229     1.0000 0.19078  0.20371  0.04920  Biso   1.000  H
  C215     1.0000 0.60082  0.49571  0.03953  Biso   1.000  C
  C216     1.0000 0.71409  0.01755  0.09370  Biso   1.000  C
  H230     1.0000 0.78229  0.28838  0.16100  Biso   1.000  H
  H231     1.0000 0.84680  0.30902  0.19259  Biso   1.000  H
  H232     1.0000 0.87353  0.23339  0.16550  Biso   1.000  H
  C217     1.0000 0.49953  0.90809  0.14764  Biso   1.000  C
  C218     1.0000 0.55674  0.18783  0.02703  Biso   1.000  C
  H233     1.0000 0.53959  0.28611  0.99061  Biso   1.000  H
  H234     1.0000 0.46041  0.21389  0.99061  Biso   1.000  H
  H235     1.0000 0.60732  0.48868  0.06420  Biso   1.000  H
  H236     1.0000 0.65997  0.50389  0.02920  Biso   1.000  H
  H237     1.0000 0.56350  0.54823  0.03469  Biso   1.000  H
  C219     1.0000 0.66044  0.07623  0.06959  Biso   1.000  C
  H238     1.0000 0.77867  0.02452  0.08861  Biso   1.000  H
  H239     1.0000 0.69788  0.95398  0.08980  Biso   1.000  H
  H240     1.0000 0.46202  0.96008  0.15290  Biso   1.000  H
  H241     1.0000 0.46718  0.86817  0.13211  Biso   1.000  H
  H242     1.0000 0.51373  0.87580  0.16871  Biso   1.000  H
  C220     1.0000 0.64148  0.21336  0.03813  Biso   1.000  C
  C221     1.0000 0.52425  0.10457  0.03747  Biso   1.000  C
  C222     1.0000 0.69199  0.15943  0.05936  Biso   1.000  C
  C223     1.0000 0.57603  0.04937  0.05806  Biso   1.000  C
  H243     1.0000 0.66533  0.26929  0.03090  Biso   1.000  H
  O49      1.0000 0.44011  0.08186  0.02576  Biso   1.000  O
  O50      1.0000 0.77619  0.18261  0.07127  Biso   1.000  O
  H244     1.0000 0.55359  0.99223  0.06440  Biso   1.000  H
  C224     1.0000 0.39918  0.00429  0.03953  Biso   1.000  C
  C225     1.0000 0.79823  0.27452  0.07234  Biso   1.000  C
  H245     1.0000 0.39268  0.01132  0.06420  Biso   1.000  H
  H246     1.0000 0.34003  0.99611  0.02920  Biso   1.000  H
  H247     1.0000 0.43650  0.95177  0.03469  Biso   1.000  H
  H248     1.0000 0.74859  0.30808  0.08250  Biso   1.000  H
  H249     1.0000 0.85229  0.28289  0.08611  Biso   1.000  H
  H250     1.0000 0.80922  0.29629  0.04920  Biso   1.000  H
  C226     1.0000 0.37031  0.54086  0.76826  Biso   1.000  C
  H251     1.0000 0.34439  0.56712  0.78891  Biso   1.000  H
  H252     1.0000 0.36790  0.47542  0.76979  Biso   1.000  H
  H253     1.0000 0.33621  0.56089  0.74841  Biso   1.000  H
  O51      1.0000 0.46054  0.56873  0.76501  Biso   1.000  O
  C227     1.0000 0.47803  0.65990  0.76445  Biso   1.000  C
  C228     1.0000 0.56773  0.68462  0.76404  Biso   1.000  C
  C229     1.0000 0.41124  0.72475  0.76401  Biso   1.000  C
  C230     1.0000 0.64222  0.61555  0.76473  Biso   1.000  C
  C231     1.0000 0.58876  0.77525  0.76401  Biso   1.000  C
  C232     1.0000 0.43227  0.81538  0.76404  Biso   1.000  C
  H254     1.0000 0.35021  0.70679  0.76371  Biso   1.000  H
  C233     1.0000 0.66472  0.58869  0.80090  Biso   1.000  C
  H255     1.0000 0.62333  0.56190  0.75169  Biso   1.000  H
  H256     1.0000 0.69621  0.64061  0.75360  Biso   1.000  H
  C234     1.0000 0.52197  0.84010  0.76445  Biso   1.000  C
  H257     1.0000 0.64979  0.79321  0.76371  Biso   1.000  H
  C235     1.0000 0.35778  0.88445  0.76473  Biso   1.000  C
  C236     1.0000 0.73131  0.63130  0.81968  Biso   1.000  C
  C237     1.0000 0.61509  0.52244  0.81691  Biso   1.000  C
  O52      1.0000 0.53946  0.93127  0.76501  Biso   1.000  O
  C238     1.0000 0.33528  0.91131  0.80090  Biso   1.000  C
  H258     1.0000 0.37667  0.93810  0.75169  Biso   1.000  H
  H259     1.0000 0.30379  0.85939  0.75360  Biso   1.000  H
  C239     1.0000 0.74833  0.60638  0.85313  Biso   1.000  C
  O53      1.0000 0.77834  0.69775  0.80301  Biso   1.000  O
  H260     1.0000 0.57007  0.49169  0.80441  Biso   1.000  H
  C240     1.0000 0.62969  0.50000  0.85076  Biso   1.000  C
  C241     1.0000 0.62969  0.95914  0.76826  Biso   1.000  C
  C242     1.0000 0.26869  0.86870  0.81968  Biso   1.000  C
  C243     1.0000 0.38491  0.97756  0.81691  Biso   1.000  C
  C244     1.0000 0.69762  0.54093  0.86934  Biso   1.000  C
  H261     1.0000 0.79562  0.63471  0.86519  Biso   1.000  H
  C245     1.0000 0.82362  0.76199  0.82243  Biso   1.000  C
  O54      1.0000 0.57918  0.43696  0.86787  Biso   1.000  O
  H262     1.0000 0.65561  0.93288  0.78891  Biso   1.000  H
  H263     1.0000 0.66379  0.93911  0.74841  Biso   1.000  H
  H264     1.0000 0.63210  0.02458  0.76979  Biso   1.000  H
  C246     1.0000 0.25167  0.89362  0.85313  Biso   1.000  C
  O55      1.0000 0.22166  0.80225  0.80301  Biso   1.000  O
  C247     1.0000 0.37031  0.00000  0.85076  Biso   1.000  C
  H265     1.0000 0.42993  0.00831  0.80441  Biso   1.000  H
  C248     1.0000 0.71409  0.51755  0.90630  Biso   1.000  C
  H266     1.0000 0.78229  0.78838  0.83900  Biso   1.000  H
  H267     1.0000 0.84680  0.80902  0.80741  Biso   1.000  H
  H268     1.0000 0.87353  0.73339  0.83450  Biso   1.000  H
  C249     1.0000 0.49953  0.40809  0.85236  Biso   1.000  C
  C250     1.0000 0.30238  0.95907  0.86934  Biso   1.000  C
  H269     1.0000 0.20438  0.86529  0.86519  Biso   1.000  H
  C251     1.0000 0.17638  0.73801  0.82243  Biso   1.000  C
  O56      1.0000 0.42082  0.06304  0.86787  Biso   1.000  O
  C252     1.0000 0.66044  0.57623  0.93041  Biso   1.000  C
  H270     1.0000 0.77867  0.52452  0.91139  Biso   1.000  H
  H271     1.0000 0.69788  0.45398  0.91020  Biso   1.000  H
  H272     1.0000 0.46202  0.46008  0.84710  Biso   1.000  H
  H273     1.0000 0.46718  0.36817  0.86789  Biso   1.000  H
  H274     1.0000 0.51373  0.37580  0.83129  Biso   1.000  H
  C253     1.0000 0.28591  0.98245  0.90630  Biso   1.000  C
  H275     1.0000 0.21771  0.71162  0.83900  Biso   1.000  H
  H276     1.0000 0.15320  0.69098  0.80741  Biso   1.000  H
  H277     1.0000 0.12647  0.76661  0.83450  Biso   1.000  H
  C254     1.0000 0.50047  0.09191  0.85236  Biso   1.000  C
  C255     1.0000 0.69199  0.65943  0.94064  Biso   1.000  C
  C256     1.0000 0.57603  0.54937  0.94194  Biso   1.000  C
  C257     1.0000 0.33956  0.92377  0.93041  Biso   1.000  C
  H278     1.0000 0.22133  0.97548  0.91139  Biso   1.000  H
  H279     1.0000 0.30212  0.04602  0.91020  Biso   1.000  H
  H280     1.0000 0.53798  0.03992  0.84710  Biso   1.000  H
  H281     1.0000 0.53282  0.13183  0.86789  Biso   1.000  H
  H282     1.0000 0.48627  0.12420  0.83129  Biso   1.000  H
  C258     1.0000 0.64148  0.71336  0.96187  Biso   1.000  C
  O57      1.0000 0.77619  0.68261  0.92873  Biso   1.000  O
  H283     1.0000 0.55359  0.49223  0.93560  Biso   1.000  H
  C259     1.0000 0.52425  0.60457  0.96253  Biso   1.000  C
  C260     1.0000 0.30801  0.84057  0.94064  Biso   1.000  C
  C261     1.0000 0.42397  0.95063  0.94194  Biso   1.000  C
  C262     1.0000 0.55674  0.68783  0.97297  Biso   1.000  C
  H284     1.0000 0.66533  0.76929  0.96910  Biso   1.000  H
  C263     1.0000 0.79823  0.77452  0.92766  Biso   1.000  C
  O58      1.0000 0.44011  0.58186  0.97424  Biso   1.000  O
  C264     1.0000 0.35852  0.78664  0.96187  Biso   1.000  C
  O59      1.0000 0.22381  0.81739  0.92873  Biso   1.000  O
  C265     1.0000 0.47575  0.89543  0.96253  Biso   1.000  C
  H285     1.0000 0.44641  0.00777  0.93560  Biso   1.000  H
  C266     1.0000 0.50000  0.75000  0.99458  Biso   1.000  C
  H286     1.0000 0.74859  0.80808  0.91750  Biso   1.000  H
  H287     1.0000 0.85229  0.78289  0.91389  Biso   1.000  H
  H288     1.0000 0.80922  0.79629  0.95080  Biso   1.000  H
  C267     1.0000 0.39918  0.50429  0.96047  Biso   1.000  C
  C268     1.0000 0.44326  0.81217  0.97297  Biso   1.000  C
  H289     1.0000 0.33467  0.73071  0.96910  Biso   1.000  H
  C269     1.0000 0.20177  0.72548  0.92766  Biso   1.000  C
  O60      1.0000 0.55989  0.91814  0.97424  Biso   1.000  O
  H290     1.0000 0.46041  0.71389  0.00939  Biso   1.000  H
  H291     1.0000 0.53959  0.78611  0.00939  Biso   1.000  H
  H292     1.0000 0.39268  0.51132  0.93580  Biso   1.000  H
  H293     1.0000 0.34003  0.49611  0.97080  Biso   1.000  H
  H294     1.0000 0.43650  0.45177  0.96531  Biso   1.000  H
  H295     1.0000 0.25141  0.69192  0.91750  Biso   1.000  H
  H296     1.0000 0.14771  0.71711  0.91389  Biso   1.000  H
  H297     1.0000 0.19078  0.70371  0.95080  Biso   1.000  H
  C270     1.0000 0.60082  0.99571  0.96047  Biso   1.000  C
  H298     1.0000 0.60732  0.98868  0.93580  Biso   1.000  H
  H299     1.0000 0.65997  0.00389  0.97080  Biso   1.000  H
  H300     1.0000 0.56350  0.04823  0.96531  Biso   1.000  H
  O61      1.0000 0.16814  0.69011  0.22425  Biso   1.000  O
  C271     1.0000 0.14543  0.77425  0.21252  Biso   1.000  C
  C272     1.0000 0.24571  0.64918  0.21046  Biso   1.000  C
  C273     1.0000 0.06217  0.80674  0.22298  Biso   1.000  C
  C274     1.0000 0.20063  0.82603  0.19195  Biso   1.000  C
  H301     1.0000 0.23868  0.64268  0.18579  Biso   1.000  H
  H302     1.0000 0.25389  0.59003  0.22079  Biso   1.000  H
  H303     1.0000 0.29823  0.68650  0.21529  Biso   1.000  H
  C275     1.0000 0.00000  0.75000  0.24457  Biso   1.000  C
  C276     1.0000 0.03664  0.89148  0.21186  Biso   1.000  C
  C277     1.0000 0.17377  0.91044  0.18040  Biso   1.000  C
  H304     1.0000 0.25777  0.80359  0.18559  Biso   1.000  H
  C278     1.0000 0.93783  0.69326  0.22298  Biso   1.000  C
  H305     1.0000 0.03611  0.71041  0.25941  Biso   1.000  H
  H306     1.0000 0.96389  0.78959  0.25941  Biso   1.000  H
  C279     1.0000 0.09057  0.94199  0.19063  Biso   1.000  C
  H307     1.0000 0.98071  0.91533  0.21911  Biso   1.000  H
  C280     1.0000 0.23245  0.96409  0.15632  Biso   1.000  C
  C281     1.0000 0.96336  0.60852  0.21186  Biso   1.000  C
  C282     1.0000 0.85457  0.72575  0.21252  Biso   1.000  C
  O62      1.0000 0.06739  0.02619  0.17874  Biso   1.000  O
  H308     1.0000 0.29602  0.94788  0.16021  Biso   1.000  H
  C283     1.0000 0.20907  0.94762  0.11936  Biso   1.000  C
  H309     1.0000 0.22548  0.02867  0.16141  Biso   1.000  H
  C284     1.0000 0.90943  0.55801  0.19063  Biso   1.000  C
  H310     1.0000 0.01929  0.58467  0.21911  Biso   1.000  H
  C285     1.0000 0.79937  0.67397  0.19195  Biso   1.000  C
  O63      1.0000 0.83186  0.80989  0.22425  Biso   1.000  O
  C286     1.0000 0.97548  0.04823  0.17765  Biso   1.000  C
  C287     1.0000 0.14362  0.99833  0.10312  Biso   1.000  C
  C288     1.0000 0.25000  0.87969  0.10077  Biso   1.000  C
  O64      1.0000 0.93261  0.47381  0.17874  Biso   1.000  O
  C289     1.0000 0.82623  0.58956  0.18040  Biso   1.000  C
  H311     1.0000 0.74223  0.69641  0.18559  Biso   1.000  H
  C290     1.0000 0.75429  0.85082  0.21046  Biso   1.000  C
  H312     1.0000 0.94192  0.99859  0.16749  Biso   1.000  H
  H313     1.0000 0.96711  0.10229  0.16390  Biso   1.000  H
  H314     1.0000 0.95371  0.05922  0.20081  Biso   1.000  H
  C291     1.0000 0.11870  0.98131  0.06967  Biso   1.000  C
  H315     1.0000 0.11529  0.04562  0.11521  Biso   1.000  H
  C292     1.0000 0.22756  0.86509  0.06692  Biso   1.000  C
  O65      1.0000 0.31304  0.82918  0.11785  Biso   1.000  O
  C293     1.0000 0.02452  0.45177  0.17765  Biso   1.000  C
  C294     1.0000 0.76755  0.53591  0.15632  Biso   1.000  C
  H316     1.0000 0.76132  0.85732  0.18579  Biso   1.000  H
  H317     1.0000 0.74611  0.90997  0.22079  Biso   1.000  H
  H318     1.0000 0.70177  0.81350  0.21529  Biso   1.000  H
  C295     1.0000 0.16131  0.91472  0.05091  Biso   1.000  C
  O66      1.0000 0.05225  0.02834  0.05302  Biso   1.000  O
  H319     1.0000 0.25831  0.82007  0.05440  Biso   1.000  H
  C296     1.0000 0.34191  0.74953  0.10238  Biso   1.000  C
  H320     1.0000 0.05808  0.50141  0.16749  Biso   1.000  H
  H321     1.0000 0.03289  0.39771  0.16390  Biso   1.000  H
  H322     1.0000 0.04629  0.44078  0.20081  Biso   1.000  H
  H323     1.0000 0.77452  0.47133  0.16141  Biso   1.000  H
  H324     1.0000 0.70398  0.55212  0.16021  Biso   1.000  H
  C297     1.0000 0.79093  0.55238  0.11936  Biso   1.000  C
  C298     1.0000 0.13445  0.89222  0.01474  Biso   1.000  C
  C299     1.0000 0.98801  0.07362  0.07244  Biso   1.000  C
  H325     1.0000 0.28992  0.71202  0.09711  Biso   1.000  H
  H326     1.0000 0.38183  0.71718  0.11790  Biso   1.000  H
  H327     1.0000 0.37420  0.76373  0.08130  Biso   1.000  H
  C300     1.0000 0.85638  0.50167  0.10312  Biso   1.000  C
  C301     1.0000 0.75000  0.62031  0.10077  Biso   1.000  C
  C302     1.0000 0.06538  0.81773  0.01405  Biso   1.000  C
  H328     1.0000 0.18810  0.87333  0.00171  Biso   1.000  H
  H329     1.0000 0.10939  0.94621  0.00359  Biso   1.000  H
  H330     1.0000 0.96162  0.03229  0.08899  Biso   1.000  H
  H331     1.0000 0.94098  0.09680  0.05740  Biso   1.000  H
  H332     1.0000 0.01661  0.12353  0.08451  Biso   1.000  H
  H333     1.0000 0.88471  0.45438  0.11521  Biso   1.000  H
  C303     1.0000 0.88130  0.51869  0.06967  Biso   1.000  C
  C304     1.0000 0.77244  0.63491  0.06692  Biso   1.000  C
  O67      1.0000 0.68696  0.67082  0.11785  Biso   1.000  O
  C305     1.0000 0.09010  0.72803  0.01446  Biso   1.000  C
  C306     1.0000 0.97475  0.83876  0.01403  Biso   1.000  C
  C307     1.0000 0.83869  0.58528  0.05091  Biso   1.000  C
  O68      1.0000 0.94775  0.47166  0.05302  Biso   1.000  O
  H334     1.0000 0.74169  0.67993  0.05440  Biso   1.000  H
  C308     1.0000 0.65809  0.75047  0.10238  Biso   1.000  C
  C309     1.0000 0.02525  0.66124  0.01403  Biso   1.000  C
  O69      1.0000 0.18127  0.71054  0.01499  Biso   1.000  O
  C310     1.0000 0.90990  0.77197  0.01446  Biso   1.000  C
  H335     1.0000 0.95679  0.89979  0.01369  Biso   1.000  H
  C311     1.0000 0.86555  0.60778  0.01474  Biso   1.000  C
  C312     1.0000 0.01199  0.42638  0.07244  Biso   1.000  C
  H336     1.0000 0.71008  0.78798  0.09711  Biso   1.000  H
  H337     1.0000 0.61817  0.78282  0.11790  Biso   1.000  H
  H338     1.0000 0.62580  0.73627  0.08130  Biso   1.000  H
  C313     1.0000 0.93462  0.68227  0.01405  Biso   1.000  C
  H339     1.0000 0.04321  0.60021  0.01369  Biso   1.000  H
  C314     1.0000 0.20914  0.62031  0.01825  Biso   1.000  C
  O70      1.0000 0.81873  0.78946  0.01499  Biso   1.000  O
  H340     1.0000 0.81190  0.62667  0.00171  Biso   1.000  H
  H341     1.0000 0.89061  0.55379  0.00359  Biso   1.000  H
  H342     1.0000 0.03838  0.46771  0.08899  Biso   1.000  H
  H343     1.0000 0.05902  0.40320  0.05740  Biso   1.000  H
  H344     1.0000 0.98339  0.37647  0.08451  Biso   1.000  H
  H345     1.0000 0.18288  0.59439  0.03889  Biso   1.000  H
  H346     1.0000 0.27458  0.61790  0.01980  Biso   1.000  H
  H347     1.0000 0.18911  0.58621  0.99840  Biso   1.000  H
  C315     1.0000 0.79086  0.87969  0.01825  Biso   1.000  C
  H348     1.0000 0.81089  0.91379  0.99840  Biso   1.000  H
  H349     1.0000 0.81712  0.90561  0.03889  Biso   1.000  H
  H350     1.0000 0.72542  0.88210  0.01980  Biso   1.000  H
  C316     1.0000 0.00000  0.25000  0.75543  Biso   1.000  C
  H351     1.0000 0.03611  0.21041  0.74059  Biso   1.000  H
  C317     1.0000 0.06217  0.30674  0.77702  Biso   1.000  C
  H352     1.0000 0.96389  0.28959  0.74059  Biso   1.000  H
  C318     1.0000 0.93783  0.19326  0.77702  Biso   1.000  C
  C319     1.0000 0.03664  0.39148  0.78814  Biso   1.000  C
  C320     1.0000 0.14543  0.27425  0.78748  Biso   1.000  C
  C321     1.0000 0.96336  0.10852  0.78814  Biso   1.000  C
  C322     1.0000 0.85457  0.22575  0.78748  Biso   1.000  C
  C323     1.0000 0.09057  0.44199  0.80937  Biso   1.000  C
  H353     1.0000 0.98071  0.41533  0.78089  Biso   1.000  H
  C324     1.0000 0.20063  0.32603  0.80805  Biso   1.000  C
  O71      1.0000 0.16814  0.19011  0.77575  Biso   1.000  O
  H354     1.0000 0.01929  0.08467  0.78089  Biso   1.000  H
  C325     1.0000 0.90943  0.05801  0.80937  Biso   1.000  C
  C326     1.0000 0.79937  0.17397  0.80805  Biso   1.000  C
  O72      1.0000 0.83186  0.30989  0.77575  Biso   1.000  O
  C327     1.0000 0.17377  0.41044  0.81960  Biso   1.000  C
  O73      1.0000 0.06739  0.52619  0.82126  Biso   1.000  O
  H355     1.0000 0.25777  0.30359  0.81441  Biso   1.000  H
  C328     1.0000 0.24571  0.14918  0.78954  Biso   1.000  C
  O74      1.0000 0.93261  0.97381  0.82126  Biso   1.000  O
  C329     1.0000 0.82623  0.08956  0.81960  Biso   1.000  C
  H356     1.0000 0.74223  0.19641  0.81441  Biso   1.000  H
  C330     1.0000 0.75429  0.35082  0.78954  Biso   1.000  C
  C331     1.0000 0.23245  0.46409  0.84368  Biso   1.000  C
  C332     1.0000 0.97548  0.54823  0.82235  Biso   1.000  C
  H357     1.0000 0.23868  0.14268  0.81421  Biso   1.000  H
  H358     1.0000 0.25389  0.09003  0.77921  Biso   1.000  H
  H359     1.0000 0.29823  0.18650  0.78471  Biso   1.000  H
  C333     1.0000 0.02452  0.95177  0.82235  Biso   1.000  C
  C334     1.0000 0.76755  0.03591  0.84368  Biso   1.000  C
  H360     1.0000 0.76132  0.35732  0.81421  Biso   1.000  H
  H361     1.0000 0.74611  0.40997  0.77921  Biso   1.000  H
  H362     1.0000 0.70177  0.31350  0.78471  Biso   1.000  H
  H363     1.0000 0.22548  0.52867  0.83859  Biso   1.000  H
  H364     1.0000 0.29602  0.44788  0.83979  Biso   1.000  H
  C335     1.0000 0.20907  0.44762  0.88064  Biso   1.000  C
  H365     1.0000 0.94192  0.49859  0.83251  Biso   1.000  H
  H366     1.0000 0.96711  0.60229  0.83610  Biso   1.000  H
  H367     1.0000 0.95371  0.55922  0.79919  Biso   1.000  H
  H368     1.0000 0.05808  0.00141  0.83251  Biso   1.000  H
  H369     1.0000 0.03289  0.89771  0.83610  Biso   1.000  H
  H370     1.0000 0.04629  0.94078  0.79919  Biso   1.000  H
  H371     1.0000 0.77452  0.97133  0.83859  Biso   1.000  H
  H372     1.0000 0.70398  0.05212  0.83979  Biso   1.000  H
  C336     1.0000 0.79093  0.05238  0.88064  Biso   1.000  C
  C337     1.0000 0.14362  0.49833  0.89688  Biso   1.000  C
  C338     1.0000 0.25000  0.37969  0.89923  Biso   1.000  C
  C339     1.0000 0.85638  0.00167  0.89688  Biso   1.000  C
  C340     1.0000 0.75000  0.12031  0.89923  Biso   1.000  C
  H373     1.0000 0.11529  0.54562  0.88479  Biso   1.000  H
  C341     1.0000 0.11870  0.48131  0.93033  Biso   1.000  C
  C342     1.0000 0.22756  0.36509  0.93308  Biso   1.000  C
  O75      1.0000 0.31304  0.32918  0.88215  Biso   1.000  O
  H374     1.0000 0.88471  0.95438  0.88479  Biso   1.000  H
  C343     1.0000 0.88130  0.01869  0.93033  Biso   1.000  C
  C344     1.0000 0.77244  0.13491  0.93308  Biso   1.000  C
  O76      1.0000 0.68696  0.17082  0.88215  Biso   1.000  O
  C345     1.0000 0.16131  0.41472  0.94909  Biso   1.000  C
  O77      1.0000 0.05225  0.52834  0.94698  Biso   1.000  O
  H375     1.0000 0.25831  0.32007  0.94560  Biso   1.000  H
  C346     1.0000 0.34191  0.24953  0.89762  Biso   1.000  C
  O78      1.0000 0.94775  0.97166  0.94698  Biso   1.000  O
  C347     1.0000 0.83869  0.08528  0.94909  Biso   1.000  C
  H376     1.0000 0.74169  0.17993  0.94560  Biso   1.000  H
  C348     1.0000 0.65809  0.25047  0.89762  Biso   1.000  C
  C349     1.0000 0.13445  0.39222  0.98526  Biso   1.000  C
  C350     1.0000 0.98801  0.57362  0.92756  Biso   1.000  C
  H377     1.0000 0.28992  0.21202  0.90289  Biso   1.000  H
  H378     1.0000 0.38183  0.21718  0.88210  Biso   1.000  H
  H379     1.0000 0.37420  0.26373  0.91870  Biso   1.000  H
  C351     1.0000 0.01199  0.92638  0.92756  Biso   1.000  C
  C352     1.0000 0.86555  0.10778  0.98526  Biso   1.000  C
  H380     1.0000 0.71008  0.28798  0.90289  Biso   1.000  H
  H381     1.0000 0.61817  0.28282  0.88210  Biso   1.000  H
  H382     1.0000 0.62580  0.23627  0.91870  Biso   1.000  H
  H383     1.0000 0.18810  0.37333  0.99829  Biso   1.000  H
  H384     1.0000 0.10939  0.44621  0.99641  Biso   1.000  H
  C353     1.0000 0.06538  0.31773  0.98595  Biso   1.000  C
  H385     1.0000 0.01661  0.62353  0.91549  Biso   1.000  H
  H386     1.0000 0.96162  0.53229  0.91101  Biso   1.000  H
  H387     1.0000 0.94098  0.59680  0.94260  Biso   1.000  H
  H388     1.0000 0.98339  0.87647  0.91549  Biso   1.000  H
  H389     1.0000 0.03838  0.96771  0.91101  Biso   1.000  H
  H390     1.0000 0.05902  0.90320  0.94260  Biso   1.000  H
  H391     1.0000 0.81190  0.12667  0.99829  Biso   1.000  H
  H392     1.0000 0.89061  0.05379  0.99641  Biso   1.000  H
  C354     1.0000 0.93462  0.18227  0.98595  Biso   1.000  C
  C355     1.0000 0.09010  0.22803  0.98554  Biso   1.000  C
  C356     1.0000 0.97475  0.33876  0.98597  Biso   1.000  C
  C357     1.0000 0.02525  0.16124  0.98597  Biso   1.000  C
  C358     1.0000 0.90990  0.27197  0.98554  Biso   1.000  C
  O79      1.0000 0.18127  0.21054  0.98501  Biso   1.000  O
  H393     1.0000 0.95679  0.39979  0.98631  Biso   1.000  H
  H394     1.0000 0.04321  0.10021  0.98631  Biso   1.000  H
  O80      1.0000 0.81873  0.28946  0.98501  Biso   1.000  O
  C359     1.0000 0.20914  0.12031  0.98175  Biso   1.000  C
  C360     1.0000 0.79086  0.37969  0.98175  Biso   1.000  C
  H395     1.0000 0.18288  0.09439  0.96111  Biso   1.000  H
  H396     1.0000 0.27458  0.11790  0.98020  Biso   1.000  H
  H397     1.0000 0.18911  0.08621  0.00160  Biso   1.000  H
  H398     1.0000 0.81712  0.40561  0.96111  Biso   1.000  H
  H399     1.0000 0.72542  0.38210  0.98020  Biso   1.000  H
  H400     1.0000 0.81089  0.41379  0.00160  Biso   1.000  H
  Ne1      1.0000 0.00000  0.25000  0.36731  Biso   1.000  Ne
  He1      1.0000 0.16649  0.41479  0.36790  Biso   1.000  He
  He2      1.0000 0.83009  0.08191  0.36799  Biso   1.000  He
  Ar1      1.0000 0.00000  0.25000  0.36731  Biso   1.000  Ar
  Ne2      1.0000 0.50000  0.25000  0.13269  Biso   1.000  Ne
  He3      1.0000 0.32839  0.08026  0.13196  Biso   1.000  He
  He4      1.0000 0.65605  0.40471  0.13238  Biso   1.000  He
  Ar2      1.0000 0.50000  0.25000  0.13269  Biso   1.000  Ar
  Ne3      1.0000 0.50000  0.75000  0.38269  Biso   1.000  Ne
  He5      1.0000 0.33397  0.91779  0.38208  Biso   1.000  He
  He6      1.0000 0.66591  0.58233  0.38208  Biso   1.000  He
  Ar3      1.0000 0.50000  0.75000  0.38269  Biso   1.000  Ar
  Ne4      1.0000 0.00000  0.75000  0.11731  Biso   1.000  Ne
  He7      1.0000 0.84041  0.91112  0.11774  Biso   1.000  He
  He8      1.0000 0.15900  0.58950  0.11772  Biso   1.000  He
  Ar4      1.0000 0.00000  0.75000  0.11731  Biso   1.000  Ar
  Ne5      1.0000 0.50000  0.25000  0.61731  Biso   1.000  Ne
  He9      1.0000 0.34041  0.41112  0.61774  Biso   1.000  He
  He10     1.0000 0.65900  0.08950  0.61772  Biso   1.000  He
  Ar5      1.0000 0.50000  0.25000  0.61731  Biso   1.000  Ar
  Ne6      1.0000 0.00000  0.75000  0.63269  Biso   1.000  Ne
  He11     1.0000 0.82839  0.58026  0.63196  Biso   1.000  He
  He12     1.0000 0.15605  0.90471  0.63238  Biso   1.000  He
  Ar6      1.0000 0.00000  0.75000  0.63269  Biso   1.000  Ar
  Ne7      1.0000 0.00000  0.25000  0.88269  Biso   1.000  Ne
  He13     1.0000 0.83397  0.41779  0.88208  Biso   1.000  He
  He14     1.0000 0.16591  0.08233  0.88208  Biso   1.000  He
  Ar7      1.0000 0.00000  0.25000  0.88269  Biso   1.000  Ar
  Ne8      1.0000 0.50000  0.75000  0.86731  Biso   1.000  Ne
  He15     1.0000 0.66649  0.91479  0.86790  Biso   1.000  He
  He16     1.0000 0.33009  0.58191  0.86799  Biso   1.000  He
  Ar8      1.0000 0.50000  0.75000  0.86731  Biso   1.000  Ar
