data_image0
_cell_length_a       15.93
_cell_length_b       30.884
_cell_length_c       23.559
_cell_angle_alpha    90
_cell_angle_beta     90.98
_cell_angle_gamma    90

_symmetry_space_group_name_H-M    "P 1"
_symmetry_int_tables_number       1

loop_
  _symmetry_equiv_pos_as_xyz
  'x, y, z'

loop_
  _atom_site_label
  _atom_site_occupancy
  _atom_site_fract_x
  _atom_site_fract_y
  _atom_site_fract_z
  _atom_site_thermal_displace_type
  _atom_site_B_iso_or_equiv
  _atom_site_type_symbol
  C1       1.0000 0.52211  0.49210  0.63340  Biso   1.000  C
  C2       1.0000 0.52311  0.44379  0.63569  Biso   1.000  C
  H1       1.0000 0.52047  0.50599  0.59842  Biso   1.000  H
  C3       1.0000 0.52361  0.51551  0.68026  Biso   1.000  C
  C4       1.0000 0.43461  0.42527  0.64100  Biso   1.000  C
  H2       1.0000 0.54708  0.43301  0.60041  Biso   1.000  H
  C5       1.0000 0.57884  0.42928  0.68481  Biso   1.000  C
  H3       1.0000 0.52078  0.54549  0.67772  Biso   1.000  H
  C6       1.0000 0.52985  0.49433  0.73842  Biso   1.000  C
  C7       1.0000 0.42084  0.38418  0.66243  Biso   1.000  C
  C8       1.0000 0.36359  0.44975  0.62792  Biso   1.000  C
  C9       1.0000 0.58148  0.45360  0.73448  Biso   1.000  C
  C10      1.0000 0.62716  0.39140  0.68175  Biso   1.000  C
  H4       1.0000 0.55919  0.51441  0.76419  Biso   1.000  H
  C11      1.0000 0.44212  0.48592  0.76194  Biso   1.000  C
  C12      1.0000 0.34160  0.36864  0.67165  Biso   1.000  C
  H5       1.0000 0.46675  0.36660  0.67080  Biso   1.000  H
  C13      1.0000 0.28378  0.43401  0.63696  Biso   1.000  C
  H6       1.0000 0.36999  0.47730  0.61268  Biso   1.000  H
  C14      1.0000 0.63117  0.43952  0.78058  Biso   1.000  C
  O1       1.0000 0.62286  0.36948  0.63059  Biso   1.000  O
  C15      1.0000 0.67415  0.37825  0.72764  Biso   1.000  C
  C16      1.0000 0.41987  0.44784  0.78797  Biso   1.000  C
  C17      1.0000 0.37949  0.51687  0.75498  Biso   1.000  C
  C18      1.0000 0.27055  0.39321  0.65980  Biso   1.000  C
  H7       1.0000 0.33525  0.34089  0.68629  Biso   1.000  H
  H8       1.0000 0.23778  0.45120  0.62750  Biso   1.000  H
  O2       1.0000 0.63010  0.46639  0.82766  Biso   1.000  O
  C19      1.0000 0.67635  0.40225  0.77761  Biso   1.000  C
  C20      1.0000 0.66097  0.32826  0.62860  Biso   1.000  C
  H9       1.0000 0.70517  0.35280  0.72539  Biso   1.000  H
  H10      1.0000 0.46087  0.42721  0.79569  Biso   1.000  H
  C21      1.0000 0.33845  0.43971  0.80278  Biso   1.000  C
  C22      1.0000 0.29789  0.50839  0.77026  Biso   1.000  C
  H11      1.0000 0.39279  0.54381  0.73978  Biso   1.000  H
  C23      1.0000 0.18488  0.37868  0.67275  Biso   1.000  C
  C24      1.0000 0.67357  0.45269  0.87593  Biso   1.000  C
  H12      1.0000 0.70840  0.39289  0.80860  Biso   1.000  H
  H13      1.0000 0.64116  0.31081  0.65938  Biso   1.000  H
  H14      1.0000 0.64683  0.31450  0.59319  Biso   1.000  H
  H15      1.0000 0.72075  0.33140  0.63191  Biso   1.000  H
  C25      1.0000 0.27493  0.46875  0.79319  Biso   1.000  C
  H16      1.0000 0.32601  0.41339  0.81989  Biso   1.000  H
  H17      1.0000 0.25721  0.52969  0.76508  Biso   1.000  H
  C26      1.0000 0.11756  0.38887  0.63713  Biso   1.000  C
  C27      1.0000 0.16772  0.35562  0.72174  Biso   1.000  C
  H18      1.0000 0.72918  0.44398  0.86591  Biso   1.000  H
  H19      1.0000 0.67670  0.47601  0.90289  Biso   1.000  H
  H20      1.0000 0.64467  0.42860  0.89240  Biso   1.000  H
  C28      1.0000 0.18500  0.45762  0.80155  Biso   1.000  C
  H21      1.0000 0.12724  0.40280  0.60292  Biso   1.000  H
  C29      1.0000 0.03657  0.37880  0.65161  Biso   1.000  C
  C30      1.0000 0.08610  0.34581  0.73613  Biso   1.000  C
  H22      1.0000 0.21176  0.34659  0.74530  Biso   1.000  H
  C31      1.0000 0.15749  0.43187  0.84566  Biso   1.000  C
  C32      1.0000 0.12449  0.47079  0.76216  Biso   1.000  C
  C33      1.0000 0.01870  0.35808  0.70217  Biso   1.000  C
  H23      1.0000 0.99275  0.38609  0.62682  Biso   1.000  H
  H24      1.0000 0.07628  0.33059  0.76950  Biso   1.000  H
  C34      1.0000 0.07510  0.41931  0.84948  Biso   1.000  C
  H25      1.0000 0.19591  0.42291  0.87338  Biso   1.000  H
  C35      1.0000 0.04267  0.45797  0.76615  Biso   1.000  C
  H26      1.0000 0.13999  0.48870  0.73240  Biso   1.000  H
  C36      1.0000 0.92764  0.35229  0.72059  Biso   1.000  C
  C37      1.0000 0.01562  0.43155  0.80877  Biso   1.000  C
  H27      1.0000 0.05879  0.40231  0.87988  Biso   1.000  H
  H28      1.0000 0.00400  0.46749  0.73889  Biso   1.000  H
  C38      1.0000 0.91933  0.33772  0.78151  Biso   1.000  C
  C39      1.0000 0.88139  0.39493  0.71367  Biso   1.000  C
  H29      1.0000 0.90065  0.33069  0.69580  Biso   1.000  H
  C40      1.0000 0.92375  0.41552  0.80987  Biso   1.000  C
  C41      1.0000 0.91376  0.29394  0.79472  Biso   1.000  C
  C42      1.0000 0.91797  0.36815  0.82465  Biso   1.000  C
  C43      1.0000 0.87966  0.42388  0.75430  Biso   1.000  C
  H30      1.0000 0.85347  0.40069  0.67950  Biso   1.000  H
  H31      1.0000 0.89455  0.43191  0.83921  Biso   1.000  H
  O3       1.0000 0.91674  0.26606  0.74849  Biso   1.000  O
  C44      1.0000 0.90656  0.28079  0.85020  Biso   1.000  C
  C45      1.0000 0.90961  0.35455  0.88111  Biso   1.000  C
  H32      1.0000 0.85089  0.44978  0.74861  Biso   1.000  H
  C46      1.0000 0.90735  0.22079  0.75978  Biso   1.000  C
  H33      1.0000 0.90365  0.25149  0.85899  Biso   1.000  H
  C47      1.0000 0.90367  0.31110  0.89219  Biso   1.000  C
  O4       1.0000 0.90413  0.38748  0.92038  Biso   1.000  O
  H34      1.0000 0.85275  0.21548  0.77489  Biso   1.000  H
  H35      1.0000 0.91338  0.20480  0.72509  Biso   1.000  H
  H36      1.0000 0.94966  0.21170  0.78678  Biso   1.000  H
  H37      1.0000 0.89759  0.30200  0.92950  Biso   1.000  H
  C48      1.0000 0.89902  0.37641  0.97871  Biso   1.000  C
  H38      1.0000 0.95330  0.36760  0.99272  Biso   1.000  H
  H39      1.0000 0.88028  0.40108  0.99981  Biso   1.000  H
  H40      1.0000 0.85989  0.35300  0.98300  Biso   1.000  H
  C49      1.0000 0.47795  0.50787  0.36658  Biso   1.000  C
  C50      1.0000 0.47651  0.48449  0.31971  Biso   1.000  C
  C51      1.0000 0.47701  0.55621  0.36433  Biso   1.000  C
  H41      1.0000 0.47965  0.49401  0.40160  Biso   1.000  H
  H42      1.0000 0.47934  0.45451  0.32230  Biso   1.000  H
  C52      1.0000 0.47021  0.50567  0.26155  Biso   1.000  C
  C53      1.0000 0.56551  0.57473  0.35898  Biso   1.000  C
  H43      1.0000 0.45305  0.56699  0.39961  Biso   1.000  H
  C54      1.0000 0.42122  0.57068  0.31521  Biso   1.000  C
  H44      1.0000 0.44093  0.48559  0.23578  Biso   1.000  H
  C55      1.0000 0.41864  0.54640  0.26550  Biso   1.000  C
  C56      1.0000 0.55794  0.51408  0.23803  Biso   1.000  C
  C57      1.0000 0.57929  0.61582  0.33758  Biso   1.000  C
  C58      1.0000 0.63653  0.55025  0.37210  Biso   1.000  C
  C59      1.0000 0.37296  0.60860  0.31827  Biso   1.000  C
  C60      1.0000 0.36889  0.56048  0.21940  Biso   1.000  C
  C61      1.0000 0.58019  0.55213  0.21201  Biso   1.000  C
  C62      1.0000 0.62064  0.48313  0.24504  Biso   1.000  C
  C63      1.0000 0.65852  0.63133  0.32833  Biso   1.000  C
  H45      1.0000 0.53331  0.63340  0.32918  Biso   1.000  H
  H46      1.0000 0.63014  0.52270  0.38730  Biso   1.000  H
  C64      1.0000 0.71628  0.56599  0.36301  Biso   1.000  C
  O5       1.0000 0.37727  0.63049  0.36942  Biso   1.000  O
  C65      1.0000 0.32591  0.62171  0.27238  Biso   1.000  C
  O6       1.0000 0.36996  0.53361  0.17236  Biso   1.000  O
  C66      1.0000 0.32370  0.59775  0.22241  Biso   1.000  C
  H47      1.0000 0.53919  0.57279  0.20428  Biso   1.000  H
  C67      1.0000 0.66161  0.56029  0.19724  Biso   1.000  C
  C68      1.0000 0.70223  0.49161  0.22971  Biso   1.000  C
  H48      1.0000 0.60733  0.45619  0.26019  Biso   1.000  H
  C69      1.0000 0.72957  0.60679  0.34022  Biso   1.000  C
  H49      1.0000 0.66481  0.65908  0.31368  Biso   1.000  H
  H50      1.0000 0.76234  0.54880  0.37248  Biso   1.000  H
  C70      1.0000 0.33915  0.67174  0.37142  Biso   1.000  C
  H51      1.0000 0.29496  0.64720  0.27458  Biso   1.000  H
  C71      1.0000 0.32649  0.54731  0.12409  Biso   1.000  C
  H52      1.0000 0.29172  0.60708  0.19142  Biso   1.000  H
  H53      1.0000 0.67411  0.58658  0.18008  Biso   1.000  H
  C72      1.0000 0.72519  0.53121  0.20679  Biso   1.000  C
  H54      1.0000 0.74292  0.47031  0.23489  Biso   1.000  H
  C73      1.0000 0.81525  0.62132  0.32727  Biso   1.000  C
  H55      1.0000 0.35896  0.68919  0.34060  Biso   1.000  H
  H56      1.0000 0.35323  0.68550  0.40678  Biso   1.000  H
  H57      1.0000 0.27930  0.66860  0.36811  Biso   1.000  H
  H58      1.0000 0.27094  0.55598  0.13411  Biso   1.000  H
  H59      1.0000 0.32342  0.52399  0.09709  Biso   1.000  H
  H60      1.0000 0.35539  0.57140  0.10762  Biso   1.000  H
  C74      1.0000 0.81506  0.54235  0.19842  Biso   1.000  C
  C75      1.0000 0.83240  0.64438  0.27824  Biso   1.000  C
  C76      1.0000 0.88256  0.61109  0.36289  Biso   1.000  C
  C77      1.0000 0.84264  0.56813  0.15432  Biso   1.000  C
  C78      1.0000 0.87563  0.52921  0.23782  Biso   1.000  C
  C79      1.0000 0.91402  0.65419  0.26384  Biso   1.000  C
  H61      1.0000 0.78830  0.65338  0.25472  Biso   1.000  H
  H62      1.0000 0.87282  0.59720  0.39710  Biso   1.000  H
  C80      1.0000 0.96355  0.62116  0.34837  Biso   1.000  C
  H63      1.0000 0.80421  0.57709  0.12659  Biso   1.000  H
  C81      1.0000 0.92503  0.58069  0.15054  Biso   1.000  C
  C82      1.0000 0.95745  0.54203  0.23383  Biso   1.000  C
  H64      1.0000 0.86013  0.51130  0.26758  Biso   1.000  H
  C83      1.0000 0.98136  0.64189  0.29785  Biso   1.000  C
  H65      1.0000 0.92378  0.66941  0.23052  Biso   1.000  H
  H66      1.0000 0.00737  0.61391  0.37320  Biso   1.000  H
  H67      1.0000 0.94133  0.59769  0.12010  Biso   1.000  H
  C84      1.0000 0.98443  0.56842  0.19121  Biso   1.000  C
  H68      1.0000 0.99612  0.53251  0.26108  Biso   1.000  H
  C85      1.0000 0.07242  0.64771  0.27938  Biso   1.000  C
  C86      1.0000 0.07637  0.58448  0.19010  Biso   1.000  C
  C87      1.0000 0.08073  0.66228  0.21850  Biso   1.000  C
  C88      1.0000 0.11867  0.60507  0.28634  Biso   1.000  C
  H69      1.0000 0.09941  0.66928  0.30422  Biso   1.000  H
  C89      1.0000 0.08209  0.63185  0.17533  Biso   1.000  C
  H70      1.0000 0.10551  0.56809  0.16081  Biso   1.000  H
  C90      1.0000 0.12047  0.57609  0.24572  Biso   1.000  C
  C91      1.0000 0.08630  0.70606  0.20530  Biso   1.000  C
  H71      1.0000 0.14665  0.59931  0.32052  Biso   1.000  H
  C92      1.0000 0.09052  0.64545  0.11891  Biso   1.000  C
  H72      1.0000 0.14923  0.55019  0.25141  Biso   1.000  H
  O7       1.0000 0.08332  0.73394  0.25149  Biso   1.000  O
  C93      1.0000 0.09349  0.71921  0.14982  Biso   1.000  C
  O8       1.0000 0.09599  0.61252  0.07960  Biso   1.000  O
  C94      1.0000 0.09639  0.68890  0.10779  Biso   1.000  C
  C95      1.0000 0.09270  0.77921  0.24020  Biso   1.000  C
  H73      1.0000 0.09641  0.74848  0.14099  Biso   1.000  H
  C96      1.0000 0.10110  0.62359  0.02131  Biso   1.000  C
  H74      1.0000 0.10254  0.69800  0.07051  Biso   1.000  H
  H75      1.0000 0.14731  0.78448  0.22508  Biso   1.000  H
  H76      1.0000 0.08674  0.79520  0.27488  Biso   1.000  H
  H77      1.0000 0.05040  0.78830  0.21320  Biso   1.000  H
  H78      1.0000 0.04683  0.63240  0.00730  Biso   1.000  H
  H79      1.0000 0.11978  0.59889  0.00021  Biso   1.000  H
  H80      1.0000 0.14023  0.64700  0.01698  Biso   1.000  H
  C97      1.0000 0.59535  0.39512  0.41926  Biso   1.000  C
  C98      1.0000 0.63101  0.38366  0.36238  Biso   1.000  C
  C99      1.0000 0.61458  0.37233  0.46465  Biso   1.000  C
  H81      1.0000 0.55914  0.41860  0.42219  Biso   1.000  H
  C100     1.0000 0.63817  0.33483  0.35737  Biso   1.000  C
  H82      1.0000 0.59222  0.39399  0.33270  Biso   1.000  H
  C101     1.0000 0.71691  0.40477  0.35342  Biso   1.000  C
  C102     1.0000 0.67218  0.33393  0.46133  Biso   1.000  C
  H83      1.0000 0.59223  0.38010  0.49942  Biso   1.000  H
  C103     1.0000 0.62554  0.31398  0.30507  Biso   1.000  C
  C104     1.0000 0.66034  0.31113  0.40487  Biso   1.000  C
  C105     1.0000 0.76900  0.39095  0.31058  Biso   1.000  C
  C106     1.0000 0.74700  0.43689  0.38904  Biso   1.000  C
  H84      1.0000 0.65612  0.31359  0.49118  Biso   1.000  H
  C107     1.0000 0.76357  0.34753  0.47322  Biso   1.000  C
  O9       1.0000 0.60175  0.34027  0.26041  Biso   1.000  O
  C108     1.0000 0.63663  0.27014  0.30150  Biso   1.000  C
  C109     1.0000 0.67140  0.26609  0.40067  Biso   1.000  C
  C110     1.0000 0.84981  0.40636  0.30647  Biso   1.000  C
  H85      1.0000 0.74899  0.37090  0.28409  Biso   1.000  H
  H86      1.0000 0.71191  0.44839  0.41642  Biso   1.000  H
  C111     1.0000 0.82826  0.45250  0.38509  Biso   1.000  C
  C112     1.0000 0.78422  0.37748  0.51512  Biso   1.000  C
  C113     1.0000 0.82888  0.33143  0.44189  Biso   1.000  C
  C114     1.0000 0.60302  0.32204  0.20369  Biso   1.000  C
  C115     1.0000 0.65922  0.24666  0.34828  Biso   1.000  C
  H87      1.0000 0.62885  0.25618  0.26682  Biso   1.000  H
  O10      1.0000 0.69474  0.24482  0.44987  Biso   1.000  O
  C116     1.0000 0.88261  0.43660  0.34489  Biso   1.000  C
  H88      1.0000 0.88335  0.39629  0.27730  Biso   1.000  H
  H89      1.0000 0.84665  0.47410  0.40988  Biso   1.000  H
  H90      1.0000 0.74217  0.38839  0.53800  Biso   1.000  H
  C117     1.0000 0.86572  0.39137  0.52353  Biso   1.000  C
  C118     1.0000 0.90995  0.34494  0.45055  Biso   1.000  C
  H91      1.0000 0.81750  0.31081  0.41408  Biso   1.000  H
  H92      1.0000 0.65862  0.31210  0.19571  Biso   1.000  H
  H93      1.0000 0.58670  0.34380  0.17660  Biso   1.000  H
  H94      1.0000 0.56454  0.29821  0.20131  Biso   1.000  H
  H95      1.0000 0.66661  0.21691  0.34501  Biso   1.000  H
  C119     1.0000 0.72187  0.20095  0.44512  Biso   1.000  C
  C120     1.0000 0.97335  0.44826  0.34595  Biso   1.000  C
  H96      1.0000 0.87736  0.41170  0.55172  Biso   1.000  H
  C121     1.0000 0.93087  0.37576  0.49097  Biso   1.000  C
  H97      1.0000 0.95215  0.33299  0.42860  Biso   1.000  H
  H98      1.0000 0.67513  0.18310  0.43400  Biso   1.000  H
  H99      1.0000 0.74406  0.19130  0.48112  Biso   1.000  H
  H100     1.0000 0.76472  0.19900  0.41701  Biso   1.000  H
  C122     1.0000 0.03325  0.41717  0.33427  Biso   1.000  C
  C123     1.0000 0.00285  0.48873  0.36098  Biso   1.000  C
  C124     1.0000 0.01792  0.39221  0.49487  Biso   1.000  C
  C125     1.0000 0.11773  0.42556  0.33856  Biso   1.000  C
  H101     1.0000 0.01552  0.38968  0.32311  Biso   1.000  H
  H102     1.0000 0.96475  0.51078  0.36849  Biso   1.000  H
  C126     1.0000 0.08783  0.49709  0.36505  Biso   1.000  C
  C127     1.0000 0.03537  0.43605  0.50009  Biso   1.000  C
  C128     1.0000 0.08613  0.36446  0.48893  Biso   1.000  C
  C129     1.0000 0.14687  0.46574  0.35406  Biso   1.000  C
  H103     1.0000 0.15595  0.40361  0.33092  Biso   1.000  H
  H104     1.0000 0.10573  0.52471  0.37550  Biso   1.000  H
  H105     1.0000 0.99186  0.45528  0.50701  Biso   1.000  H
  C130     1.0000 0.11623  0.45150  0.49530  Biso   1.000  C
  C131     1.0000 0.16737  0.38033  0.48443  Biso   1.000  C
  H106     1.0000 0.07713  0.33470  0.48800  Biso   1.000  H
  C132     1.0000 0.24222  0.47445  0.36140  Biso   1.000  C
  H107     1.0000 0.12567  0.48109  0.49869  Biso   1.000  H
  C133     1.0000 0.18322  0.42465  0.48562  Biso   1.000  C
  H108     1.0000 0.21178  0.36109  0.48048  Biso   1.000  H
  C134     1.0000 0.25986  0.50457  0.41086  Biso   1.000  C
  H109     1.0000 0.26162  0.48870  0.32680  Biso   1.000  H
  C135     1.0000 0.29195  0.43356  0.36930  Biso   1.000  C
  C136     1.0000 0.27113  0.44172  0.47433  Biso   1.000  C
  C137     1.0000 0.27278  0.48944  0.46240  Biso   1.000  C
  H110     1.0000 0.26152  0.53429  0.40470  Biso   1.000  H
  C138     1.0000 0.30845  0.41821  0.42351  Biso   1.000  C
  C139     1.0000 0.32380  0.41112  0.32298  Biso   1.000  C
  H111     1.0000 0.30675  0.43599  0.50778  Biso   1.000  H
  H112     1.0000 0.28313  0.50871  0.49211  Biso   1.000  H
  C140     1.0000 0.35932  0.38104  0.43192  Biso   1.000  C
  O11      1.0000 0.30338  0.42766  0.27030  Biso   1.000  O
  C141     1.0000 0.37273  0.37469  0.33160  Biso   1.000  C
  O12      1.0000 0.37359  0.36870  0.48715  Biso   1.000  O
  C142     1.0000 0.39085  0.35977  0.38539  Biso   1.000  C
  C143     1.0000 0.32411  0.40322  0.22118  Biso   1.000  C
  H113     1.0000 0.39360  0.35999  0.30040  Biso   1.000  H
  C144     1.0000 0.41153  0.32813  0.49814  Biso   1.000  C
  H114     1.0000 0.42431  0.33538  0.39040  Biso   1.000  H
  H115     1.0000 0.38411  0.40179  0.21791  Biso   1.000  H
  H116     1.0000 0.30042  0.41688  0.18798  Biso   1.000  H
  H117     1.0000 0.30191  0.37450  0.22449  Biso   1.000  H
  H118     1.0000 0.37443  0.30540  0.48570  Biso   1.000  H
  H119     1.0000 0.42252  0.32518  0.53809  Biso   1.000  H
  H120     1.0000 0.46332  0.32619  0.47810  Biso   1.000  H
  C145     1.0000 0.40477  0.60488  0.58071  Biso   1.000  C
  C146     1.0000 0.38548  0.62767  0.53533  Biso   1.000  C
  C147     1.0000 0.36911  0.61634  0.63760  Biso   1.000  C
  H121     1.0000 0.44098  0.58140  0.57778  Biso   1.000  H
  C148     1.0000 0.32794  0.66607  0.53864  Biso   1.000  C
  H122     1.0000 0.40783  0.61990  0.50060  Biso   1.000  H
  C149     1.0000 0.36195  0.66517  0.64261  Biso   1.000  C
  H123     1.0000 0.40784  0.60601  0.66732  Biso   1.000  H
  C150     1.0000 0.28315  0.59519  0.64660  Biso   1.000  C
  C151     1.0000 0.23655  0.65247  0.52675  Biso   1.000  C
  C152     1.0000 0.33972  0.68887  0.59510  Biso   1.000  C
  H124     1.0000 0.34394  0.68641  0.50880  Biso   1.000  H
  C153     1.0000 0.37458  0.68602  0.69491  Biso   1.000  C
  C154     1.0000 0.23106  0.60902  0.68943  Biso   1.000  C
  C155     1.0000 0.25306  0.56311  0.61098  Biso   1.000  C
  C156     1.0000 0.21590  0.62252  0.48485  Biso   1.000  C
  C157     1.0000 0.17124  0.66857  0.55808  Biso   1.000  C
  C158     1.0000 0.32866  0.73388  0.59931  Biso   1.000  C
  C159     1.0000 0.36349  0.72986  0.69852  Biso   1.000  C
  O13      1.0000 0.39831  0.65973  0.73961  Biso   1.000  O
  C160     1.0000 0.15025  0.59364  0.69355  Biso   1.000  C
  H125     1.0000 0.25106  0.62910  0.71588  Biso   1.000  H
  H126     1.0000 0.28815  0.55158  0.58360  Biso   1.000  H
  C161     1.0000 0.17186  0.54750  0.61493  Biso   1.000  C
  C162     1.0000 0.13434  0.60860  0.47645  Biso   1.000  C
  H127     1.0000 0.25795  0.61158  0.46201  Biso   1.000  H
  C163     1.0000 0.09017  0.65506  0.54947  Biso   1.000  C
  H128     1.0000 0.18255  0.68919  0.58589  Biso   1.000  H
  O14      1.0000 0.30538  0.75515  0.55010  Biso   1.000  O
  C164     1.0000 0.34084  0.75334  0.65169  Biso   1.000  C
  H129     1.0000 0.37128  0.74378  0.73320  Biso   1.000  H
  C165     1.0000 0.39710  0.67792  0.79629  Biso   1.000  C
  C166     1.0000 0.11745  0.56337  0.65513  Biso   1.000  C
  H130     1.0000 0.11677  0.60368  0.72272  Biso   1.000  H
  H131     1.0000 0.15347  0.52590  0.59009  Biso   1.000  H
  H132     1.0000 0.12276  0.58830  0.44830  Biso   1.000  H
  C167     1.0000 0.06918  0.62424  0.50901  Biso   1.000  C
  H133     1.0000 0.04798  0.66698  0.57142  Biso   1.000  H
  C168     1.0000 0.27825  0.79902  0.55490  Biso   1.000  C
  H134     1.0000 0.33345  0.78309  0.65500  Biso   1.000  H
  H135     1.0000 0.34150  0.68790  0.80431  Biso   1.000  H
  H136     1.0000 0.41336  0.65620  0.82342  Biso   1.000  H
  H137     1.0000 0.43558  0.70179  0.79871  Biso   1.000  H
  C169     1.0000 0.02678  0.55171  0.65407  Biso   1.000  C
  C170     1.0000 0.98221  0.60776  0.50510  Biso   1.000  C
  H138     1.0000 0.32493  0.81690  0.56598  Biso   1.000  H
  H139     1.0000 0.25606  0.80870  0.51890  Biso   1.000  H
  H140     1.0000 0.23534  0.80100  0.58300  Biso   1.000  H
  C171     1.0000 0.96687  0.58283  0.66575  Biso   1.000  C
  C172     1.0000 0.99727  0.51127  0.63904  Biso   1.000  C
  C173     1.0000 0.96475  0.56395  0.49988  Biso   1.000  C
  C174     1.0000 0.91393  0.63554  0.51105  Biso   1.000  C
  C175     1.0000 0.88233  0.57444  0.66142  Biso   1.000  C
  H141     1.0000 0.98454  0.61028  0.67691  Biso   1.000  H
  C176     1.0000 0.91223  0.50291  0.63497  Biso   1.000  C
  H142     1.0000 0.03537  0.48919  0.63149  Biso   1.000  H
  H143     1.0000 0.00826  0.54468  0.49300  Biso   1.000  H
  C177     1.0000 0.88383  0.54850  0.50472  Biso   1.000  C
  C178     1.0000 0.83275  0.61967  0.51559  Biso   1.000  C
  H144     1.0000 0.92293  0.66530  0.51198  Biso   1.000  H
  C179     1.0000 0.85325  0.53426  0.64592  Biso   1.000  C
  H145     1.0000 0.84417  0.59639  0.66910  Biso   1.000  H
  H146     1.0000 0.89433  0.47529  0.62448  Biso   1.000  H
  H147     1.0000 0.87445  0.51891  0.50128  Biso   1.000  H
  C180     1.0000 0.81690  0.57535  0.51436  Biso   1.000  C
  H148     1.0000 0.78834  0.63891  0.51950  Biso   1.000  H
  C181     1.0000 0.75784  0.52555  0.63862  Biso   1.000  C
  C182     1.0000 0.72899  0.55828  0.52569  Biso   1.000  C
  C183     1.0000 0.74026  0.49543  0.58912  Biso   1.000  C
  C184     1.0000 0.70817  0.56644  0.63072  Biso   1.000  C
  H149     1.0000 0.73843  0.51130  0.67322  Biso   1.000  H
  H150     1.0000 0.69337  0.56398  0.49220  Biso   1.000  H
  C185     1.0000 0.72735  0.51056  0.53762  Biso   1.000  C
  C186     1.0000 0.69167  0.58179  0.57651  Biso   1.000  C
  H151     1.0000 0.73854  0.46571  0.59532  Biso   1.000  H
  C187     1.0000 0.67626  0.58885  0.67700  Biso   1.000  C
  H152     1.0000 0.71693  0.49129  0.50791  Biso   1.000  H
  C188     1.0000 0.64074  0.61896  0.56810  Biso   1.000  C
  O15      1.0000 0.69668  0.57234  0.72972  Biso   1.000  O
  C189     1.0000 0.62739  0.62531  0.66838  Biso   1.000  C
  O16      1.0000 0.62653  0.63130  0.51283  Biso   1.000  O
  C190     1.0000 0.60927  0.64023  0.61459  Biso   1.000  C
  C191     1.0000 0.67595  0.59675  0.77880  Biso   1.000  C
  H153     1.0000 0.60646  0.64001  0.69958  Biso   1.000  H
  C192     1.0000 0.58853  0.67184  0.50188  Biso   1.000  C
  H154     1.0000 0.57575  0.66458  0.60958  Biso   1.000  H
  H155     1.0000 0.61595  0.59821  0.78211  Biso   1.000  H
  H156     1.0000 0.69970  0.58309  0.81200  Biso   1.000  H
  H157     1.0000 0.69815  0.62550  0.77549  Biso   1.000  H
  H158     1.0000 0.62563  0.69460  0.51432  Biso   1.000  H
  H159     1.0000 0.57753  0.67478  0.46189  Biso   1.000  H
  H160     1.0000 0.53674  0.67378  0.52192  Biso   1.000  H
  C193     1.0000 0.73795  0.71872  0.39337  Biso   1.000  C
  O17      1.0000 0.77177  0.75392  0.42495  Biso   1.000  O
  H161     1.0000 0.74900  0.72280  0.35380  Biso   1.000  H
  H162     1.0000 0.67832  0.71730  0.39880  Biso   1.000  H
  H163     1.0000 0.76344  0.69220  0.40619  Biso   1.000  H
  C194     1.0000 0.85805  0.75842  0.42627  Biso   1.000  C
  C195     1.0000 0.88951  0.79002  0.46384  Biso   1.000  C
  C196     1.0000 0.91073  0.73375  0.39451  Biso   1.000  C
  C197     1.0000 0.83132  0.81515  0.50120  Biso   1.000  C
  C198     1.0000 0.97552  0.79682  0.46651  Biso   1.000  C
  C199     1.0000 0.99584  0.73993  0.39872  Biso   1.000  C
  H164     1.0000 0.88890  0.71280  0.37010  Biso   1.000  H
  C200     1.0000 0.86762  0.86035  0.50935  Biso   1.000  C
  H165     1.0000 0.77623  0.81748  0.48231  Biso   1.000  H
  C201     1.0000 0.82140  0.79187  0.55834  Biso   1.000  C
  C202     1.0000 0.01087  0.83150  0.50659  Biso   1.000  C
  C203     1.0000 0.02824  0.77134  0.43412  Biso   1.000  C
  H166     1.0000 0.03184  0.72280  0.37762  Biso   1.000  H
  C204     1.0000 0.94854  0.86786  0.51185  Biso   1.000  C
  H167     1.0000 0.83092  0.88360  0.51279  Biso   1.000  H
  C205     1.0000 0.80627  0.74760  0.56042  Biso   1.000  C
  C206     1.0000 0.83094  0.81265  0.61022  Biso   1.000  C
  C207     1.0000 0.03514  0.81311  0.56522  Biso   1.000  C
  H168     1.0000 0.06173  0.84328  0.48961  Biso   1.000  H
  O18      1.0000 0.11357  0.77840  0.44202  Biso   1.000  O
  H169     1.0000 0.96781  0.89610  0.51691  Biso   1.000  H
  H170     1.0000 0.79543  0.73268  0.52680  Biso   1.000  H
  C208     1.0000 0.80693  0.72513  0.61132  Biso   1.000  C
  C209     1.0000 0.83126  0.79031  0.66018  Biso   1.000  C
  H171     1.0000 0.83736  0.84260  0.61090  Biso   1.000  H
  C210     1.0000 0.05273  0.84040  0.61060  Biso   1.000  C
  C211     1.0000 0.03828  0.76923  0.57532  Biso   1.000  C
  C212     1.0000 0.16792  0.74382  0.42678  Biso   1.000  C
  H172     1.0000 0.79744  0.69541  0.61098  Biso   1.000  H
  C213     1.0000 0.82147  0.74586  0.66256  Biso   1.000  C
  H173     1.0000 0.83827  0.80560  0.69402  Biso   1.000  H
  C214     1.0000 0.06959  0.82431  0.66413  Biso   1.000  C
  H174     1.0000 0.05315  0.87019  0.60478  Biso   1.000  H
  H175     1.0000 0.02805  0.75010  0.54552  Biso   1.000  H
  C215     1.0000 0.05615  0.75308  0.62890  Biso   1.000  C
  H176     1.0000 0.15017  0.71759  0.44491  Biso   1.000  H
  H177     1.0000 0.22434  0.75058  0.43879  Biso   1.000  H
  H178     1.0000 0.16602  0.73999  0.38628  Biso   1.000  H
  C216     1.0000 0.83380  0.72228  0.71597  Biso   1.000  C
  C217     1.0000 0.07030  0.78005  0.67483  Biso   1.000  C
  H179     1.0000 0.08058  0.84348  0.69381  Biso   1.000  H
  H180     1.0000 0.05885  0.72329  0.63412  Biso   1.000  H
  C218     1.0000 0.88438  0.68557  0.71783  Biso   1.000  C
  C219     1.0000 0.80209  0.73598  0.76755  Biso   1.000  C
  C220     1.0000 0.07909  0.76081  0.73176  Biso   1.000  C
  H181     1.0000 0.90525  0.67449  0.68421  Biso   1.000  H
  C221     1.0000 0.90438  0.66507  0.76861  Biso   1.000  C
  C222     1.0000 0.82238  0.71487  0.81773  Biso   1.000  C
  H182     1.0000 0.76645  0.75978  0.76840  Biso   1.000  H
  C223     1.0000 0.12774  0.72452  0.74199  Biso   1.000  C
  C224     1.0000 0.03301  0.77603  0.77638  Biso   1.000  C
  H183     1.0000 0.93876  0.64069  0.76810  Biso   1.000  H
  C225     1.0000 0.87528  0.67951  0.81947  Biso   1.000  C
  H184     1.0000 0.79956  0.72491  0.85139  Biso   1.000  H
  C226     1.0000 0.12679  0.70302  0.79353  Biso   1.000  C
  H185     1.0000 0.16217  0.71429  0.71338  Biso   1.000  H
  H186     1.0000 0.00201  0.80129  0.77179  Biso   1.000  H
  C227     1.0000 0.03168  0.75450  0.82821  Biso   1.000  C
  C228     1.0000 0.90138  0.65853  0.87606  Biso   1.000  C
  C229     1.0000 0.07629  0.71694  0.83692  Biso   1.000  C
  H187     1.0000 0.16070  0.67880  0.79900  Biso   1.000  H
  H188     1.0000 0.00010  0.76570  0.85750  Biso   1.000  H
  C230     1.0000 0.97517  0.62864  0.86965  Biso   1.000  C
  H189     1.0000 0.85388  0.64130  0.88930  Biso   1.000  H
  C231     1.0000 0.92096  0.69236  0.92063  Biso   1.000  C
  C232     1.0000 0.06952  0.69091  0.89202  Biso   1.000  C
  C233     1.0000 0.96330  0.58532  0.85470  Biso   1.000  C
  C234     1.0000 0.05650  0.64325  0.87882  Biso   1.000  C
  H190     1.0000 0.87822  0.70308  0.94300  Biso   1.000  H
  C235     1.0000 0.99767  0.70674  0.92802  Biso   1.000  C
  H191     1.0000 0.12211  0.69418  0.91388  Biso   1.000  H
  O19      1.0000 0.88037  0.57357  0.84468  Biso   1.000  O
  C236     1.0000 0.02939  0.55770  0.84923  Biso   1.000  C
  C237     1.0000 0.12400  0.61456  0.87444  Biso   1.000  C
  H192     1.0000 0.00843  0.72721  0.95621  Biso   1.000  H
  C238     1.0000 0.86587  0.53196  0.81989  Biso   1.000  C
  C239     1.0000 0.11057  0.57185  0.85971  Biso   1.000  C
  H193     1.0000 0.01989  0.52911  0.83832  Biso   1.000  H
  O20      1.0000 0.20219  0.63162  0.88552  Biso   1.000  O
  H194     1.0000 0.89740  0.52940  0.78559  Biso   1.000  H
  H195     1.0000 0.80715  0.52869  0.81119  Biso   1.000  H
  H196     1.0000 0.88336  0.50981  0.84608  Biso   1.000  H
  H197     1.0000 0.15551  0.55281  0.85691  Biso   1.000  H
  C240     1.0000 0.27278  0.60390  0.88208  Biso   1.000  C
  H198     1.0000 0.26492  0.57930  0.90620  Biso   1.000  H
  H199     1.0000 0.32236  0.61929  0.89410  Biso   1.000  H
  H200     1.0000 0.27896  0.59439  0.84358  Biso   1.000  H
  C241     1.0000 0.26217  0.28128  0.60661  Biso   1.000  C
  O21      1.0000 0.22836  0.24605  0.57507  Biso   1.000  O
  H201     1.0000 0.25106  0.27720  0.64622  Biso   1.000  H
  H202     1.0000 0.32174  0.28270  0.60122  Biso   1.000  H
  H203     1.0000 0.23668  0.30780  0.59379  Biso   1.000  H
  C242     1.0000 0.14207  0.24158  0.57375  Biso   1.000  C
  C243     1.0000 0.11055  0.20998  0.53614  Biso   1.000  C
  C244     1.0000 0.08939  0.26622  0.60550  Biso   1.000  C
  C245     1.0000 0.16874  0.18482  0.49878  Biso   1.000  C
  C246     1.0000 0.02454  0.20315  0.53346  Biso   1.000  C
  C247     1.0000 0.00429  0.26007  0.60126  Biso   1.000  C
  H204     1.0000 0.11116  0.28720  0.62992  Biso   1.000  H
  C248     1.0000 0.17865  0.20813  0.44164  Biso   1.000  C
  C249     1.0000 0.13244  0.13965  0.49063  Biso   1.000  C
  H205     1.0000 0.22383  0.18249  0.51771  Biso   1.000  H
  C250     1.0000 0.98925  0.16850  0.49343  Biso   1.000  C
  C251     1.0000 0.97188  0.22863  0.56585  Biso   1.000  C
  H206     1.0000 0.96822  0.27720  0.62240  Biso   1.000  H
  C252     1.0000 0.19386  0.25236  0.43956  Biso   1.000  C
  C253     1.0000 0.16912  0.18731  0.38980  Biso   1.000  C
  C254     1.0000 0.05152  0.13214  0.48817  Biso   1.000  C
  H207     1.0000 0.16913  0.11640  0.48719  Biso   1.000  H
  C255     1.0000 0.96492  0.18689  0.43480  Biso   1.000  C
  H208     1.0000 0.93833  0.15668  0.51041  Biso   1.000  H
  O22      1.0000 0.88656  0.22160  0.55796  Biso   1.000  O
  C256     1.0000 0.19313  0.27487  0.38870  Biso   1.000  C
  H209     1.0000 0.20462  0.26729  0.47318  Biso   1.000  H
  C257     1.0000 0.16886  0.20969  0.33979  Biso   1.000  C
  H210     1.0000 0.16276  0.15740  0.38908  Biso   1.000  H
  H211     1.0000 0.03225  0.10390  0.48311  Biso   1.000  H
  C258     1.0000 0.94733  0.15960  0.38942  Biso   1.000  C
  C259     1.0000 0.96184  0.23077  0.42466  Biso   1.000  C
  C260     1.0000 0.83214  0.25618  0.57324  Biso   1.000  C
  C261     1.0000 0.17859  0.25414  0.33746  Biso   1.000  C
  H212     1.0000 0.20262  0.30459  0.38900  Biso   1.000  H
  H213     1.0000 0.16185  0.19440  0.30600  Biso   1.000  H
  C262     1.0000 0.93053  0.17566  0.33584  Biso   1.000  C
  H214     1.0000 0.94691  0.12981  0.39519  Biso   1.000  H
  H215     1.0000 0.97201  0.24990  0.45450  Biso   1.000  H
  C263     1.0000 0.94391  0.24692  0.37112  Biso   1.000  C
  H216     1.0000 0.84995  0.28241  0.55511  Biso   1.000  H
  H217     1.0000 0.77578  0.24938  0.56118  Biso   1.000  H
  H218     1.0000 0.83404  0.26001  0.61370  Biso   1.000  H
  C264     1.0000 0.16632  0.27772  0.28401  Biso   1.000  C
  C265     1.0000 0.92982  0.21992  0.32519  Biso   1.000  C
  H219     1.0000 0.91955  0.15649  0.30621  Biso   1.000  H
  H220     1.0000 0.94121  0.27671  0.36590  Biso   1.000  H
  C266     1.0000 0.19803  0.26402  0.23243  Biso   1.000  C
  C267     1.0000 0.11574  0.31440  0.28214  Biso   1.000  C
  C268     1.0000 0.92097  0.23919  0.26822  Biso   1.000  C
  C269     1.0000 0.17774  0.28513  0.18229  Biso   1.000  C
  H221     1.0000 0.23360  0.24019  0.23158  Biso   1.000  H
  H222     1.0000 0.09481  0.32551  0.31581  Biso   1.000  H
  C270     1.0000 0.09575  0.33493  0.23137  Biso   1.000  C
  C271     1.0000 0.87231  0.27548  0.25803  Biso   1.000  C
  C272     1.0000 0.96711  0.22393  0.22360  Biso   1.000  C
  C273     1.0000 0.12484  0.32049  0.18051  Biso   1.000  C
  H223     1.0000 0.20049  0.27509  0.14858  Biso   1.000  H
  H224     1.0000 0.06130  0.35931  0.23192  Biso   1.000  H
  C274     1.0000 0.87333  0.29698  0.20649  Biso   1.000  C
  H225     1.0000 0.83795  0.28568  0.28660  Biso   1.000  H
  C275     1.0000 0.96838  0.24550  0.17181  Biso   1.000  C
  H226     1.0000 0.99811  0.19871  0.22818  Biso   1.000  H
  C276     1.0000 0.09874  0.34147  0.12392  Biso   1.000  C
  C277     1.0000 0.92384  0.28306  0.16310  Biso   1.000  C
  H227     1.0000 0.83942  0.32120  0.20101  Biso   1.000  H
  H228     1.0000 0.00003  0.23430  0.14251  Biso   1.000  H
  C278     1.0000 0.02489  0.37136  0.13033  Biso   1.000  C
  H229     1.0000 0.14624  0.35870  0.11072  Biso   1.000  H
  C279     1.0000 0.07910  0.30764  0.07939  Biso   1.000  C
  C280     1.0000 0.93060  0.30909  0.10800  Biso   1.000  C
  C281     1.0000 0.03682  0.41468  0.14532  Biso   1.000  C
  C282     1.0000 0.94362  0.35675  0.12116  Biso   1.000  C
  H230     1.0000 0.12191  0.29689  0.05701  Biso   1.000  H
  C283     1.0000 0.00239  0.29326  0.07196  Biso   1.000  C
  H231     1.0000 0.87801  0.30579  0.08609  Biso   1.000  H
  O23      1.0000 0.11969  0.42643  0.15533  Biso   1.000  O
  C284     1.0000 0.97073  0.44230  0.15079  Biso   1.000  C
  C285     1.0000 0.87612  0.38544  0.12558  Biso   1.000  C
  H232     1.0000 0.99169  0.27279  0.04381  Biso   1.000  H
  C286     1.0000 0.13425  0.46804  0.18008  Biso   1.000  C
  C287     1.0000 0.88949  0.42812  0.14026  Biso   1.000  C
  H233     1.0000 0.98024  0.47089  0.16170  Biso   1.000  H
  O24      1.0000 0.79787  0.36838  0.11450  Biso   1.000  O
  H234     1.0000 0.10272  0.47060  0.21439  Biso   1.000  H
  H235     1.0000 0.19291  0.47128  0.18879  Biso   1.000  H
  H236     1.0000 0.11670  0.49019  0.15389  Biso   1.000  H
  H237     1.0000 0.84461  0.44719  0.14311  Biso   1.000  H
  C288     1.0000 0.72728  0.39610  0.11793  Biso   1.000  C
  H238     1.0000 0.73520  0.42070  0.09382  Biso   1.000  H
  H239     1.0000 0.67769  0.38068  0.10592  Biso   1.000  H
  H240     1.0000 0.72109  0.40558  0.15640  Biso   1.000  H
  C289     1.0000 0.53165  0.74547  0.32820  Biso   1.000  C
  C290     1.0000 0.53292  0.72393  0.27637  Biso   1.000  C
  C291     1.0000 0.57626  0.78303  0.33691  Biso   1.000  C
  H241     1.0000 0.50000  0.73430  0.35750  Biso   1.000  H
  C292     1.0000 0.57906  0.73919  0.23175  Biso   1.000  C
  H242     1.0000 0.50192  0.69868  0.27178  Biso   1.000  H
  C293     1.0000 0.62670  0.79695  0.29352  Biso   1.000  C
  C294     1.0000 0.56943  0.80906  0.39201  Biso   1.000  C
  C295     1.0000 0.57021  0.71992  0.17482  Biso   1.000  C
  C296     1.0000 0.62772  0.77545  0.24198  Biso   1.000  C
  H243     1.0000 0.66061  0.82120  0.29900  Biso   1.000  H
  C297     1.0000 0.55641  0.85675  0.37885  Biso   1.000  C
  C298     1.0000 0.49764  0.79326  0.42801  Biso   1.000  C
  H244     1.0000 0.62202  0.80579  0.41392  Biso   1.000  H
  C299     1.0000 0.56950  0.67566  0.16412  Biso   1.000  C
  C300     1.0000 0.55612  0.74692  0.12889  Biso   1.000  C
  H245     1.0000 0.66208  0.78568  0.21341  Biso   1.000  H
  C301     1.0000 0.47514  0.87136  0.36968  Biso   1.000  C
  C302     1.0000 0.62391  0.88544  0.37443  Biso   1.000  C
  C303     1.0000 0.42093  0.80764  0.42062  Biso   1.000  C
  H246     1.0000 0.50834  0.77279  0.45620  Biso   1.000  H
  C304     1.0000 0.55270  0.65960  0.11059  Biso   1.000  C
  H247     1.0000 0.58048  0.65649  0.19380  Biso   1.000  H
  C305     1.0000 0.53819  0.73077  0.07535  Biso   1.000  C
  H248     1.0000 0.55882  0.77668  0.13411  Biso   1.000  H
  C306     1.0000 0.40135  0.84147  0.37609  Biso   1.000  C
  C307     1.0000 0.46321  0.91468  0.35469  Biso   1.000  C
  O25      1.0000 0.70216  0.86835  0.38551  Biso   1.000  O
  C308     1.0000 0.61054  0.92812  0.35975  Biso   1.000  C
  H249     1.0000 0.37812  0.79689  0.44300  Biso   1.000  H
  C309     1.0000 0.53511  0.68689  0.06521  Biso   1.000  C
  H250     1.0000 0.55312  0.62981  0.10482  Biso   1.000  H
  H251     1.0000 0.52802  0.74990  0.04551  Biso   1.000  H
  C310     1.0000 0.37525  0.82049  0.31946  Biso   1.000  C
  H252     1.0000 0.35385  0.85870  0.38929  Biso   1.000  H
  O26      1.0000 0.38034  0.92643  0.34467  Biso   1.000  O
  C311     1.0000 0.52936  0.94230  0.34922  Biso   1.000  C
  C312     1.0000 0.77275  0.89610  0.38208  Biso   1.000  C
  H253     1.0000 0.65542  0.94719  0.35690  Biso   1.000  H
  C313     1.0000 0.51078  0.66850  0.00658  Biso   1.000  C
  C314     1.0000 0.40435  0.83490  0.26860  Biso   1.000  C
  C315     1.0000 0.32235  0.78510  0.31772  Biso   1.000  C
  C316     1.0000 0.36584  0.96804  0.31988  Biso   1.000  C
  H254     1.0000 0.51986  0.97089  0.33831  Biso   1.000  H
  H255     1.0000 0.76483  0.92070  0.40619  Biso   1.000  H
  H256     1.0000 0.82233  0.88068  0.39409  Biso   1.000  H
  H257     1.0000 0.77894  0.90558  0.34361  Biso   1.000  H
  C317     1.0000 0.44851  0.63214  0.01184  Biso   1.000  C
  H258     1.0000 0.56182  0.65668  0.98960  Biso   1.000  H
  C318     1.0000 0.47561  0.70315  0.96650  Biso   1.000  C
  C319     1.0000 0.38429  0.81440  0.21787  Biso   1.000  C
  H259     1.0000 0.43873  0.85928  0.26809  Biso   1.000  H
  C320     1.0000 0.30200  0.76402  0.26758  Biso   1.000  C
  H260     1.0000 0.29953  0.77509  0.35138  Biso   1.000  H
  H261     1.0000 0.39731  0.97060  0.28558  Biso   1.000  H
  H262     1.0000 0.30712  0.97128  0.31118  Biso   1.000  H
  H263     1.0000 0.38333  0.99019  0.34612  Biso   1.000  H
  C321     1.0000 0.36759  0.63962  0.00938  Biso   1.000  C
  H264     1.0000 0.46778  0.60390  0.01690  Biso   1.000  H
  C322     1.0000 0.38961  0.70998  0.96383  Biso   1.000  C
  C323     1.0000 0.52828  0.72863  0.93411  Biso   1.000  C
  C324     1.0000 0.33371  0.77772  0.21596  Biso   1.000  C
  H265     1.0000 0.40522  0.82548  0.18420  Biso   1.000  H
  H266     1.0000 0.26642  0.74019  0.26839  Biso   1.000  H
  H267     1.0000 0.33090  0.61640  0.01282  Biso   1.000  H
  C325     1.0000 0.33129  0.68482  0.00119  Biso   1.000  C
  C326     1.0000 0.35808  0.74158  0.92622  Biso   1.000  C
  O27      1.0000 0.61360  0.72160  0.94201  Biso   1.000  O
  C327     1.0000 0.49587  0.76004  0.89871  Biso   1.000  C
  C328     1.0000 0.32144  0.75414  0.16255  Biso   1.000  C
  C329     1.0000 0.32138  0.70813  0.05837  Biso   1.000  C
  H268     1.0000 0.27633  0.68249  0.98230  Biso   1.000  H
  O28      1.0000 0.27180  0.74605  0.92490  Biso   1.000  O
  C330     1.0000 0.41076  0.76622  0.89446  Biso   1.000  C
  C331     1.0000 0.66802  0.75618  0.92677  Biso   1.000  C
  H269     1.0000 0.53187  0.77720  0.87757  Biso   1.000  H
  C332     1.0000 0.30690  0.77487  0.11131  Biso   1.000  C
  C333     1.0000 0.33123  0.70969  0.16022  Biso   1.000  C
  C334     1.0000 0.30617  0.75236  0.06045  Biso   1.000  C
  C335     1.0000 0.33091  0.68731  0.11021  Biso   1.000  C
  C336     1.0000 0.23798  0.78128  0.89336  Biso   1.000  C
  H270     1.0000 0.38899  0.78720  0.87009  Biso   1.000  H
  H271     1.0000 0.65021  0.78238  0.94490  Biso   1.000  H
  H272     1.0000 0.72438  0.74938  0.93878  Biso   1.000  H
  H273     1.0000 0.66611  0.76001  0.88627  Biso   1.000  H
  H274     1.0000 0.29741  0.80459  0.11101  Biso   1.000  H
  H275     1.0000 0.33824  0.69440  0.19401  Biso   1.000  H
  H276     1.0000 0.29540  0.76729  0.02679  Biso   1.000  H
  H277     1.0000 0.33733  0.65740  0.11089  Biso   1.000  H
  H278     1.0000 0.24910  0.77720  0.85379  Biso   1.000  H
  H279     1.0000 0.17842  0.78270  0.89879  Biso   1.000  H
  H280     1.0000 0.26348  0.80780  0.90618  Biso   1.000  H
  C337     1.0000 0.46847  0.25450  0.67177  Biso   1.000  C
  C338     1.0000 0.42387  0.21694  0.66307  Biso   1.000  C
  C339     1.0000 0.46714  0.27603  0.72361  Biso   1.000  C
  H281     1.0000 0.50006  0.26570  0.64248  Biso   1.000  H
  C340     1.0000 0.43063  0.19091  0.60797  Biso   1.000  C
  C341     1.0000 0.37336  0.20302  0.70646  Biso   1.000  C
  C342     1.0000 0.42106  0.26081  0.76823  Biso   1.000  C
  H282     1.0000 0.49814  0.30129  0.72819  Biso   1.000  H
  C343     1.0000 0.50248  0.20674  0.57197  Biso   1.000  C
  C344     1.0000 0.44365  0.14325  0.62117  Biso   1.000  C
  H283     1.0000 0.37804  0.19421  0.58610  Biso   1.000  H
  H284     1.0000 0.33945  0.17880  0.70098  Biso   1.000  H
  C345     1.0000 0.37234  0.22452  0.75804  Biso   1.000  C
  C346     1.0000 0.42985  0.28008  0.82516  Biso   1.000  C
  C347     1.0000 0.57913  0.19236  0.57940  Biso   1.000  C
  H285     1.0000 0.49172  0.22721  0.54378  Biso   1.000  H
  C348     1.0000 0.52498  0.12864  0.63034  Biso   1.000  C
  C349     1.0000 0.37615  0.11456  0.62558  Biso   1.000  C
  H286     1.0000 0.33798  0.21429  0.78661  Biso   1.000  H
  C350     1.0000 0.43056  0.32434  0.83585  Biso   1.000  C
  C351     1.0000 0.44401  0.25308  0.87113  Biso   1.000  C
  C352     1.0000 0.59877  0.15853  0.62393  Biso   1.000  C
  H287     1.0000 0.62194  0.20308  0.55698  Biso   1.000  H
  C353     1.0000 0.53685  0.08532  0.64533  Biso   1.000  C
  O29      1.0000 0.29797  0.13162  0.61450  Biso   1.000  O
  C354     1.0000 0.38958  0.07188  0.64027  Biso   1.000  C
  H288     1.0000 0.41958  0.34351  0.80618  Biso   1.000  H
  C355     1.0000 0.44736  0.34040  0.88939  Biso   1.000  C
  C356     1.0000 0.46187  0.26923  0.92467  Biso   1.000  C
  H289     1.0000 0.44130  0.22329  0.86591  Biso   1.000  H
  H290     1.0000 0.64627  0.14130  0.61068  Biso   1.000  H
  C357     1.0000 0.62487  0.17951  0.68052  Biso   1.000  C
  O30      1.0000 0.61978  0.07357  0.65534  Biso   1.000  O
  C358     1.0000 0.47076  0.05770  0.65080  Biso   1.000  C
  C359     1.0000 0.22737  0.10390  0.61794  Biso   1.000  C
  H291     1.0000 0.34464  0.05281  0.64312  Biso   1.000  H
  H292     1.0000 0.44700  0.37019  0.89520  Biso   1.000  H
  C360     1.0000 0.46501  0.31311  0.93481  Biso   1.000  C
  H293     1.0000 0.47210  0.25010  0.95451  Biso   1.000  H
  C361     1.0000 0.59578  0.16507  0.73138  Biso   1.000  C
  C362     1.0000 0.67777  0.21487  0.68230  Biso   1.000  C
  C363     1.0000 0.63428  0.03196  0.68009  Biso   1.000  C
  H294     1.0000 0.48027  0.02911  0.66171  Biso   1.000  H
  H295     1.0000 0.23523  0.07930  0.59379  Biso   1.000  H
  H296     1.0000 0.17779  0.11929  0.60589  Biso   1.000  H
  H297     1.0000 0.22119  0.09439  0.65641  Biso   1.000  H
  C364     1.0000 0.48928  0.33150  0.99340  Biso   1.000  C
  C365     1.0000 0.61577  0.18557  0.78215  Biso   1.000  C
  H298     1.0000 0.56139  0.14069  0.73189  Biso   1.000  H
  H299     1.0000 0.70059  0.22491  0.64859  Biso   1.000  H
  C366     1.0000 0.69806  0.23598  0.73244  Biso   1.000  C
  H300     1.0000 0.60275  0.02940  0.71440  Biso   1.000  H
  H301     1.0000 0.69294  0.02869  0.68880  Biso   1.000  H
  H302     1.0000 0.61679  0.00981  0.65390  Biso   1.000  H
  C367     1.0000 0.55161  0.36786  0.98817  Biso   1.000  C
  H303     1.0000 0.43830  0.34328  0.01042  Biso   1.000  H
  C368     1.0000 0.52451  0.29685  0.03347  Biso   1.000  C
  C369     1.0000 0.66635  0.22228  0.78402  Biso   1.000  C
  H304     1.0000 0.59490  0.17449  0.81582  Biso   1.000  H
  H305     1.0000 0.73370  0.25981  0.73159  Biso   1.000  H
  C370     1.0000 0.63246  0.36035  0.99064  Biso   1.000  C
  H306     1.0000 0.53227  0.39610  0.98308  Biso   1.000  H
  C371     1.0000 0.61052  0.29002  0.03619  Biso   1.000  C
  C372     1.0000 0.47178  0.27137  0.06591  Biso   1.000  C
  C373     1.0000 0.67862  0.24586  0.83742  Biso   1.000  C
  C374     1.0000 0.66877  0.31518  0.99879  Biso   1.000  C
  H307     1.0000 0.66916  0.38360  0.98720  Biso   1.000  H
  C375     1.0000 0.64197  0.25842  0.07376  Biso   1.000  C
  O31      1.0000 0.38652  0.27840  0.05801  Biso   1.000  O
  C376     1.0000 0.50419  0.23993  0.10131  Biso   1.000  C
  C377     1.0000 0.69316  0.22513  0.88871  Biso   1.000  C
  C378     1.0000 0.66889  0.29031  0.83980  Biso   1.000  C
  C379     1.0000 0.67868  0.29187  0.94165  Biso   1.000  C
  H308     1.0000 0.72380  0.31751  0.01772  Biso   1.000  H
  O32      1.0000 0.72826  0.25395  0.07508  Biso   1.000  O
  C380     1.0000 0.58929  0.23375  0.10551  Biso   1.000  C
  C381     1.0000 0.33211  0.24382  0.07325  Biso   1.000  C
  H309     1.0000 0.46819  0.22280  0.12241  Biso   1.000  H
  C382     1.0000 0.69388  0.24760  0.93957  Biso   1.000  C
  H310     1.0000 0.70271  0.19541  0.88900  Biso   1.000  H
  H311     1.0000 0.66188  0.30560  0.80601  Biso   1.000  H
  C383     1.0000 0.66921  0.31265  0.88981  Biso   1.000  C
  C384     1.0000 0.76208  0.21872  0.10662  Biso   1.000  C
  H312     1.0000 0.61113  0.21280  0.12992  Biso   1.000  H
  H313     1.0000 0.34992  0.21759  0.05512  Biso   1.000  H
  H314     1.0000 0.27568  0.25058  0.06124  Biso   1.000  H
  H315     1.0000 0.33401  0.23999  0.11371  Biso   1.000  H
  H316     1.0000 0.70472  0.23271  0.97319  Biso   1.000  H
  H317     1.0000 0.66279  0.34260  0.88909  Biso   1.000  H
  H318     1.0000 0.75103  0.22280  0.14623  Biso   1.000  H
  H319     1.0000 0.82170  0.21730  0.10123  Biso   1.000  H
  H320     1.0000 0.73658  0.19220  0.09384  Biso   1.000  H
  C385     1.0000 0.59280  0.72079  0.74021  Biso   1.000  C
  O33      1.0000 0.58335  0.76606  0.75150  Biso   1.000  O
  H321     1.0000 0.64734  0.71548  0.72509  Biso   1.000  H
  H322     1.0000 0.58677  0.70480  0.77489  Biso   1.000  H
  H323     1.0000 0.55049  0.71170  0.71321  Biso   1.000  H
  C386     1.0000 0.58639  0.79391  0.70531  Biso   1.000  C
  C387     1.0000 0.59359  0.78079  0.64978  Biso   1.000  C
  C388     1.0000 0.58076  0.83772  0.71851  Biso   1.000  C
  H324     1.0000 0.59644  0.75149  0.64100  Biso   1.000  H
  C389     1.0000 0.59648  0.81110  0.60780  Biso   1.000  C
  C390     1.0000 0.58218  0.86815  0.67534  Biso   1.000  C
  C391     1.0000 0.57244  0.85229  0.77939  Biso   1.000  C
  H325     1.0000 0.60257  0.80200  0.57048  Biso   1.000  H
  C392     1.0000 0.59054  0.85455  0.61888  Biso   1.000  C
  C393     1.0000 0.57640  0.91552  0.69011  Biso   1.000  C
  C394     1.0000 0.61870  0.89493  0.78631  Biso   1.000  C
  H326     1.0000 0.59950  0.83069  0.80418  Biso   1.000  H
  C395     1.0000 0.48145  0.85808  0.79782  Biso   1.000  C
  O34      1.0000 0.59602  0.88748  0.57961  Biso   1.000  O
  H327     1.0000 0.60554  0.93191  0.66078  Biso   1.000  H
  C396     1.0000 0.62049  0.92388  0.74568  Biso   1.000  C
  C397     1.0000 0.48446  0.93155  0.69122  Biso   1.000  C
  H328     1.0000 0.64668  0.90069  0.82049  Biso   1.000  H
  C398     1.0000 0.41405  0.84581  0.76385  Biso   1.000  C
  C399     1.0000 0.46358  0.87880  0.84838  Biso   1.000  C
  C400     1.0000 0.60113  0.87638  0.52132  Biso   1.000  C
  H329     1.0000 0.64926  0.94978  0.75142  Biso   1.000  H
  C401     1.0000 0.42506  0.91931  0.65055  Biso   1.000  C
  C402     1.0000 0.45748  0.95797  0.73384  Biso   1.000  C
  H330     1.0000 0.42388  0.83059  0.73049  Biso   1.000  H
  C403     1.0000 0.33243  0.85562  0.77825  Biso   1.000  C
  C404     1.0000 0.38259  0.88887  0.86285  Biso   1.000  C
  H331     1.0000 0.50740  0.88609  0.87321  Biso   1.000  H
  H332     1.0000 0.54686  0.86760  0.50731  Biso   1.000  H
  H333     1.0000 0.61987  0.90108  0.50018  Biso   1.000  H
  H334     1.0000 0.64026  0.85300  0.51699  Biso   1.000  H
  C405     1.0000 0.34266  0.93187  0.65433  Biso   1.000  C
  H335     1.0000 0.44136  0.90228  0.62011  Biso   1.000  H
  H336     1.0000 0.49615  0.96749  0.76109  Biso   1.000  H
  C406     1.0000 0.37566  0.97079  0.73783  Biso   1.000  C
  H337     1.0000 0.28839  0.84659  0.75468  Biso   1.000  H
  C407     1.0000 0.31528  0.87868  0.82728  Biso   1.000  C
  H338     1.0000 0.37291  0.90280  0.89711  Biso   1.000  H
  C408     1.0000 0.31516  0.95762  0.69843  Biso   1.000  C
  H339     1.0000 0.30424  0.92291  0.62660  Biso   1.000  H
  H340     1.0000 0.36016  0.98870  0.76759  Biso   1.000  H
  C409     1.0000 0.22960  0.89321  0.84018  Biso   1.000  C
  C410     1.0000 0.22522  0.96875  0.70680  Biso   1.000  C
  C411     1.0000 0.15855  0.86864  0.82834  Biso   1.000  C
  C412     1.0000 0.21631  0.93398  0.86302  Biso   1.000  C
  C413     1.0000 0.16164  0.93971  0.69725  Biso   1.000  C
  C414     1.0000 0.20226  0.00839  0.72972  Biso   1.000  C
  H341     1.0000 0.16490  0.84089  0.81369  Biso   1.000  H
  C415     1.0000 0.07932  0.88418  0.83759  Biso   1.000  C
  C416     1.0000 0.13656  0.94975  0.87207  Biso   1.000  C
  H342     1.0000 0.26237  0.95120  0.87249  Biso   1.000  H
  C417     1.0000 0.08028  0.94784  0.71202  Biso   1.000  C
  H343     1.0000 0.17414  0.91339  0.68009  Biso   1.000  H
  H344     1.0000 0.24295  0.02969  0.73490  Biso   1.000  H
  C418     1.0000 0.12066  0.01687  0.74500  Biso   1.000  C
  H345     1.0000 0.03340  0.86660  0.82919  Biso   1.000  H
  C419     1.0000 0.06554  0.92524  0.85899  Biso   1.000  C
  H346     1.0000 0.13017  0.97730  0.88731  Biso   1.000  H
  C420     1.0000 0.05797  0.98592  0.73804  Biso   1.000  C
  H347     1.0000 0.03928  0.92718  0.70429  Biso   1.000  H
  H348     1.0000 0.10736  0.04381  0.76020  Biso   1.000  H
  C421     1.0000 0.97704  0.94379  0.86434  Biso   1.000  C
  C422     1.0000 0.97030  0.99433  0.76156  Biso   1.000  C
  H349     1.0000 0.95308  0.93298  0.89962  Biso   1.000  H
  C423     1.0000 0.97804  0.99210  0.86659  Biso   1.000  C
  C424     1.0000 0.92131  0.92928  0.81522  Biso   1.000  C
  C425     1.0000 0.91867  0.95360  0.76551  Biso   1.000  C
  C426     1.0000 0.97654  0.01551  0.81972  Biso   1.000  C
  H350     1.0000 0.94096  0.01441  0.73579  Biso   1.000  H
  H351     1.0000 0.97968  0.00599  0.90161  Biso   1.000  H
  C427     1.0000 0.87299  0.89140  0.81824  Biso   1.000  C
  C428     1.0000 0.86898  0.93952  0.71941  Biso   1.000  C
  H352     1.0000 0.97937  0.04549  0.82231  Biso   1.000  H
  O35      1.0000 0.87730  0.86948  0.86943  Biso   1.000  O
  C429     1.0000 0.82594  0.87825  0.77239  Biso   1.000  C
  O36      1.0000 0.86999  0.96636  0.67233  Biso   1.000  O
  C430     1.0000 0.82373  0.90225  0.72242  Biso   1.000  C
  C431     1.0000 0.83918  0.82826  0.87139  Biso   1.000  C
  H353     1.0000 0.79499  0.85280  0.77459  Biso   1.000  H
  C432     1.0000 0.82658  0.95269  0.62410  Biso   1.000  C
  H354     1.0000 0.79175  0.89289  0.69139  Biso   1.000  H
  H355     1.0000 0.85899  0.81081  0.84061  Biso   1.000  H
  H356     1.0000 0.85326  0.81450  0.90679  Biso   1.000  H
  H357     1.0000 0.77940  0.83140  0.86812  Biso   1.000  H
  H358     1.0000 0.77097  0.94398  0.63412  Biso   1.000  H
  H359     1.0000 0.82345  0.97597  0.59710  Biso   1.000  H
  H360     1.0000 0.85548  0.92860  0.60758  Biso   1.000  H
  C433     1.0000 0.40733  0.27921  0.25981  Biso   1.000  C
  O37      1.0000 0.41671  0.23394  0.24848  Biso   1.000  O
  H361     1.0000 0.35272  0.28448  0.27488  Biso   1.000  H
  H362     1.0000 0.41329  0.29520  0.22508  Biso   1.000  H
  H363     1.0000 0.44963  0.28830  0.28681  Biso   1.000  H
  C434     1.0000 0.41373  0.20606  0.29471  Biso   1.000  C
  C435     1.0000 0.40654  0.21921  0.35019  Biso   1.000  C
  C436     1.0000 0.41930  0.16228  0.28150  Biso   1.000  C
  H364     1.0000 0.40362  0.24851  0.35898  Biso   1.000  H
  C437     1.0000 0.40364  0.18890  0.39218  Biso   1.000  C
  C438     1.0000 0.41794  0.13185  0.32468  Biso   1.000  C
  C439     1.0000 0.42761  0.14771  0.22063  Biso   1.000  C
  H365     1.0000 0.39756  0.19800  0.42950  Biso   1.000  H
  C440     1.0000 0.40951  0.14545  0.38110  Biso   1.000  C
  C441     1.0000 0.42366  0.08448  0.30991  Biso   1.000  C
  C442     1.0000 0.38136  0.10507  0.21367  Biso   1.000  C
  H366     1.0000 0.40062  0.16931  0.19579  Biso   1.000  H
  C443     1.0000 0.51867  0.14189  0.20216  Biso   1.000  C
  O38      1.0000 0.40411  0.11252  0.42041  Biso   1.000  O
  H367     1.0000 0.39452  0.06809  0.33920  Biso   1.000  H
  C444     1.0000 0.37963  0.07612  0.25429  Biso   1.000  C
  C445     1.0000 0.51559  0.06842  0.30876  Biso   1.000  C
  H368     1.0000 0.35344  0.09931  0.17949  Biso   1.000  H
  C446     1.0000 0.58601  0.15419  0.23617  Biso   1.000  C
  C447     1.0000 0.53648  0.12116  0.15160  Biso   1.000  C
  C448     1.0000 0.39893  0.12359  0.47870  Biso   1.000  C
  H369     1.0000 0.35080  0.05019  0.24860  Biso   1.000  H
  C449     1.0000 0.57500  0.08069  0.34947  Biso   1.000  C
  C450     1.0000 0.54258  0.04203  0.26618  Biso   1.000  C
  H370     1.0000 0.57625  0.16941  0.26949  Biso   1.000  H
  C451     1.0000 0.66763  0.14438  0.22173  Biso   1.000  C
  C452     1.0000 0.61747  0.11109  0.13712  Biso   1.000  C
  H371     1.0000 0.49272  0.11391  0.12681  Biso   1.000  H
  H372     1.0000 0.45327  0.13240  0.49271  Biso   1.000  H
  H373     1.0000 0.38025  0.09889  0.49980  Biso   1.000  H
  H374     1.0000 0.35986  0.14700  0.48299  Biso   1.000  H
  C453     1.0000 0.65746  0.06813  0.34565  Biso   1.000  C
  H375     1.0000 0.55876  0.09769  0.37991  Biso   1.000  H
  H376     1.0000 0.50391  0.03251  0.23888  Biso   1.000  H
  C454     1.0000 0.62440  0.02921  0.26219  Biso   1.000  C
  H377     1.0000 0.71173  0.15341  0.24529  Biso   1.000  H
  C455     1.0000 0.68478  0.12132  0.17274  Biso   1.000  C
  H378     1.0000 0.62721  0.09720  0.10291  Biso   1.000  H
  C456     1.0000 0.68497  0.04238  0.30154  Biso   1.000  C
  H379     1.0000 0.69582  0.07709  0.37342  Biso   1.000  H
  H380     1.0000 0.63990  0.01130  0.23239  Biso   1.000  H
  C457     1.0000 0.77046  0.10679  0.15979  Biso   1.000  C
  C458     1.0000 0.77490  0.03121  0.29322  Biso   1.000  C
  C459     1.0000 0.84151  0.13136  0.17168  Biso   1.000  C
  C460     1.0000 0.78375  0.06599  0.13695  Biso   1.000  C
  C461     1.0000 0.83842  0.06029  0.30277  Biso   1.000  C
  C462     1.0000 0.79780  0.99161  0.27030  Biso   1.000  C
  H381     1.0000 0.83522  0.15911  0.18628  Biso   1.000  H
  C463     1.0000 0.92074  0.11582  0.16242  Biso   1.000  C
  C464     1.0000 0.86350  0.05025  0.12791  Biso   1.000  C
  H382     1.0000 0.73769  0.04880  0.12749  Biso   1.000  H
  C465     1.0000 0.91984  0.05216  0.28800  Biso   1.000  C
  H383     1.0000 0.82592  0.08661  0.31988  Biso   1.000  H
  H384     1.0000 0.75711  0.97028  0.26512  Biso   1.000  H
  C466     1.0000 0.87939  0.98310  0.25497  Biso   1.000  C
  H385     1.0000 0.96672  0.13340  0.17079  Biso   1.000  H
  C467     1.0000 0.93452  0.07473  0.14103  Biso   1.000  C
  H386     1.0000 0.86989  0.02270  0.11271  Biso   1.000  H
  C468     1.0000 0.94209  0.01408  0.26198  Biso   1.000  C
  H387     1.0000 0.96084  0.07279  0.29568  Biso   1.000  H
  H388     1.0000 0.89269  0.95619  0.23982  Biso   1.000  H
  C469     1.0000 0.02308  0.05621  0.13568  Biso   1.000  C
  C470     1.0000 0.02982  0.00567  0.23842  Biso   1.000  C
  H389     1.0000 0.04698  0.06699  0.10040  Biso   1.000  H
  C471     1.0000 0.02208  0.00787  0.13343  Biso   1.000  C
  C472     1.0000 0.07881  0.07068  0.18480  Biso   1.000  C
  C473     1.0000 0.02352  0.98449  0.18025  Biso   1.000  C
  H390     1.0000 0.05910  0.98559  0.26418  Biso   1.000  H
  C474     1.0000 0.08145  0.04640  0.23451  Biso   1.000  C
  H391     1.0000 0.02038  0.99398  0.09841  Biso   1.000  H
  C475     1.0000 0.12713  0.10860  0.18174  Biso   1.000  C
  H392     1.0000 0.02069  0.95447  0.17771  Biso   1.000  H
  C476     1.0000 0.13114  0.06048  0.28057  Biso   1.000  C
  O39      1.0000 0.12276  0.13052  0.13058  Biso   1.000  O
  C477     1.0000 0.17412  0.12171  0.22763  Biso   1.000  C
  O40      1.0000 0.13007  0.03361  0.32765  Biso   1.000  O
  C478     1.0000 0.17632  0.09775  0.27760  Biso   1.000  C
  C479     1.0000 0.16088  0.17174  0.12859  Biso   1.000  C
  H393     1.0000 0.20514  0.14720  0.22538  Biso   1.000  H
  C480     1.0000 0.17354  0.04731  0.37592  Biso   1.000  C
  H394     1.0000 0.20831  0.10711  0.30859  Biso   1.000  H
  H395     1.0000 0.14113  0.18919  0.15941  Biso   1.000  H
  H396     1.0000 0.14680  0.18550  0.09318  Biso   1.000  H
  H397     1.0000 0.22072  0.16860  0.13190  Biso   1.000  H
  H398     1.0000 0.22915  0.05598  0.36590  Biso   1.000  H
  H399     1.0000 0.17667  0.02399  0.40292  Biso   1.000  H
  H400     1.0000 0.14464  0.07140  0.39239  Biso   1.000  H
  C481     1.0000 0.86340  0.77011  0.19851  Biso   1.000  C
  C482     1.0000 0.84081  0.74666  0.15168  Biso   1.000  C
  H401     1.0000 0.87118  0.75618  0.23319  Biso   1.000  H
  C483     1.0000 0.87449  0.81398  0.19494  Biso   1.000  C
  C484     1.0000 0.82863  0.76609  0.09934  Biso   1.000  C
  H402     1.0000 0.83342  0.71691  0.15500  Biso   1.000  H
  C485     1.0000 0.86186  0.83483  0.14260  Biso   1.000  C
  O41      1.0000 0.89828  0.84027  0.23960  Biso   1.000  O
  O42      1.0000 0.80529  0.74482  0.05014  Biso   1.000  O
  C486     1.0000 0.83969  0.81113  0.09509  Biso   1.000  C
  C487     1.0000 0.86902  0.88366  0.13759  Biso   1.000  C
  C488     1.0000 0.89701  0.82204  0.29632  Biso   1.000  C
  C489     1.0000 0.77822  0.70095  0.05489  Biso   1.000  C
  C490     1.0000 0.82785  0.83393  0.03867  Biso   1.000  C
  H403     1.0000 0.90781  0.89399  0.16731  Biso   1.000  H
  C491     1.0000 0.90468  0.89512  0.08075  Biso   1.000  C
  C492     1.0000 0.78312  0.90477  0.14659  Biso   1.000  C
  H404     1.0000 0.84141  0.81210  0.30430  Biso   1.000  H
  H405     1.0000 0.91333  0.84380  0.32341  Biso   1.000  H
  H406     1.0000 0.93549  0.79818  0.29870  Biso   1.000  H
  H407     1.0000 0.82490  0.68310  0.06601  Biso   1.000  H
  H408     1.0000 0.75597  0.69130  0.01889  Biso   1.000  H
  H409     1.0000 0.73531  0.69900  0.08300  Biso   1.000  H
  C493     1.0000 0.88545  0.87230  0.03536  Biso   1.000  C
  H410     1.0000 0.84391  0.81359  0.00879  Biso   1.000  H
  C494     1.0000 0.73646  0.84753  0.02679  Biso   1.000  C
  H411     1.0000 0.94089  0.91860  0.07782  Biso   1.000  H
  C495     1.0000 0.73103  0.89095  0.18942  Biso   1.000  C
  C496     1.0000 0.75303  0.93689  0.11097  Biso   1.000  C
  H412     1.0000 0.90780  0.88010  0.00059  Biso   1.000  H
  C497     1.0000 0.67115  0.83143  0.05812  Biso   1.000  C
  C498     1.0000 0.71594  0.87748  0.98484  Biso   1.000  C
  C499     1.0000 0.65022  0.90633  0.19354  Biso   1.000  C
  H413     1.0000 0.75104  0.87090  0.21592  Biso   1.000  H
  H414     1.0000 0.78812  0.94839  0.08359  Biso   1.000  H
  C500     1.0000 0.67183  0.95250  0.11492  Biso   1.000  C
  C501     1.0000 0.59008  0.84494  0.04946  Biso   1.000  C
  H415     1.0000 0.68252  0.81081  0.08588  Biso   1.000  H
  H416     1.0000 0.75798  0.88839  0.96196  Biso   1.000  H
  C502     1.0000 0.63437  0.89137  0.97644  Biso   1.000  C
  C503     1.0000 0.61742  0.93660  0.15512  Biso   1.000  C
  H417     1.0000 0.61674  0.89629  0.22271  Biso   1.000  H
  H418     1.0000 0.65338  0.97410  0.09008  Biso   1.000  H
  C504     1.0000 0.56915  0.87576  0.00900  Biso   1.000  C
  H419     1.0000 0.54788  0.83299  0.07141  Biso   1.000  H
  H420     1.0000 0.62280  0.91170  0.94829  Biso   1.000  H
  C505     1.0000 0.52668  0.94826  0.15406  Biso   1.000  C
  C506     1.0000 0.48211  0.89221  0.00514  Biso   1.000  C
  C507     1.0000 0.46684  0.91717  0.16574  Biso   1.000  C
  C508     1.0000 0.49724  0.98873  0.13903  Biso   1.000  C
  C509     1.0000 0.41390  0.86443  0.01104  Biso   1.000  C
  C510     1.0000 0.46478  0.93605  0.99987  Biso   1.000  C
  C511     1.0000 0.38230  0.92556  0.16141  Biso   1.000  C
  H421     1.0000 0.48451  0.88968  0.17690  Biso   1.000  H
  C512     1.0000 0.41220  0.99709  0.13496  Biso   1.000  C
  H422     1.0000 0.53528  0.01081  0.13152  Biso   1.000  H
  C513     1.0000 0.33272  0.88033  0.01558  Biso   1.000  C
  H423     1.0000 0.42290  0.83470  0.01201  Biso   1.000  H
  C514     1.0000 0.38380  0.95150  0.00471  Biso   1.000  C
  H424     1.0000 0.50830  0.95528  0.99300  Biso   1.000  H
  C515     1.0000 0.35322  0.96574  0.14591  Biso   1.000  C
  H425     1.0000 0.34414  0.90361  0.16909  Biso   1.000  H
  H426     1.0000 0.39430  0.02471  0.12451  Biso   1.000  H
  C516     1.0000 0.31687  0.92465  0.01435  Biso   1.000  C
  H427     1.0000 0.28831  0.86109  0.01949  Biso   1.000  H
  H428     1.0000 0.37442  0.98109  0.00132  Biso   1.000  H
  C517     1.0000 0.25781  0.97445  0.13861  Biso   1.000  C
  C518     1.0000 0.22896  0.94172  0.02568  Biso   1.000  C
  H429     1.0000 0.23841  0.98870  0.17321  Biso   1.000  H
  C519     1.0000 0.20814  0.93353  0.13071  Biso   1.000  C
  C520     1.0000 0.24023  0.00457  0.08915  Biso   1.000  C
  C521     1.0000 0.22732  0.98944  0.03761  Biso   1.000  C
  C522     1.0000 0.19158  0.91821  0.07650  Biso   1.000  C
  H430     1.0000 0.19340  0.93599  0.99219  Biso   1.000  H
  C523     1.0000 0.17623  0.91112  0.17703  Biso   1.000  C
  H431     1.0000 0.23851  0.03429  0.09531  Biso   1.000  H
  H432     1.0000 0.21690  0.00871  0.00790  Biso   1.000  H
  C524     1.0000 0.14071  0.88104  0.06809  Biso   1.000  C
  O43      1.0000 0.19665  0.92766  0.22971  Biso   1.000  O
  C525     1.0000 0.12730  0.87466  0.16841  Biso   1.000  C
  O44      1.0000 0.12644  0.86867  0.01286  Biso   1.000  O
  C526     1.0000 0.10924  0.85977  0.11458  Biso   1.000  C
  C527     1.0000 0.17592  0.90322  0.27883  Biso   1.000  C
  H433     1.0000 0.10643  0.85999  0.19961  Biso   1.000  H
  C528     1.0000 0.08850  0.82813  0.00187  Biso   1.000  C
  H434     1.0000 0.07572  0.83538  0.10961  Biso   1.000  H
  H435     1.0000 0.11592  0.90179  0.28210  Biso   1.000  H
  H436     1.0000 0.19961  0.91688  0.31199  Biso   1.000  H
  H437     1.0000 0.19812  0.87450  0.27552  Biso   1.000  H
  H438     1.0000 0.12560  0.80540  0.01431  Biso   1.000  H
  H439     1.0000 0.03671  0.82619  0.02191  Biso   1.000  H
  H440     1.0000 0.07763  0.82518  0.96188  Biso   1.000  H
  C529     1.0000 0.13666  0.22986  0.80147  Biso   1.000  C
  C530     1.0000 0.12557  0.18602  0.80508  Biso   1.000  C
  C531     1.0000 0.15931  0.25334  0.84829  Biso   1.000  C
  H441     1.0000 0.12887  0.24378  0.76678  Biso   1.000  H
  O45      1.0000 0.10185  0.15973  0.76042  Biso   1.000  O
  C532     1.0000 0.13820  0.16517  0.85738  Biso   1.000  C
  C533     1.0000 0.17150  0.23388  0.90068  Biso   1.000  C
  H442     1.0000 0.16670  0.28309  0.84498  Biso   1.000  H
  C534     1.0000 0.10305  0.17792  0.70370  Biso   1.000  C
  C535     1.0000 0.16043  0.18887  0.90488  Biso   1.000  C
  C536     1.0000 0.13104  0.11634  0.86239  Biso   1.000  C
  O46      1.0000 0.19477  0.25518  0.94988  Biso   1.000  O
  H443     1.0000 0.15865  0.18790  0.69572  Biso   1.000  H
  H444     1.0000 0.08679  0.15620  0.67661  Biso   1.000  H
  H445     1.0000 0.06457  0.20179  0.70128  Biso   1.000  H
  C537     1.0000 0.17221  0.16607  0.96134  Biso   1.000  C
  H446     1.0000 0.09231  0.10601  0.83271  Biso   1.000  H
  C538     1.0000 0.09538  0.10488  0.91927  Biso   1.000  C
  C539     1.0000 0.21700  0.09519  0.85339  Biso   1.000  C
  C540     1.0000 0.22190  0.29902  0.94508  Biso   1.000  C
  C541     1.0000 0.11467  0.12767  0.96466  Biso   1.000  C
  H447     1.0000 0.15621  0.18641  0.99119  Biso   1.000  H
  C542     1.0000 0.26360  0.15247  0.97323  Biso   1.000  C
  H448     1.0000 0.05917  0.08140  0.92220  Biso   1.000  H
  C543     1.0000 0.26909  0.10905  0.81059  Biso   1.000  C
  C544     1.0000 0.24709  0.06311  0.88900  Biso   1.000  C
  H449     1.0000 0.17523  0.31690  0.93400  Biso   1.000  H
  H450     1.0000 0.24409  0.30870  0.98108  Biso   1.000  H
  H451     1.0000 0.26481  0.30100  0.91698  Biso   1.000  H
  H452     1.0000 0.09232  0.11990  0.99938  Biso   1.000  H
  C545     1.0000 0.32891  0.16857  0.94190  Biso   1.000  C
  C546     1.0000 0.28418  0.12252  0.01513  Biso   1.000  C
  C547     1.0000 0.34990  0.09364  0.80643  Biso   1.000  C
  H453     1.0000 0.24909  0.12910  0.78410  Biso   1.000  H
  H454     1.0000 0.21201  0.05161  0.91639  Biso   1.000  H
  C548     1.0000 0.32829  0.04750  0.88506  Biso   1.000  C
  C549     1.0000 0.40998  0.15506  0.95056  Biso   1.000  C
  H455     1.0000 0.31760  0.18919  0.91409  Biso   1.000  H
  H456     1.0000 0.24208  0.11161  0.03801  Biso   1.000  H
  C550     1.0000 0.36569  0.10863  0.02354  Biso   1.000  C
  C551     1.0000 0.38270  0.06337  0.84485  Biso   1.000  C
  H457     1.0000 0.38338  0.10371  0.77731  Biso   1.000  H
  H458     1.0000 0.34668  0.02590  0.90989  Biso   1.000  H
  C552     1.0000 0.43097  0.12424  0.99098  Biso   1.000  C
  H459     1.0000 0.45218  0.16701  0.92861  Biso   1.000  H
  H460     1.0000 0.37732  0.08830  0.05173  Biso   1.000  H
  C553     1.0000 0.47338  0.05174  0.84596  Biso   1.000  C
  C554     1.0000 0.51795  0.10779  0.99488  Biso   1.000  C
  C555     1.0000 0.53328  0.08283  0.83424  Biso   1.000  C
  C556     1.0000 0.50288  0.01127  0.86099  Biso   1.000  C
  C557     1.0000 0.58622  0.13554  0.98894  Biso   1.000  C
  C558     1.0000 0.53534  0.06395  0.00010  Biso   1.000  C
  C559     1.0000 0.61776  0.07444  0.83857  Biso   1.000  C
  H461     1.0000 0.51561  0.11028  0.82312  Biso   1.000  H
  C560     1.0000 0.58786  0.00291  0.86502  Biso   1.000  C
  H462     1.0000 0.46478  0.98919  0.86850  Biso   1.000  H
  C561     1.0000 0.66740  0.11967  0.98440  Biso   1.000  C
  H463     1.0000 0.57722  0.16530  0.98800  Biso   1.000  H
  C562     1.0000 0.61632  0.04850  0.99526  Biso   1.000  C
  H464     1.0000 0.49176  0.04472  0.00702  Biso   1.000  H
  C563     1.0000 0.64690  0.03426  0.85407  Biso   1.000  C
  H465     1.0000 0.65598  0.09639  0.83089  Biso   1.000  H
  H466     1.0000 0.60576  0.97529  0.87550  Biso   1.000  H
  C564     1.0000 0.68325  0.07535  0.98563  Biso   1.000  C
  H467     1.0000 0.71181  0.13891  0.98049  Biso   1.000  H
  H468     1.0000 0.62570  0.01891  0.99870  Biso   1.000  H
  C565     1.0000 0.74232  0.02555  0.86137  Biso   1.000  C
  C566     1.0000 0.77116  0.05828  0.97433  Biso   1.000  C
  H469     1.0000 0.76165  0.01130  0.82681  Biso   1.000  H
  C567     1.0000 0.79198  0.06644  0.86926  Biso   1.000  C
  C568     1.0000 0.75989  0.99543  0.91087  Biso   1.000  C
  C569     1.0000 0.77281  0.01056  0.96241  Biso   1.000  C
  C570     1.0000 0.80848  0.08179  0.92348  Biso   1.000  C
  H470     1.0000 0.80666  0.06401  0.00783  Biso   1.000  H
  C571     1.0000 0.82389  0.08888  0.82299  Biso   1.000  C
  H471     1.0000 0.76155  0.96568  0.90471  Biso   1.000  H
  H472     1.0000 0.78322  0.99129  0.99208  Biso   1.000  H
  C572     1.0000 0.85942  0.11896  0.93188  Biso   1.000  C
  O47      1.0000 0.80341  0.07234  0.77031  Biso   1.000  O
  C573     1.0000 0.87276  0.12531  0.83161  Biso   1.000  C
  O48      1.0000 0.87362  0.13130  0.98716  Biso   1.000  O
  C574     1.0000 0.89088  0.14023  0.88540  Biso   1.000  C
  C575     1.0000 0.82414  0.09678  0.72119  Biso   1.000  C
  H473     1.0000 0.89369  0.14001  0.80041  Biso   1.000  H
  C576     1.0000 0.91156  0.17184  0.99811  Biso   1.000  C
  H474     1.0000 0.92441  0.16458  0.89041  Biso   1.000  H
  H475     1.0000 0.88413  0.09821  0.71788  Biso   1.000  H
  H476     1.0000 0.80045  0.08309  0.68799  Biso   1.000  H
  H477     1.0000 0.80194  0.12550  0.72450  Biso   1.000  H
  H478     1.0000 0.87446  0.19460  0.98571  Biso   1.000  H
  H479     1.0000 0.96341  0.17381  0.97811  Biso   1.000  H
  H480     1.0000 0.92249  0.17478  0.03810  Biso   1.000  H
  Ne1      1.0000 0.03149  0.27705  0.32355  Biso   1.000  Ne
  He1      1.0000 0.05237  0.27202  0.33534  Biso   1.000  He
  He2      1.0000 0.05264  0.20803  0.29206  Biso   1.000  He
  Ar1      1.0000 0.03152  0.27707  0.32353  Biso   1.000  Ar
  Ne2      1.0000 0.74410  0.09679  0.25126  Biso   1.000  Ne
  He3      1.0000 0.74004  0.10013  0.27089  Biso   1.000  He
  He4      1.0000 0.69138  0.05680  0.19673  Biso   1.000  He
  Ar2      1.0000 0.74782  0.09490  0.25374  Biso   1.000  Ar
  Ne3      1.0000 0.96986  0.38372  0.39617  Biso   1.000  Ne
  He5      1.0000 0.95532  0.41788  0.42395  Biso   1.000  He
  He6      1.0000 0.99775  0.38295  0.40724  Biso   1.000  He
  Ar3      1.0000 0.97090  0.38426  0.39545  Biso   1.000  Ar
  Ne4      1.0000 0.75594  0.59679  0.24874  Biso   1.000  Ne
  He7      1.0000 0.77101  0.53586  0.29166  Biso   1.000  He
  He8      1.0000 0.73707  0.60064  0.25054  Biso   1.000  He
  Ar4      1.0000 0.75444  0.59010  0.25286  Biso   1.000  Ar
  Ne5      1.0000 0.53151  0.22295  0.82355  Biso   1.000  Ne
  He9      1.0000 0.55368  0.22515  0.84002  Biso   1.000  He
  He10     1.0000 0.51004  0.22039  0.80792  Biso   1.000  He
  Ar5      1.0000 0.53156  0.22292  0.82352  Biso   1.000  Ar
  Ne6      1.0000 0.24415  0.40321  0.75126  Biso   1.000  Ne
  He11     1.0000 0.28815  0.38199  0.75669  Biso   1.000  He
  He12     1.0000 0.22672  0.43399  0.72373  Biso   1.000  He
  Ar6      1.0000 0.24789  0.40510  0.75374  Biso   1.000  Ar
  Ne7      1.0000 0.46991  0.11628  0.89616  Biso   1.000  Ne
  He13     1.0000 0.41685  0.06043  0.95380  Biso   1.000  He
  He14     1.0000 0.48449  0.10970  0.90845  Biso   1.000  He
  Ar7      1.0000 0.47095  0.11574  0.89545  Biso   1.000  Ar
  Ne8      1.0000 0.03023  0.61628  0.60383  Biso   1.000  Ne
  He15     1.0000 0.05644  0.61756  0.61984  Biso   1.000  He
  He16     1.0000 0.00373  0.61627  0.59262  Biso   1.000  He
  Ar8      1.0000 0.02919  0.61573  0.60454  Biso   1.000  Ar
  Ne9      1.0000 0.46857  0.77704  0.17645  Biso   1.000  Ne
  He17     1.0000 0.48852  0.77856  0.19209  Biso   1.000  He
  He18     1.0000 0.49158  0.78066  0.19208  Biso   1.000  He
  Ar9      1.0000 0.46852  0.77707  0.17648  Biso   1.000  Ar
  Ne10     1.0000 0.96860  0.72294  0.67645  Biso   1.000  Ne
  He19     1.0000 0.99024  0.72030  0.69209  Biso   1.000  He
  He20     1.0000 0.99394  0.71775  0.69208  Biso   1.000  He
  Ar10     1.0000 0.96857  0.72292  0.67648  Biso   1.000  Ar
  Ne11     1.0000 0.53019  0.88371  0.10383  Biso   1.000  Ne
  He21     1.0000 0.55598  0.88297  0.11907  Biso   1.000  He
  He22     1.0000 0.50328  0.88350  0.09267  Biso   1.000  He
  Ar11     1.0000 0.52914  0.88426  0.10455  Biso   1.000  Ar
  Ne12     1.0000 0.25598  0.90320  0.74874  Biso   1.000  Ne
  He23     1.0000 0.27057  0.96633  0.79251  Biso   1.000  He
  He24     1.0000 0.23481  0.89795  0.75020  Biso   1.000  He
  Ar12     1.0000 0.25596  0.90943  0.75059  Biso   1.000  Ar
