data_image0
_cell_length_a       27.303
_cell_length_b       12.269
_cell_length_c       29.324
_cell_angle_alpha    90
_cell_angle_beta     90.82
_cell_angle_gamma    90

_symmetry_space_group_name_H-M    "P 1"
_symmetry_int_tables_number       1

loop_
  _symmetry_equiv_pos_as_xyz
  'x, y, z'

loop_
  _atom_site_label
  _atom_site_occupancy
  _atom_site_fract_x
  _atom_site_fract_y
  _atom_site_fract_z
  _atom_site_thermal_displace_type
  _atom_site_B_iso_or_equiv
  _atom_site_type_symbol
  I1       1.0000 0.42871  0.55530  0.58129  Biso   1.000  I
  C1       1.0000 0.42482  0.71122  0.60492  Biso   1.000  C
  C2       1.0000 0.42753  0.80194  0.61898  Biso   1.000  C
  C3       1.0000 0.43615  0.90945  0.63668  Biso   1.000  C
  C4       1.0000 0.40147  0.96471  0.66318  Biso   1.000  C
  C5       1.0000 0.48063  0.96202  0.62839  Biso   1.000  C
  O1       1.0000 0.35562  0.91890  0.66836  Biso   1.000  O
  C6       1.0000 0.41117  0.06667  0.68187  Biso   1.000  C
  O2       1.0000 0.51285  0.91205  0.59865  Biso   1.000  O
  C7       1.0000 0.49186  0.06374  0.64623  Biso   1.000  C
  C8       1.0000 0.35077  0.84269  0.70530  Biso   1.000  C
  C9       1.0000 0.37231  0.12128  0.71069  Biso   1.000  C
  C10      1.0000 0.45667  0.11427  0.67337  Biso   1.000  C
  C11      1.0000 0.54672  0.83650  0.61956  Biso   1.000  C
  C12      1.0000 0.54047  0.11688  0.63494  Biso   1.000  C
  C13      1.0000 0.30401  0.86674  0.73026  Biso   1.000  C
  H1       1.0000 0.34992  0.76730  0.69319  Biso   1.000  H
  H2       1.0000 0.37911  0.84921  0.72651  Biso   1.000  H
  C14      1.0000 0.37599  0.07906  0.75956  Biso   1.000  C
  H3       1.0000 0.33982  0.09724  0.69820  Biso   1.000  H
  C15      1.0000 0.37255  0.24550  0.70918  Biso   1.000  C
  H4       1.0000 0.46402  0.18331  0.68650  Biso   1.000  H
  H5       1.0000 0.54804  0.84799  0.65301  Biso   1.000  H
  H6       1.0000 0.53604  0.76070  0.61349  Biso   1.000  H
  C16      1.0000 0.59662  0.85598  0.59954  Biso   1.000  C
  C17      1.0000 0.58160  0.07547  0.66608  Biso   1.000  C
  H7       1.0000 0.54874  0.09227  0.60349  Biso   1.000  H
  C18      1.0000 0.53858  0.24224  0.63327  Biso   1.000  C
  O3       1.0000 0.30239  0.97571  0.74875  Biso   1.000  O
  H8       1.0000 0.30052  0.81368  0.75550  Biso   1.000  H
  H9       1.0000 0.27581  0.85663  0.70901  Biso   1.000  H
  C19      1.0000 0.41391  0.11158  0.78882  Biso   1.000  C
  C20      1.0000 0.34160  0.00473  0.77603  Biso   1.000  C
  H10      1.0000 0.40142  0.27313  0.72641  Biso   1.000  H
  H11      1.0000 0.37542  0.26987  0.67709  Biso   1.000  H
  C21      1.0000 0.32605  0.29359  0.72941  Biso   1.000  C
  O4       1.0000 0.61365  0.96552  0.60619  Biso   1.000  O
  H12      1.0000 0.59512  0.84008  0.56639  Biso   1.000  H
  H13      1.0000 0.62043  0.80487  0.61369  Biso   1.000  H
  C22      1.0000 0.61598  0.00106  0.65086  Biso   1.000  C
  C23      1.0000 0.58614  0.11158  0.71120  Biso   1.000  C
  H14      1.0000 0.53862  0.27117  0.66471  Biso   1.000  H
  H15      1.0000 0.50772  0.26530  0.61799  Biso   1.000  H
  C24      1.0000 0.58188  0.28984  0.60769  Biso   1.000  C
  C25      1.0000 0.41845  0.07547  0.83391  Biso   1.000  C
  H16      1.0000 0.43784  0.16073  0.77760  Biso   1.000  H
  C26      1.0000 0.34511  0.96528  0.82108  Biso   1.000  C
  H17      1.0000 0.32284  0.26693  0.76109  Biso   1.000  H
  H18      1.0000 0.29743  0.26669  0.71171  Biso   1.000  H
  C27      1.0000 0.32496  0.41593  0.72982  Biso   1.000  C
  C28      1.0000 0.65494  0.96528  0.67893  Biso   1.000  C
  H19      1.0000 0.56222  0.16073  0.72242  Biso   1.000  H
  C29      1.0000 0.62406  0.07906  0.74043  Biso   1.000  C
  H20      1.0000 0.58324  0.25577  0.57709  Biso   1.000  H
  H21      1.0000 0.61253  0.27052  0.62430  Biso   1.000  H
  C30      1.0000 0.57981  0.41071  0.60209  Biso   1.000  C
  C31      1.0000 0.38407  0.00106  0.84915  Biso   1.000  C
  C32      1.0000 0.45958  0.11688  0.86505  Biso   1.000  C
  C33      1.0000 0.30916  0.89070  0.83878  Biso   1.000  C
  H22      1.0000 0.33872  0.44299  0.70090  Biso   1.000  H
  H23      1.0000 0.29044  0.44030  0.73101  Biso   1.000  H
  C34      1.0000 0.35314  0.46711  0.76928  Biso   1.000  C
  C35      1.0000 0.69089  0.89070  0.66123  Biso   1.000  C
  C36      1.0000 0.65846  0.00473  0.72399  Biso   1.000  C
  C37      1.0000 0.62774  0.12128  0.78933  Biso   1.000  C
  H24      1.0000 0.54672  0.43312  0.59149  Biso   1.000  H
  H25      1.0000 0.58683  0.44690  0.63170  Biso   1.000  H
  C38      1.0000 0.61991  0.44519  0.56540  Biso   1.000  C
  H26      1.0000 0.56543  0.43663  0.63102  Biso   1.000  H
  H27      1.0000 0.55411  0.42204  0.57849  Biso   1.000  H
  C39      1.0000 0.61672  0.49279  0.59169  Biso   1.000  C
  O5       1.0000 0.38641  0.96552  0.89380  Biso   1.000  O
  C40      1.0000 0.50820  0.06374  0.85379  Biso   1.000  C
  H28      1.0000 0.45135  0.09227  0.89649  Biso   1.000  H
  C41      1.0000 0.46148  0.24224  0.86675  Biso   1.000  C
  C42      1.0000 0.28173  0.82949  0.85584  Biso   1.000  C
  H29      1.0000 0.33784  0.44551  0.79830  Biso   1.000  H
  H30      1.0000 0.38714  0.43932  0.76959  Biso   1.000  H
  C43      1.0000 0.35393  0.59043  0.76590  Biso   1.000  C
  C44      1.0000 0.71832  0.82949  0.64418  Biso   1.000  C
  O6       1.0000 0.69766  0.97571  0.75124  Biso   1.000  O
  H31      1.0000 0.66024  0.09724  0.80181  Biso   1.000  H
  C45      1.0000 0.62751  0.24550  0.79083  Biso   1.000  C
  C46      1.0000 0.58889  0.06667  0.81812  Biso   1.000  C
  H32      1.0000 0.61353  0.40541  0.53661  Biso   1.000  H
  H33      1.0000 0.65282  0.42367  0.57679  Biso   1.000  H
  C47      1.0000 0.61951  0.56573  0.55609  Biso   1.000  C
  H34      1.0000 0.63292  0.39368  0.53729  Biso   1.000  H
  H35      1.0000 0.60461  0.56761  0.59722  Biso   1.000  H
  H36      1.0000 0.64743  0.48097  0.60939  Biso   1.000  H
  C48      1.0000 0.62353  0.47094  0.54159  Biso   1.000  C
  C49      1.0000 0.40343  0.85598  0.90048  Biso   1.000  C
  C50      1.0000 0.51942  0.96202  0.87159  Biso   1.000  C
  C51      1.0000 0.54338  0.11427  0.82664  Biso   1.000  C
  H37      1.0000 0.46143  0.27117  0.83531  Biso   1.000  H
  H38      1.0000 0.49233  0.26530  0.88200  Biso   1.000  H
  C52      1.0000 0.41818  0.28984  0.89230  Biso   1.000  C
  I2       1.0000 0.24255  0.71236  0.88970  Biso   1.000  I
  I3       1.0000 0.23836  0.75670  0.89799  Biso   1.000  I
  H39      1.0000 0.31983  0.61733  0.76331  Biso   1.000  H
  H40      1.0000 0.37104  0.61154  0.73759  Biso   1.000  H
  C53      1.0000 0.37864  0.64471  0.80570  Biso   1.000  C
  I4       1.0000 0.75750  0.71236  0.61031  Biso   1.000  I
  I5       1.0000 0.76173  0.75670  0.60199  Biso   1.000  I
  C54      1.0000 0.69604  0.86674  0.76972  Biso   1.000  C
  H41      1.0000 0.59864  0.27313  0.77361  Biso   1.000  H
  H42      1.0000 0.62463  0.26987  0.82289  Biso   1.000  H
  C55      1.0000 0.67401  0.29359  0.77057  Biso   1.000  C
  C56      1.0000 0.59859  0.96471  0.83681  Biso   1.000  C
  H43      1.0000 0.58651  0.58627  0.54459  Biso   1.000  H
  H44      1.0000 0.62512  0.60478  0.58531  Biso   1.000  H
  C57      1.0000 0.65693  0.60380  0.52239  Biso   1.000  C
  C58      1.0000 0.66382  0.54601  0.52041  Biso   1.000  C
  H45      1.0000 0.59200  0.48301  0.52519  Biso   1.000  H
  C59      1.0000 0.45334  0.83650  0.88043  Biso   1.000  C
  H46      1.0000 0.40493  0.84008  0.93360  Biso   1.000  H
  H47      1.0000 0.37963  0.80487  0.88629  Biso   1.000  H
  O7       1.0000 0.48721  0.91205  0.90133  Biso   1.000  O
  C60      1.0000 0.56391  0.90945  0.86334  Biso   1.000  C
  H48      1.0000 0.53604  0.18331  0.81351  Biso   1.000  H
  H49      1.0000 0.41685  0.25577  0.92289  Biso   1.000  H
  H50      1.0000 0.38752  0.27052  0.87569  Biso   1.000  H
  C61      1.0000 0.42024  0.41071  0.89789  Biso   1.000  C
  H51      1.0000 0.38214  0.72280  0.79950  Biso   1.000  H
  H52      1.0000 0.35892  0.63453  0.83299  Biso   1.000  H
  H53      1.0000 0.41114  0.61244  0.81072  Biso   1.000  H
  H54      1.0000 0.69954  0.81368  0.74448  Biso   1.000  H
  H55      1.0000 0.72424  0.85663  0.79100  Biso   1.000  H
  C62      1.0000 0.64929  0.84269  0.79469  Biso   1.000  C
  H56      1.0000 0.67722  0.26693  0.73889  Biso   1.000  H
  H57      1.0000 0.70263  0.26669  0.78831  Biso   1.000  H
  C63      1.0000 0.67510  0.41593  0.77020  Biso   1.000  C
  O8       1.0000 0.64444  0.91890  0.83166  Biso   1.000  O
  H58      1.0000 0.65453  0.55930  0.49480  Biso   1.000  H
  H59      1.0000 0.65073  0.68041  0.51472  Biso   1.000  H
  H60      1.0000 0.68974  0.59663  0.53590  Biso   1.000  H
  H61      1.0000 0.67181  0.51968  0.48979  Biso   1.000  H
  H62      1.0000 0.65141  0.62100  0.51830  Biso   1.000  H
  H63      1.0000 0.69331  0.54462  0.53978  Biso   1.000  H
  H64      1.0000 0.45202  0.84799  0.84700  Biso   1.000  H
  H65      1.0000 0.46405  0.76070  0.88650  Biso   1.000  H
  C64      1.0000 0.57253  0.80194  0.88101  Biso   1.000  C
  H66      1.0000 0.45333  0.43312  0.90850  Biso   1.000  H
  H67      1.0000 0.41323  0.44690  0.86829  Biso   1.000  H
  C65      1.0000 0.38015  0.44519  0.93459  Biso   1.000  C
  H68      1.0000 0.43463  0.43663  0.86900  Biso   1.000  H
  H69      1.0000 0.44595  0.42204  0.92149  Biso   1.000  H
  C66      1.0000 0.38333  0.49279  0.90829  Biso   1.000  C
  H70      1.0000 0.65013  0.76730  0.80679  Biso   1.000  H
  H71      1.0000 0.62094  0.84921  0.77351  Biso   1.000  H
  H72      1.0000 0.66133  0.44299  0.79909  Biso   1.000  H
  H73      1.0000 0.70962  0.44030  0.76901  Biso   1.000  H
  C67      1.0000 0.64691  0.46711  0.73071  Biso   1.000  C
  C68      1.0000 0.57523  0.71122  0.89509  Biso   1.000  C
  H74      1.0000 0.38653  0.40541  0.96341  Biso   1.000  H
  H75      1.0000 0.34723  0.42367  0.92320  Biso   1.000  H
  C69      1.0000 0.38055  0.56573  0.94390  Biso   1.000  C
  H76      1.0000 0.36714  0.39368  0.96269  Biso   1.000  H
  H77      1.0000 0.39545  0.56761  0.90280  Biso   1.000  H
  H78      1.0000 0.35263  0.48097  0.89059  Biso   1.000  H
  C70      1.0000 0.37652  0.47094  0.95839  Biso   1.000  C
  H79      1.0000 0.66222  0.44551  0.70172  Biso   1.000  H
  H80      1.0000 0.61292  0.43932  0.73040  Biso   1.000  H
  C71      1.0000 0.64612  0.59043  0.73412  Biso   1.000  C
  I6       1.0000 0.57135  0.55530  0.91873  Biso   1.000  I
  H81      1.0000 0.41354  0.58627  0.95539  Biso   1.000  H
  H82      1.0000 0.37494  0.60478  0.91470  Biso   1.000  H
  C72      1.0000 0.34316  0.60380  0.97759  Biso   1.000  C
  C73      1.0000 0.33623  0.54601  0.97961  Biso   1.000  C
  H83      1.0000 0.40805  0.48301  0.97480  Biso   1.000  H
  H84      1.0000 0.68022  0.61733  0.73671  Biso   1.000  H
  H85      1.0000 0.62901  0.61154  0.76239  Biso   1.000  H
  C74      1.0000 0.62141  0.64471  0.69431  Biso   1.000  C
  H86      1.0000 0.34936  0.68041  0.98530  Biso   1.000  H
  H87      1.0000 0.31035  0.59663  0.96409  Biso   1.000  H
  H88      1.0000 0.34549  0.55930  0.00518  Biso   1.000  H
  H89      1.0000 0.34864  0.62100  0.98169  Biso   1.000  H
  H90      1.0000 0.30674  0.54462  0.96020  Biso   1.000  H
  H91      1.0000 0.32820  0.51968  0.01020  Biso   1.000  H
  H92      1.0000 0.61792  0.72280  0.70049  Biso   1.000  H
  H93      1.0000 0.64114  0.63453  0.66700  Biso   1.000  H
  H94      1.0000 0.58892  0.61244  0.68930  Biso   1.000  H
  I7       1.0000 0.26172  0.25674  0.60199  Biso   1.000  I
  C75      1.0000 0.21834  0.32953  0.64418  Biso   1.000  C
  I8       1.0000 0.25752  0.21241  0.61031  Biso   1.000  I
  C76      1.0000 0.19088  0.39074  0.66123  Biso   1.000  C
  C77      1.0000 0.15496  0.46532  0.67893  Biso   1.000  C
  C78      1.0000 0.11596  0.50110  0.65086  Biso   1.000  C
  C79      1.0000 0.15847  0.50469  0.72399  Biso   1.000  C
  O9       1.0000 0.11366  0.46548  0.60619  Biso   1.000  O
  C80      1.0000 0.08162  0.57552  0.66608  Biso   1.000  C
  O10      1.0000 0.19768  0.47567  0.75124  Biso   1.000  O
  C81      1.0000 0.12408  0.57910  0.74043  Biso   1.000  C
  C82      1.0000 0.09664  0.35602  0.59954  Biso   1.000  C
  C83      1.0000 0.08616  0.61162  0.71120  Biso   1.000  C
  C84      1.0000 0.04049  0.61692  0.63494  Biso   1.000  C
  C85      1.0000 0.19606  0.36670  0.76972  Biso   1.000  C
  C86      1.0000 0.12772  0.62132  0.78933  Biso   1.000  C
  C87      1.0000 0.04673  0.33654  0.61956  Biso   1.000  C
  H95      1.0000 0.09511  0.34013  0.56639  Biso   1.000  H
  H96      1.0000 0.12041  0.30491  0.61369  Biso   1.000  H
  H97      1.0000 0.06223  0.66069  0.72242  Biso   1.000  H
  H98      1.0000 0.04872  0.59231  0.60349  Biso   1.000  H
  C88      1.0000 0.03859  0.74220  0.63327  Biso   1.000  C
  C89      1.0000 0.99188  0.56370  0.64623  Biso   1.000  C
  H99      1.0000 0.19952  0.31372  0.74448  Biso   1.000  H
  H100     1.0000 0.22422  0.35659  0.79100  Biso   1.000  H
  C90      1.0000 0.14931  0.34273  0.79469  Biso   1.000  C
  H101     1.0000 0.16022  0.59720  0.80181  Biso   1.000  H
  C91      1.0000 0.12753  0.74554  0.79083  Biso   1.000  C
  C92      1.0000 0.08890  0.56671  0.81812  Biso   1.000  C
  O11      1.0000 0.01286  0.41201  0.59865  Biso   1.000  O
  H102     1.0000 0.04802  0.34803  0.65301  Biso   1.000  H
  H103     1.0000 0.03602  0.26074  0.61349  Biso   1.000  H
  H104     1.0000 0.03864  0.77121  0.66471  Biso   1.000  H
  H105     1.0000 0.00774  0.76534  0.61799  Biso   1.000  H
  C93      1.0000 0.08190  0.78980  0.60769  Biso   1.000  C
  C94      1.0000 0.98065  0.46198  0.62839  Biso   1.000  C
  C95      1.0000 0.95666  0.61431  0.67337  Biso   1.000  C
  O12      1.0000 0.14445  0.41894  0.83166  Biso   1.000  O
  H106     1.0000 0.15015  0.26734  0.80679  Biso   1.000  H
  H107     1.0000 0.12092  0.34917  0.77351  Biso   1.000  H
  H108     1.0000 0.09862  0.77309  0.77361  Biso   1.000  H
  H109     1.0000 0.12465  0.76991  0.82289  Biso   1.000  H
  C96      1.0000 0.17402  0.79363  0.77057  Biso   1.000  C
  C97      1.0000 0.09860  0.46467  0.83681  Biso   1.000  C
  C98      1.0000 0.04340  0.61431  0.82664  Biso   1.000  C
  H110     1.0000 0.08322  0.75581  0.57709  Biso   1.000  H
  H111     1.0000 0.11251  0.77048  0.62430  Biso   1.000  H
  C99      1.0000 0.07983  0.91075  0.60209  Biso   1.000  C
  C100     1.0000 0.93617  0.40941  0.63668  Biso   1.000  C
  C101     1.0000 0.91115  0.56671  0.68187  Biso   1.000  C
  H112     1.0000 0.96404  0.68335  0.68650  Biso   1.000  H
  H113     1.0000 0.17724  0.76689  0.73889  Biso   1.000  H
  H114     1.0000 0.20265  0.76673  0.78831  Biso   1.000  H
  C102     1.0000 0.17512  0.91589  0.77020  Biso   1.000  C
  C103     1.0000 0.06389  0.40941  0.86334  Biso   1.000  C
  C104     1.0000 0.00822  0.56370  0.85379  Biso   1.000  C
  H115     1.0000 0.03605  0.68335  0.81351  Biso   1.000  H
  H116     1.0000 0.04674  0.93308  0.59149  Biso   1.000  H
  H117     1.0000 0.08684  0.94694  0.63170  Biso   1.000  H
  C105     1.0000 0.11992  0.94523  0.56540  Biso   1.000  C
  H118     1.0000 0.06544  0.93659  0.63102  Biso   1.000  H
  H119     1.0000 0.05412  0.92200  0.57849  Biso   1.000  H
  C106     1.0000 0.11674  0.99283  0.59169  Biso   1.000  C
  C107     1.0000 0.90145  0.46467  0.66318  Biso   1.000  C
  C108     1.0000 0.92751  0.30190  0.61898  Biso   1.000  C
  C109     1.0000 0.87233  0.62132  0.71069  Biso   1.000  C
  H120     1.0000 0.16135  0.94303  0.79909  Biso   1.000  H
  H121     1.0000 0.20964  0.94034  0.76901  Biso   1.000  H
  C110     1.0000 0.14693  0.96715  0.73071  Biso   1.000  C
  C111     1.0000 0.01940  0.46198  0.87159  Biso   1.000  C
  C112     1.0000 0.07255  0.30190  0.88101  Biso   1.000  C
  C113     1.0000 0.95957  0.61692  0.86505  Biso   1.000  C
  H122     1.0000 0.11351  0.90545  0.53661  Biso   1.000  H
  H123     1.0000 0.15284  0.92371  0.57679  Biso   1.000  H
  H124     1.0000 0.13293  0.89372  0.53729  Biso   1.000  H
  C114     1.0000 0.11952  0.06569  0.55609  Biso   1.000  C
  H125     1.0000 0.14741  0.98101  0.60939  Biso   1.000  H
  C115     1.0000 0.12351  0.97090  0.54159  Biso   1.000  C
  H126     1.0000 0.10463  0.06757  0.59722  Biso   1.000  H
  O13      1.0000 0.85560  0.41894  0.66836  Biso   1.000  O
  C116     1.0000 0.92480  0.21118  0.60492  Biso   1.000  C
  C117     1.0000 0.87601  0.57910  0.75956  Biso   1.000  C
  H127     1.0000 0.83983  0.59720  0.69820  Biso   1.000  H
  C118     1.0000 0.87253  0.74554  0.70918  Biso   1.000  C
  H128     1.0000 0.16223  0.94555  0.70172  Biso   1.000  H
  H129     1.0000 0.11294  0.93928  0.73040  Biso   1.000  H
  C119     1.0000 0.14614  0.09039  0.73412  Biso   1.000  C
  O14      1.0000 0.98719  0.41201  0.90133  Biso   1.000  O
  C120     1.0000 0.07525  0.21118  0.89509  Biso   1.000  C
  C121     1.0000 0.91847  0.57552  0.83391  Biso   1.000  C
  H130     1.0000 0.95133  0.59231  0.89649  Biso   1.000  H
  C122     1.0000 0.96150  0.74220  0.86675  Biso   1.000  C
  H131     1.0000 0.08653  0.08632  0.54459  Biso   1.000  H
  H132     1.0000 0.12514  0.10482  0.58531  Biso   1.000  H
  C123     1.0000 0.15691  0.10384  0.52239  Biso   1.000  C
  C124     1.0000 0.16381  0.04597  0.52041  Biso   1.000  C
  H133     1.0000 0.09202  0.98305  0.52519  Biso   1.000  H
  C125     1.0000 0.85075  0.34273  0.70530  Biso   1.000  C
  I9       1.0000 0.92872  0.05526  0.58129  Biso   1.000  I
  C126     1.0000 0.91389  0.61162  0.78882  Biso   1.000  C
  C127     1.0000 0.84162  0.50469  0.77603  Biso   1.000  C
  H134     1.0000 0.90143  0.77309  0.72641  Biso   1.000  H
  H135     1.0000 0.87544  0.76991  0.67709  Biso   1.000  H
  C128     1.0000 0.82603  0.79363  0.72941  Biso   1.000  C
  H136     1.0000 0.18024  0.11729  0.73671  Biso   1.000  H
  H137     1.0000 0.12903  0.11150  0.76239  Biso   1.000  H
  C129     1.0000 0.12143  0.14467  0.69431  Biso   1.000  C
  C130     1.0000 0.95332  0.33654  0.88043  Biso   1.000  C
  I10      1.0000 0.07137  0.05526  0.91873  Biso   1.000  I
  C131     1.0000 0.88409  0.50110  0.84915  Biso   1.000  C
  H138     1.0000 0.96142  0.77121  0.83531  Biso   1.000  H
  H139     1.0000 0.99235  0.76534  0.88200  Biso   1.000  H
  C132     1.0000 0.91816  0.78980  0.89230  Biso   1.000  C
  H140     1.0000 0.15451  0.05934  0.49480  Biso   1.000  H
  H141     1.0000 0.15072  0.18037  0.51472  Biso   1.000  H
  H142     1.0000 0.18972  0.09658  0.53590  Biso   1.000  H
  H143     1.0000 0.17183  0.01972  0.48979  Biso   1.000  H
  H144     1.0000 0.15143  0.12104  0.51830  Biso   1.000  H
  H145     1.0000 0.19333  0.04458  0.53978  Biso   1.000  H
  C133     1.0000 0.80399  0.36670  0.73026  Biso   1.000  C
  H146     1.0000 0.84994  0.26734  0.69319  Biso   1.000  H
  H147     1.0000 0.87913  0.34917  0.72651  Biso   1.000  H
  H148     1.0000 0.93782  0.66069  0.77760  Biso   1.000  H
  O15      1.0000 0.80241  0.47567  0.74875  Biso   1.000  O
  C134     1.0000 0.84509  0.46532  0.82108  Biso   1.000  C
  H149     1.0000 0.82282  0.76689  0.76109  Biso   1.000  H
  H150     1.0000 0.79741  0.76673  0.71171  Biso   1.000  H
  C135     1.0000 0.82497  0.91589  0.72982  Biso   1.000  C
  H151     1.0000 0.11793  0.22284  0.70049  Biso   1.000  H
  H152     1.0000 0.14112  0.13449  0.66700  Biso   1.000  H
  H153     1.0000 0.08894  0.11240  0.68930  Biso   1.000  H
  H154     1.0000 0.95204  0.34803  0.84700  Biso   1.000  H
  H155     1.0000 0.96403  0.26074  0.88650  Biso   1.000  H
  C136     1.0000 0.90345  0.35602  0.90048  Biso   1.000  C
  O16      1.0000 0.88639  0.46548  0.89380  Biso   1.000  O
  H156     1.0000 0.91683  0.75581  0.92289  Biso   1.000  H
  H157     1.0000 0.88754  0.77048  0.87569  Biso   1.000  H
  C137     1.0000 0.92022  0.91075  0.89789  Biso   1.000  C
  H158     1.0000 0.80054  0.31372  0.75550  Biso   1.000  H
  H159     1.0000 0.77583  0.35659  0.70901  Biso   1.000  H
  C138     1.0000 0.80918  0.39074  0.83878  Biso   1.000  C
  H160     1.0000 0.83874  0.94303  0.70090  Biso   1.000  H
  H161     1.0000 0.79042  0.94034  0.73101  Biso   1.000  H
  C139     1.0000 0.85312  0.96715  0.76928  Biso   1.000  C
  H162     1.0000 0.90495  0.34013  0.93360  Biso   1.000  H
  H163     1.0000 0.87964  0.30491  0.88629  Biso   1.000  H
  H164     1.0000 0.95335  0.93308  0.90850  Biso   1.000  H
  H165     1.0000 0.91325  0.94694  0.86829  Biso   1.000  H
  C140     1.0000 0.88013  0.94523  0.93459  Biso   1.000  C
  H166     1.0000 0.93465  0.93659  0.86900  Biso   1.000  H
  H167     1.0000 0.94593  0.92200  0.92149  Biso   1.000  H
  C141     1.0000 0.88332  0.99283  0.90829  Biso   1.000  C
  C142     1.0000 0.78171  0.32953  0.85584  Biso   1.000  C
  H168     1.0000 0.83782  0.94555  0.79830  Biso   1.000  H
  H169     1.0000 0.88712  0.93928  0.76959  Biso   1.000  H
  C143     1.0000 0.85391  0.09039  0.76590  Biso   1.000  C
  H170     1.0000 0.88654  0.90545  0.96341  Biso   1.000  H
  H171     1.0000 0.84725  0.92371  0.92320  Biso   1.000  H
  H172     1.0000 0.86712  0.89372  0.96269  Biso   1.000  H
  C144     1.0000 0.88053  0.06569  0.94390  Biso   1.000  C
  H173     1.0000 0.85264  0.98101  0.89059  Biso   1.000  H
  C145     1.0000 0.87654  0.97090  0.95839  Biso   1.000  C
  H174     1.0000 0.89543  0.06757  0.90280  Biso   1.000  H
  I11      1.0000 0.74253  0.21241  0.88970  Biso   1.000  I
  I12      1.0000 0.73834  0.25674  0.89799  Biso   1.000  I
  H175     1.0000 0.81981  0.11729  0.76331  Biso   1.000  H
  H176     1.0000 0.87102  0.11150  0.73759  Biso   1.000  H
  C146     1.0000 0.87863  0.14467  0.80570  Biso   1.000  C
  H177     1.0000 0.91352  0.08632  0.95539  Biso   1.000  H
  H178     1.0000 0.87492  0.10482  0.91470  Biso   1.000  H
  C147     1.0000 0.84314  0.10384  0.97759  Biso   1.000  C
  C148     1.0000 0.83625  0.04597  0.97961  Biso   1.000  C
  H179     1.0000 0.90804  0.98305  0.97480  Biso   1.000  H
  H180     1.0000 0.88212  0.22284  0.79950  Biso   1.000  H
  H181     1.0000 0.85894  0.13449  0.83299  Biso   1.000  H
  H182     1.0000 0.91112  0.11240  0.81072  Biso   1.000  H
  H183     1.0000 0.84934  0.18037  0.98530  Biso   1.000  H
  H184     1.0000 0.81034  0.09658  0.96409  Biso   1.000  H
  H185     1.0000 0.84547  0.05934  0.00518  Biso   1.000  H
  H186     1.0000 0.84862  0.12104  0.98169  Biso   1.000  H
  H187     1.0000 0.80672  0.04458  0.96020  Biso   1.000  H
  H188     1.0000 0.82819  0.01972  0.01020  Biso   1.000  H
  I13      1.0000 0.24252  0.28764  0.38969  Biso   1.000  I
  C149     1.0000 0.28170  0.17051  0.35582  Biso   1.000  C
  C150     1.0000 0.30917  0.10930  0.33877  Biso   1.000  C
  I14      1.0000 0.23833  0.24330  0.39801  Biso   1.000  I
  C151     1.0000 0.34508  0.03472  0.32107  Biso   1.000  C
  C152     1.0000 0.34157  0.99535  0.27601  Biso   1.000  C
  C153     1.0000 0.38408  0.99894  0.34914  Biso   1.000  C
  O17      1.0000 0.30236  0.02429  0.24876  Biso   1.000  O
  C154     1.0000 0.37596  0.92094  0.25958  Biso   1.000  C
  O18      1.0000 0.38638  0.03448  0.39381  Biso   1.000  O
  C155     1.0000 0.41842  0.92453  0.33392  Biso   1.000  C
  C156     1.0000 0.30398  0.13326  0.23028  Biso   1.000  C
  C157     1.0000 0.41388  0.88842  0.28880  Biso   1.000  C
  C158     1.0000 0.37232  0.87872  0.21067  Biso   1.000  C
  C159     1.0000 0.40340  0.14402  0.40046  Biso   1.000  C
  C160     1.0000 0.45955  0.88312  0.36506  Biso   1.000  C
  H189     1.0000 0.30052  0.18632  0.25552  Biso   1.000  H
  H190     1.0000 0.27582  0.14337  0.20900  Biso   1.000  H
  C161     1.0000 0.35074  0.15731  0.20531  Biso   1.000  C
  H191     1.0000 0.43781  0.83935  0.27762  Biso   1.000  H
  C162     1.0000 0.41114  0.93333  0.18188  Biso   1.000  C
  H192     1.0000 0.33982  0.90284  0.19819  Biso   1.000  H
  C163     1.0000 0.37252  0.75450  0.20917  Biso   1.000  C
  C164     1.0000 0.45331  0.16350  0.38044  Biso   1.000  C
  H193     1.0000 0.40490  0.15992  0.43361  Biso   1.000  H
  H194     1.0000 0.37963  0.19513  0.38631  Biso   1.000  H
  C165     1.0000 0.50817  0.93634  0.35377  Biso   1.000  C
  H195     1.0000 0.45132  0.90773  0.39651  Biso   1.000  H
  C166     1.0000 0.46145  0.75784  0.36673  Biso   1.000  C
  O19      1.0000 0.35559  0.08110  0.16834  Biso   1.000  O
  H196     1.0000 0.34989  0.23270  0.19321  Biso   1.000  H
  H197     1.0000 0.37912  0.15079  0.22649  Biso   1.000  H
  C167     1.0000 0.40144  0.03529  0.16319  Biso   1.000  C
  C168     1.0000 0.45664  0.88573  0.17336  Biso   1.000  C
  H198     1.0000 0.40142  0.72687  0.22639  Biso   1.000  H
  H199     1.0000 0.37539  0.73013  0.17711  Biso   1.000  H
  C169     1.0000 0.32602  0.70641  0.22943  Biso   1.000  C
  O20      1.0000 0.48718  0.08803  0.40135  Biso   1.000  O
  H200     1.0000 0.45202  0.15201  0.34699  Biso   1.000  H
  H201     1.0000 0.46402  0.23930  0.38651  Biso   1.000  H
  C170     1.0000 0.51939  0.03798  0.37161  Biso   1.000  C
  C171     1.0000 0.54335  0.88573  0.32663  Biso   1.000  C
  H202     1.0000 0.46140  0.72883  0.33529  Biso   1.000  H
  H203     1.0000 0.49230  0.73470  0.38201  Biso   1.000  H
  C172     1.0000 0.41815  0.71025  0.39231  Biso   1.000  C
  C173     1.0000 0.43616  0.09063  0.13666  Biso   1.000  C
  C174     1.0000 0.49183  0.93634  0.14621  Biso   1.000  C
  H204     1.0000 0.46399  0.81669  0.18649  Biso   1.000  H
  H205     1.0000 0.32281  0.73315  0.26111  Biso   1.000  H
  H206     1.0000 0.29740  0.73331  0.21169  Biso   1.000  H
  C175     1.0000 0.32493  0.58407  0.22980  Biso   1.000  C
  C176     1.0000 0.56387  0.09063  0.36332  Biso   1.000  C
  C177     1.0000 0.58889  0.93333  0.31813  Biso   1.000  C
  H207     1.0000 0.53601  0.81669  0.31350  Biso   1.000  H
  H208     1.0000 0.41682  0.74423  0.42291  Biso   1.000  H
  H209     1.0000 0.38753  0.72948  0.37570  Biso   1.000  H
  C178     1.0000 0.42021  0.58929  0.39791  Biso   1.000  C
  C179     1.0000 0.48064  0.03798  0.12841  Biso   1.000  C
  C180     1.0000 0.42750  0.19814  0.11899  Biso   1.000  C
  C181     1.0000 0.54044  0.88312  0.13495  Biso   1.000  C
  H210     1.0000 0.33869  0.55701  0.20091  Biso   1.000  H
  H211     1.0000 0.29041  0.55970  0.23099  Biso   1.000  H
  C182     1.0000 0.35311  0.53289  0.26930  Biso   1.000  C
  C183     1.0000 0.59856  0.03529  0.33682  Biso   1.000  C
  C184     1.0000 0.57250  0.19814  0.38102  Biso   1.000  C
  C185     1.0000 0.62771  0.87872  0.28931  Biso   1.000  C
  H212     1.0000 0.45330  0.56688  0.40851  Biso   1.000  H
  H213     1.0000 0.41320  0.55310  0.36830  Biso   1.000  H
  C186     1.0000 0.38012  0.55481  0.43460  Biso   1.000  C
  H214     1.0000 0.43460  0.56337  0.36898  Biso   1.000  H
  H215     1.0000 0.44592  0.57804  0.42151  Biso   1.000  H
  C187     1.0000 0.38330  0.50721  0.40831  Biso   1.000  C
  O21      1.0000 0.51285  0.08803  0.09867  Biso   1.000  O
  C188     1.0000 0.42479  0.28878  0.10491  Biso   1.000  C
  C189     1.0000 0.58157  0.92453  0.16609  Biso   1.000  C
  H216     1.0000 0.54871  0.90773  0.10351  Biso   1.000  H
  C190     1.0000 0.53855  0.75784  0.13325  Biso   1.000  C
  H217     1.0000 0.33781  0.55449  0.29828  Biso   1.000  H
  H218     1.0000 0.38711  0.56068  0.26960  Biso   1.000  H
  C191     1.0000 0.35390  0.40957  0.26588  Biso   1.000  C
  O22      1.0000 0.64440  0.08110  0.33164  Biso   1.000  O
  C192     1.0000 0.57524  0.28878  0.39508  Biso   1.000  C
  C193     1.0000 0.62403  0.92094  0.24044  Biso   1.000  C
  H219     1.0000 0.66021  0.90284  0.30180  Biso   1.000  H
  C194     1.0000 0.62752  0.75450  0.29082  Biso   1.000  C
  H220     1.0000 0.38653  0.59459  0.46339  Biso   1.000  H
  H221     1.0000 0.34720  0.57633  0.42321  Biso   1.000  H
  C195     1.0000 0.38052  0.43435  0.44391  Biso   1.000  C
  H222     1.0000 0.36711  0.60632  0.46271  Biso   1.000  H
  H223     1.0000 0.39542  0.43239  0.40282  Biso   1.000  H
  H224     1.0000 0.35263  0.51903  0.39061  Biso   1.000  H
  C196     1.0000 0.37653  0.52914  0.45841  Biso   1.000  C
  C197     1.0000 0.54669  0.16350  0.11957  Biso   1.000  C
  I15      1.0000 0.42868  0.44478  0.08131  Biso   1.000  I
  C198     1.0000 0.61595  0.99894  0.15085  Biso   1.000  C
  C199     1.0000 0.58611  0.88842  0.21118  Biso   1.000  C
  H225     1.0000 0.53859  0.72883  0.16469  Biso   1.000  H
  H226     1.0000 0.50769  0.73470  0.11800  Biso   1.000  H
  C200     1.0000 0.58185  0.71025  0.10770  Biso   1.000  C
  H227     1.0000 0.31980  0.38267  0.26329  Biso   1.000  H
  H228     1.0000 0.37101  0.38854  0.23761  Biso   1.000  H
  C201     1.0000 0.37861  0.35529  0.30569  Biso   1.000  C
  C202     1.0000 0.64926  0.15731  0.29470  Biso   1.000  C
  I16      1.0000 0.57132  0.44478  0.41871  Biso   1.000  I
  C203     1.0000 0.65843  0.99535  0.22397  Biso   1.000  C
  H229     1.0000 0.59861  0.72687  0.27359  Biso   1.000  H
  H230     1.0000 0.62460  0.73013  0.32291  Biso   1.000  H
  C204     1.0000 0.67398  0.70641  0.27059  Biso   1.000  C
  H231     1.0000 0.41351  0.41373  0.45541  Biso   1.000  H
  H232     1.0000 0.37490  0.39522  0.41469  Biso   1.000  H
  C205     1.0000 0.34313  0.39620  0.47761  Biso   1.000  C
  C206     1.0000 0.33624  0.45399  0.47959  Biso   1.000  C
  H233     1.0000 0.40802  0.51699  0.47481  Biso   1.000  H
  H234     1.0000 0.54801  0.15201  0.15300  Biso   1.000  H
  H235     1.0000 0.53601  0.23930  0.11350  Biso   1.000  H
  C207     1.0000 0.59659  0.14402  0.09952  Biso   1.000  C
  O23      1.0000 0.61365  0.03448  0.10620  Biso   1.000  O
  C208     1.0000 0.65491  0.03472  0.17892  Biso   1.000  C
  H236     1.0000 0.56222  0.83935  0.22240  Biso   1.000  H
  H237     1.0000 0.58321  0.74423  0.07711  Biso   1.000  H
  H238     1.0000 0.61250  0.72948  0.12431  Biso   1.000  H
  C209     1.0000 0.57978  0.58929  0.10211  Biso   1.000  C
  H239     1.0000 0.38211  0.27720  0.29951  Biso   1.000  H
  H240     1.0000 0.35893  0.36547  0.33300  Biso   1.000  H
  H241     1.0000 0.41110  0.38764  0.31070  Biso   1.000  H
  C210     1.0000 0.69601  0.13326  0.26974  Biso   1.000  C
  H242     1.0000 0.65010  0.23270  0.30681  Biso   1.000  H
  H243     1.0000 0.62091  0.15079  0.27349  Biso   1.000  H
  O24      1.0000 0.69763  0.02429  0.25125  Biso   1.000  O
  H244     1.0000 0.67719  0.73315  0.23891  Biso   1.000  H
  H245     1.0000 0.70260  0.73331  0.28829  Biso   1.000  H
  C211     1.0000 0.67507  0.58407  0.27018  Biso   1.000  C
  H246     1.0000 0.34553  0.44070  0.50520  Biso   1.000  H
  H247     1.0000 0.34933  0.31959  0.48528  Biso   1.000  H
  H248     1.0000 0.31032  0.40337  0.46410  Biso   1.000  H
  H249     1.0000 0.32821  0.48032  0.51021  Biso   1.000  H
  H250     1.0000 0.34861  0.37900  0.48170  Biso   1.000  H
  H251     1.0000 0.30671  0.45538  0.46022  Biso   1.000  H
  H252     1.0000 0.59509  0.15992  0.06640  Biso   1.000  H
  H253     1.0000 0.62040  0.19513  0.11371  Biso   1.000  H
  C212     1.0000 0.69086  0.10930  0.16122  Biso   1.000  C
  H254     1.0000 0.54669  0.56688  0.09150  Biso   1.000  H
  H255     1.0000 0.58680  0.55310  0.13171  Biso   1.000  H
  C213     1.0000 0.61991  0.55481  0.06541  Biso   1.000  C
  H256     1.0000 0.56539  0.56337  0.13100  Biso   1.000  H
  H257     1.0000 0.55411  0.57804  0.07851  Biso   1.000  H
  C214     1.0000 0.61669  0.50721  0.09171  Biso   1.000  C
  H258     1.0000 0.69951  0.18632  0.24450  Biso   1.000  H
  H259     1.0000 0.72421  0.14337  0.29099  Biso   1.000  H
  H260     1.0000 0.66130  0.55701  0.29910  Biso   1.000  H
  H261     1.0000 0.70962  0.55970  0.26899  Biso   1.000  H
  C215     1.0000 0.64692  0.53289  0.23072  Biso   1.000  C
  C216     1.0000 0.71833  0.17051  0.14420  Biso   1.000  C
  H262     1.0000 0.61350  0.59459  0.03659  Biso   1.000  H
  H263     1.0000 0.65279  0.57633  0.07681  Biso   1.000  H
  C217     1.0000 0.61951  0.43435  0.05610  Biso   1.000  C
  H264     1.0000 0.63288  0.60632  0.03731  Biso   1.000  H
  H265     1.0000 0.60461  0.43239  0.09720  Biso   1.000  H
  H266     1.0000 0.64740  0.51903  0.10941  Biso   1.000  H
  C218     1.0000 0.62350  0.52914  0.04161  Biso   1.000  C
  H267     1.0000 0.66222  0.55449  0.20170  Biso   1.000  H
  H268     1.0000 0.61289  0.56068  0.23042  Biso   1.000  H
  C219     1.0000 0.64609  0.40957  0.23410  Biso   1.000  C
  I17      1.0000 0.75751  0.28764  0.11030  Biso   1.000  I
  I18      1.0000 0.76170  0.24330  0.10201  Biso   1.000  I
  H269     1.0000 0.58648  0.41373  0.04461  Biso   1.000  H
  H270     1.0000 0.62509  0.39522  0.08530  Biso   1.000  H
  C220     1.0000 0.65690  0.39620  0.02241  Biso   1.000  C
  C221     1.0000 0.66379  0.45399  0.02039  Biso   1.000  C
  H271     1.0000 0.59201  0.51699  0.02520  Biso   1.000  H
  H272     1.0000 0.68019  0.38267  0.23669  Biso   1.000  H
  H273     1.0000 0.62902  0.38854  0.26241  Biso   1.000  H
  C222     1.0000 0.62142  0.35529  0.19430  Biso   1.000  C
  H274     1.0000 0.65454  0.44070  0.99482  Biso   1.000  H
  H275     1.0000 0.65070  0.31959  0.01470  Biso   1.000  H
  H276     1.0000 0.68971  0.40337  0.03591  Biso   1.000  H
  H277     1.0000 0.67186  0.48032  0.98980  Biso   1.000  H
  H278     1.0000 0.65138  0.37900  0.01831  Biso   1.000  H
  H279     1.0000 0.69328  0.45538  0.03980  Biso   1.000  H
  H280     1.0000 0.61792  0.27720  0.20050  Biso   1.000  H
  H281     1.0000 0.64110  0.36547  0.16701  Biso   1.000  H
  H282     1.0000 0.58889  0.38764  0.18928  Biso   1.000  H
  O25      1.0000 0.14442  0.58114  0.33164  Biso   1.000  O
  C223     1.0000 0.09857  0.53533  0.33682  Biso   1.000  C
  C224     1.0000 0.14928  0.65735  0.29470  Biso   1.000  C
  C225     1.0000 0.08887  0.43329  0.31813  Biso   1.000  C
  C226     1.0000 0.06389  0.59059  0.36332  Biso   1.000  C
  C227     1.0000 0.19603  0.63330  0.26974  Biso   1.000  C
  H283     1.0000 0.15012  0.73274  0.30681  Biso   1.000  H
  H284     1.0000 0.12089  0.65083  0.27349  Biso   1.000  H
  C228     1.0000 0.12773  0.37868  0.28931  Biso   1.000  C
  C229     1.0000 0.04337  0.38569  0.32663  Biso   1.000  C
  C230     1.0000 0.01941  0.53802  0.37161  Biso   1.000  C
  C231     1.0000 0.07252  0.69810  0.38102  Biso   1.000  C
  O26      1.0000 0.19765  0.52433  0.25125  Biso   1.000  O
  H285     1.0000 0.19952  0.68628  0.24450  Biso   1.000  H
  H286     1.0000 0.22423  0.64341  0.29099  Biso   1.000  H
  C232     1.0000 0.12750  0.25454  0.29082  Biso   1.000  C
  C233     1.0000 0.12405  0.42090  0.24044  Biso   1.000  C
  H287     1.0000 0.16023  0.40280  0.30180  Biso   1.000  H
  C234     1.0000 0.00818  0.43630  0.35377  Biso   1.000  C
  H288     1.0000 0.03602  0.31673  0.31350  Biso   1.000  H
  O27      1.0000 0.98716  0.58799  0.40135  Biso   1.000  O
  C235     1.0000 0.07522  0.78882  0.39508  Biso   1.000  C
  C236     1.0000 0.15844  0.49531  0.22397  Biso   1.000  C
  C237     1.0000 0.17399  0.20637  0.27059  Biso   1.000  C
  H289     1.0000 0.09863  0.22691  0.27359  Biso   1.000  H
  H290     1.0000 0.12462  0.23009  0.32291  Biso   1.000  H
  C238     1.0000 0.08613  0.38838  0.21118  Biso   1.000  C
  C239     1.0000 0.95957  0.38308  0.36506  Biso   1.000  C
  C240     1.0000 0.95333  0.66354  0.38044  Biso   1.000  C
  I19      1.0000 0.07134  0.94474  0.41871  Biso   1.000  I
  C241     1.0000 0.15493  0.53468  0.17892  Biso   1.000  C
  H291     1.0000 0.17721  0.23311  0.23891  Biso   1.000  H
  H292     1.0000 0.20261  0.23327  0.28829  Biso   1.000  H
  C242     1.0000 0.17509  0.08411  0.27018  Biso   1.000  C
  C243     1.0000 0.08159  0.42448  0.16609  Biso   1.000  C
  H293     1.0000 0.06220  0.33931  0.22240  Biso   1.000  H
  C244     1.0000 0.91844  0.42448  0.33392  Biso   1.000  C
  H294     1.0000 0.95130  0.40769  0.39651  Biso   1.000  H
  C245     1.0000 0.96147  0.25780  0.36673  Biso   1.000  C
  H295     1.0000 0.95201  0.65205  0.34699  Biso   1.000  H
  H296     1.0000 0.96400  0.73934  0.38651  Biso   1.000  H
  C246     1.0000 0.90342  0.64398  0.40046  Biso   1.000  C
  C247     1.0000 0.11597  0.49890  0.15085  Biso   1.000  C
  C248     1.0000 0.19088  0.60934  0.16122  Biso   1.000  C
  H297     1.0000 0.16132  0.05697  0.29910  Biso   1.000  H
  H298     1.0000 0.20961  0.05966  0.26899  Biso   1.000  H
  C249     1.0000 0.14690  0.03293  0.23072  Biso   1.000  C
  C250     1.0000 0.04046  0.38308  0.13495  Biso   1.000  C
  C251     1.0000 0.88406  0.49890  0.34914  Biso   1.000  C
  C252     1.0000 0.91390  0.38838  0.28880  Biso   1.000  C
  H299     1.0000 0.96142  0.22879  0.33529  Biso   1.000  H
  H300     1.0000 0.99232  0.23474  0.38201  Biso   1.000  H
  C253     1.0000 0.91816  0.21020  0.39231  Biso   1.000  C
  O28      1.0000 0.88636  0.53452  0.39381  Biso   1.000  O
  H301     1.0000 0.90492  0.65987  0.43361  Biso   1.000  H
  H302     1.0000 0.87961  0.69509  0.38631  Biso   1.000  H
  O29      1.0000 0.11363  0.53452  0.10620  Biso   1.000  O
  C254     1.0000 0.21831  0.67047  0.14420  Biso   1.000  C
  H303     1.0000 0.16220  0.05453  0.20170  Biso   1.000  H
  H304     1.0000 0.11291  0.06072  0.23042  Biso   1.000  H
  C255     1.0000 0.14611  0.90961  0.23410  Biso   1.000  C
  H305     1.0000 0.04869  0.40769  0.10351  Biso   1.000  H
  C256     1.0000 0.03856  0.25780  0.13325  Biso   1.000  C
  C257     1.0000 0.99185  0.43630  0.14621  Biso   1.000  C
  C258     1.0000 0.84510  0.53468  0.32107  Biso   1.000  C
  H306     1.0000 0.93779  0.33931  0.27762  Biso   1.000  H
  C259     1.0000 0.87598  0.42090  0.25958  Biso   1.000  C
  H307     1.0000 0.91680  0.24419  0.42291  Biso   1.000  H
  H308     1.0000 0.88751  0.22952  0.37570  Biso   1.000  H
  C260     1.0000 0.92023  0.08933  0.39791  Biso   1.000  C
  C261     1.0000 0.09661  0.64398  0.09952  Biso   1.000  C
  I20      1.0000 0.25749  0.78759  0.11030  Biso   1.000  I
  I21      1.0000 0.26169  0.74334  0.10201  Biso   1.000  I
  H309     1.0000 0.18021  0.88271  0.23669  Biso   1.000  H
  H310     1.0000 0.12900  0.88850  0.26241  Biso   1.000  H
  C262     1.0000 0.12140  0.85533  0.19430  Biso   1.000  C
  H311     1.0000 0.03861  0.22879  0.16469  Biso   1.000  H
  H312     1.0000 0.00771  0.23474  0.11800  Biso   1.000  H
  C263     1.0000 0.08187  0.21020  0.10770  Biso   1.000  C
  C264     1.0000 0.98062  0.53802  0.12841  Biso   1.000  C
  C265     1.0000 0.95666  0.38569  0.17336  Biso   1.000  C
  C266     1.0000 0.80915  0.60934  0.33877  Biso   1.000  C
  C267     1.0000 0.84159  0.49531  0.27601  Biso   1.000  C
  C268     1.0000 0.87230  0.37868  0.21067  Biso   1.000  C
  H313     1.0000 0.95332  0.06692  0.40851  Biso   1.000  H
  H314     1.0000 0.91322  0.05306  0.36830  Biso   1.000  H
  C269     1.0000 0.88010  0.05477  0.43460  Biso   1.000  C
  H315     1.0000 0.93462  0.06341  0.36898  Biso   1.000  H
  H316     1.0000 0.94590  0.07800  0.42151  Biso   1.000  H
  C270     1.0000 0.88332  0.00717  0.40831  Biso   1.000  C
  C271     1.0000 0.04670  0.66354  0.11957  Biso   1.000  C
  H317     1.0000 0.09511  0.65987  0.06640  Biso   1.000  H
  H318     1.0000 0.12042  0.69509  0.11371  Biso   1.000  H
  H319     1.0000 0.11790  0.77724  0.20050  Biso   1.000  H
  H320     1.0000 0.14112  0.86551  0.16701  Biso   1.000  H
  H321     1.0000 0.08891  0.88760  0.18928  Biso   1.000  H
  H322     1.0000 0.08319  0.24419  0.07711  Biso   1.000  H
  H323     1.0000 0.11252  0.22952  0.12431  Biso   1.000  H
  C272     1.0000 0.07980  0.08933  0.10211  Biso   1.000  C
  O30      1.0000 0.01283  0.58799  0.09867  Biso   1.000  O
  C273     1.0000 0.93614  0.59059  0.13666  Biso   1.000  C
  C274     1.0000 0.91112  0.43329  0.18188  Biso   1.000  C
  H324     1.0000 0.96401  0.31673  0.18649  Biso   1.000  H
  C275     1.0000 0.78168  0.67047  0.35582  Biso   1.000  C
  O31      1.0000 0.80238  0.52433  0.24876  Biso   1.000  O
  H325     1.0000 0.83980  0.40280  0.19819  Biso   1.000  H
  C276     1.0000 0.87250  0.25454  0.20917  Biso   1.000  C
  C277     1.0000 0.88050  0.93431  0.44391  Biso   1.000  C
  H326     1.0000 0.88651  0.09463  0.46339  Biso   1.000  H
  H327     1.0000 0.84722  0.07629  0.42321  Biso   1.000  H
  H328     1.0000 0.86713  0.10628  0.46271  Biso   1.000  H
  H329     1.0000 0.89540  0.93243  0.40282  Biso   1.000  H
  H330     1.0000 0.85261  0.01899  0.39061  Biso   1.000  H
  C278     1.0000 0.87651  0.02910  0.45841  Biso   1.000  C
  H331     1.0000 0.04802  0.65205  0.15300  Biso   1.000  H
  H332     1.0000 0.03599  0.73934  0.11350  Biso   1.000  H
  H333     1.0000 0.04671  0.06692  0.09150  Biso   1.000  H
  H334     1.0000 0.08681  0.05306  0.13171  Biso   1.000  H
  C279     1.0000 0.11989  0.05477  0.06541  Biso   1.000  C
  H335     1.0000 0.06541  0.06341  0.13100  Biso   1.000  H
  H336     1.0000 0.05409  0.07800  0.07851  Biso   1.000  H
  C280     1.0000 0.11671  0.00717  0.09171  Biso   1.000  C
  C281     1.0000 0.90146  0.53533  0.16319  Biso   1.000  C
  C282     1.0000 0.92751  0.69810  0.11899  Biso   1.000  C
  I22      1.0000 0.74250  0.78759  0.38969  Biso   1.000  I
  I23      1.0000 0.73831  0.74334  0.39801  Biso   1.000  I
  C283     1.0000 0.80400  0.63330  0.23028  Biso   1.000  C
  H337     1.0000 0.90140  0.22691  0.22639  Biso   1.000  H
  H338     1.0000 0.87541  0.23009  0.17711  Biso   1.000  H
  C284     1.0000 0.82604  0.20637  0.22943  Biso   1.000  C
  H339     1.0000 0.91353  0.91368  0.45541  Biso   1.000  H
  H340     1.0000 0.87492  0.89518  0.41469  Biso   1.000  H
  C285     1.0000 0.84311  0.89624  0.47761  Biso   1.000  C
  C286     1.0000 0.83622  0.95403  0.47959  Biso   1.000  C
  H341     1.0000 0.90801  0.01703  0.47481  Biso   1.000  H
  H342     1.0000 0.11352  0.09463  0.03659  Biso   1.000  H
  H343     1.0000 0.15281  0.07629  0.07681  Biso   1.000  H
  H344     1.0000 0.13290  0.10628  0.03731  Biso   1.000  H
  C287     1.0000 0.11949  0.93431  0.05610  Biso   1.000  C
  H345     1.0000 0.14742  0.01899  0.10941  Biso   1.000  H
  C288     1.0000 0.12348  0.02910  0.04161  Biso   1.000  C
  H346     1.0000 0.10460  0.93243  0.09720  Biso   1.000  H
  O32      1.0000 0.85561  0.58114  0.16834  Biso   1.000  O
  C289     1.0000 0.92477  0.78882  0.10491  Biso   1.000  C
  C290     1.0000 0.85075  0.65735  0.20531  Biso   1.000  C
  H347     1.0000 0.80051  0.68628  0.25552  Biso   1.000  H
  H348     1.0000 0.77580  0.64341  0.20900  Biso   1.000  H
  H349     1.0000 0.82279  0.23311  0.26111  Biso   1.000  H
  H350     1.0000 0.79742  0.23327  0.21169  Biso   1.000  H
  C291     1.0000 0.82494  0.08411  0.22980  Biso   1.000  C
  H351     1.0000 0.84551  0.94074  0.50520  Biso   1.000  H
  H352     1.0000 0.84931  0.81963  0.48528  Biso   1.000  H
  H353     1.0000 0.81031  0.90342  0.46410  Biso   1.000  H
  H354     1.0000 0.82823  0.98028  0.51021  Biso   1.000  H
  H355     1.0000 0.84863  0.87904  0.48170  Biso   1.000  H
  H356     1.0000 0.80673  0.95542  0.46022  Biso   1.000  H
  H357     1.0000 0.08650  0.91368  0.04461  Biso   1.000  H
  H358     1.0000 0.12511  0.89518  0.08530  Biso   1.000  H
  C292     1.0000 0.15688  0.89624  0.02241  Biso   1.000  C
  C293     1.0000 0.16381  0.95403  0.02039  Biso   1.000  C
  H359     1.0000 0.09199  0.01703  0.02520  Biso   1.000  H
  I24      1.0000 0.92869  0.94474  0.08131  Biso   1.000  I
  H360     1.0000 0.84991  0.73274  0.19321  Biso   1.000  H
  H361     1.0000 0.87910  0.65083  0.22649  Biso   1.000  H
  H362     1.0000 0.83871  0.05697  0.20091  Biso   1.000  H
  H363     1.0000 0.79039  0.05966  0.23099  Biso   1.000  H
  C294     1.0000 0.85309  0.03293  0.26930  Biso   1.000  C
  H364     1.0000 0.15456  0.94074  0.99482  Biso   1.000  H
  H365     1.0000 0.15069  0.81963  0.01470  Biso   1.000  H
  H366     1.0000 0.18969  0.90342  0.03591  Biso   1.000  H
  H367     1.0000 0.17184  0.98028  0.98980  Biso   1.000  H
  H368     1.0000 0.15140  0.87904  0.01831  Biso   1.000  H
  H369     1.0000 0.19330  0.95542  0.03980  Biso   1.000  H
  C295     1.0000 0.85392  0.90961  0.26588  Biso   1.000  C
  H370     1.0000 0.83779  0.05453  0.29828  Biso   1.000  H
  H371     1.0000 0.88712  0.06072  0.26960  Biso   1.000  H
  H372     1.0000 0.81982  0.88271  0.26329  Biso   1.000  H
  H373     1.0000 0.87099  0.88850  0.23761  Biso   1.000  H
  C296     1.0000 0.87860  0.85533  0.30569  Biso   1.000  C
  H374     1.0000 0.88209  0.77724  0.29951  Biso   1.000  H
  H375     1.0000 0.85891  0.86551  0.33300  Biso   1.000  H
  H376     1.0000 0.91112  0.88760  0.31070  Biso   1.000  H
