data_image0
_cell_length_a       19.716
_cell_length_b       28.117
_cell_length_c       21.092
_cell_angle_alpha    90
_cell_angle_beta     112.9
_cell_angle_gamma    90

_symmetry_space_group_name_H-M    "P 1"
_symmetry_int_tables_number       1

loop_
  _symmetry_equiv_pos_as_xyz
  'x, y, z'

loop_
  _atom_site_label
  _atom_site_occupancy
  _atom_site_fract_x
  _atom_site_fract_y
  _atom_site_fract_z
  _atom_site_thermal_displace_type
  _atom_site_B_iso_or_equiv
  _atom_site_type_symbol
  C1       1.0000 0.70866  0.48832  0.58617  Biso   1.000  C
  C2       1.0000 0.75133  0.50581  0.65261  Biso   1.000  C
  C3       1.0000 0.74416  0.47181  0.54170  Biso   1.000  C
  H1       1.0000 0.65647  0.48729  0.57057  Biso   1.000  H
  Si1      1.0000 0.70914  0.53533  0.70696  Biso   1.000  Si
  C4       1.0000 0.82787  0.50560  0.67150  Biso   1.000  C
  C5       1.0000 0.81946  0.47359  0.56321  Biso   1.000  C
  H2       1.0000 0.71517  0.45969  0.49728  Biso   1.000  H
  C6       1.0000 0.64597  0.49529  0.72750  Biso   1.000  C
  C7       1.0000 0.66294  0.59139  0.66141  Biso   1.000  C
  C8       1.0000 0.78604  0.55450  0.78900  Biso   1.000  C
  C9       1.0000 0.86163  0.48942  0.62698  Biso   1.000  C
  H3       1.0000 0.85845  0.51680  0.71597  Biso   1.000  H
  C10      1.0000 0.85264  0.46111  0.51169  Biso   1.000  C
  C11      1.0000 0.63073  0.50361  0.78679  Biso   1.000  C
  C12      1.0000 0.61033  0.45542  0.68879  Biso   1.000  C
  C13      1.0000 0.62282  0.61931  0.68859  Biso   1.000  C
  C14      1.0000 0.67315  0.60782  0.60480  Biso   1.000  C
  C15      1.0000 0.82694  0.52210  0.83949  Biso   1.000  C
  C16      1.0000 0.81246  0.60220  0.79971  Biso   1.000  C
  H4       1.0000 0.91384  0.48970  0.64201  Biso   1.000  H
  C17      1.0000 0.85386  0.50108  0.46517  Biso   1.000  C
  C18      1.0000 0.88025  0.41879  0.50809  Biso   1.000  C
  C19      1.0000 0.58424  0.47320  0.80439  Biso   1.000  C
  H5       1.0000 0.65235  0.53021  0.81520  Biso   1.000  H
  C20      1.0000 0.56434  0.42661  0.70809  Biso   1.000  C
  H6       1.0000 0.61792  0.44791  0.64818  Biso   1.000  H
  C21      1.0000 0.59803  0.66419  0.66157  Biso   1.000  C
  H7       1.0000 0.61212  0.60771  0.72600  Biso   1.000  H
  C22      1.0000 0.64854  0.65299  0.57711  Biso   1.000  C
  H8       1.0000 0.69764  0.58811  0.58370  Biso   1.000  H
  C23      1.0000 0.89044  0.53409  0.89466  Biso   1.000  C
  H9       1.0000 0.81003  0.49009  0.83578  Biso   1.000  H
  C24      1.0000 0.87532  0.61390  0.85457  Biso   1.000  C
  H10      1.0000 0.78586  0.62631  0.76821  Biso   1.000  H
  C25      1.0000 0.87746  0.54921  0.50150  Biso   1.000  C
  C26      1.0000 0.83736  0.49639  0.39810  Biso   1.000  C
  Si2      1.0000 0.88538  0.36345  0.55951  Biso   1.000  Si
  H11      1.0000 0.90077  0.41590  0.47428  Biso   1.000  H
  C27      1.0000 0.54992  0.43451  0.76507  Biso   1.000  C
  H12      1.0000 0.57614  0.47971  0.84510  Biso   1.000  H
  H13      1.0000 0.54185  0.40011  0.67989  Biso   1.000  H
  C28      1.0000 0.61144  0.68219  0.60619  Biso   1.000  C
  H14      1.0000 0.57123  0.68300  0.68138  Biso   1.000  H
  H15      1.0000 0.65724  0.66369  0.53820  Biso   1.000  H
  C29      1.0000 0.91823  0.58089  0.90259  Biso   1.000  C
  H16      1.0000 0.91581  0.51051  0.92771  Biso   1.000  H
  H17      1.0000 0.89054  0.64619  0.86018  Biso   1.000  H
  C30      1.0000 0.94983  0.56140  0.53207  Biso   1.000  C
  C31      1.0000 0.82364  0.57880  0.50721  Biso   1.000  C
  Si3      1.0000 0.84138  0.53615  0.32991  Biso   1.000  Si
  H18      1.0000 0.81964  0.46552  0.38148  Biso   1.000  H
  C32      1.0000 0.92824  0.31671  0.52590  Biso   1.000  C
  C33      1.0000 0.94633  0.37230  0.65158  Biso   1.000  C
  C34      1.0000 0.79274  0.34460  0.55117  Biso   1.000  C
  C35      1.0000 0.49933  0.39930  0.78488  Biso   1.000  C
  C36      1.0000 0.59306  0.73379  0.58457  Biso   1.000  C
  C37      1.0000 0.98813  0.59402  0.95890  Biso   1.000  C
  C38      1.0000 0.97085  0.60198  0.57098  Biso   1.000  C
  H19      1.0000 0.98618  0.54159  0.52641  Biso   1.000  H
  C39      1.0000 0.84767  0.61970  0.54957  Biso   1.000  C
  H20      1.0000 0.77277  0.57190  0.48359  Biso   1.000  H
  C40      1.0000 0.92044  0.51631  0.31148  Biso   1.000  C
  C41      1.0000 0.84959  0.59900  0.35291  Biso   1.000  C
  C42      1.0000 0.75728  0.52972  0.25168  Biso   1.000  C
  H21      1.0000 0.89876  0.31120  0.47870  Biso   1.000  H
  H22      1.0000 0.93197  0.28819  0.55117  Biso   1.000  H
  H23      1.0000 0.97594  0.32671  0.53058  Biso   1.000  H
  H24      1.0000 0.95035  0.34332  0.67587  Biso   1.000  H
  H25      1.0000 0.92595  0.39609  0.67099  Biso   1.000  H
  H26      1.0000 0.99375  0.38201  0.65488  Biso   1.000  H
  H27      1.0000 0.76266  0.33962  0.50377  Biso   1.000  H
  H28      1.0000 0.77133  0.36850  0.56918  Biso   1.000  H
  H29      1.0000 0.79624  0.31579  0.57577  Biso   1.000  H
  C43      1.0000 0.41726  0.40232  0.71468  Biso   1.000  C
  C44      1.0000 0.43691  0.42551  0.78797  Biso   1.000  C
  C45      1.0000 0.50933  0.34918  0.77150  Biso   1.000  C
  C46      1.0000 0.47894  0.42120  0.84299  Biso   1.000  C
  C47      1.0000 0.54093  0.39659  0.87397  Biso   1.000  C
  C48      1.0000 0.65457  0.76640  0.62950  Biso   1.000  C
  C49      1.0000 0.53279  0.74869  0.53310  Biso   1.000  C
  C50      1.0000 0.99421  0.60419  0.02272  Biso   1.000  C
  C51      1.0000 0.05462  0.59341  0.93949  Biso   1.000  C
  C52      1.0000 0.91957  0.63172  0.58169  Biso   1.000  C
  H30      1.0000 0.02167  0.61009  0.59121  Biso   1.000  H
  H31      1.0000 0.81168  0.63951  0.55559  Biso   1.000  H
  H32      1.0000 0.91258  0.48451  0.29491  Biso   1.000  H
  H33      1.0000 0.96375  0.51759  0.35240  Biso   1.000  H
  H34      1.0000 0.92597  0.53640  0.27762  Biso   1.000  H
  H35      1.0000 0.85265  0.61731  0.31627  Biso   1.000  H
  H36      1.0000 0.89248  0.60391  0.39332  Biso   1.000  H
  H37      1.0000 0.80735  0.60871  0.36110  Biso   1.000  H
  H38      1.0000 0.76027  0.54921  0.21622  Biso   1.000  H
  H39      1.0000 0.71556  0.53910  0.26110  Biso   1.000  H
  H40      1.0000 0.75147  0.49739  0.23711  Biso   1.000  H
  C53      1.0000 0.72924  0.75250  0.63511  Biso   1.000  C
  C54      1.0000 0.64025  0.80531  0.65930  Biso   1.000  C
  Si4      1.0000 0.45355  0.71622  0.47119  Biso   1.000  Si
  H41      1.0000 0.52986  0.78230  0.52718  Biso   1.000  H
  Si5      1.0000 0.92296  0.60195  0.06075  Biso   1.000  Si
  H42      1.0000 0.04184  0.61390  0.05354  Biso   1.000  H
  C55      1.0000 0.03763  0.61361  0.86811  Biso   1.000  C
  C56      1.0000 0.12170  0.57851  0.97856  Biso   1.000  C
  Si6      1.0000 0.95074  0.68151  0.64659  Biso   1.000  Si
  C57      1.0000 0.77883  0.73102  0.69528  Biso   1.000  C
  C58      1.0000 0.75213  0.75591  0.58009  Biso   1.000  C
  Si7      1.0000 0.70404  0.85258  0.71020  Biso   1.000  Si
  H43      1.0000 0.59035  0.80912  0.65359  Biso   1.000  H
  C59      1.0000 0.37376  0.75442  0.44741  Biso   1.000  C
  C60      1.0000 0.47098  0.70680  0.39049  Biso   1.000  C
  C61      1.0000 0.43325  0.65999  0.50027  Biso   1.000  C
  C62      1.0000 0.82611  0.60700  0.99770  Biso   1.000  C
  C63      1.0000 0.94124  0.65131  0.12282  Biso   1.000  C
  C64      1.0000 0.93301  0.54501  0.10841  Biso   1.000  C
  C65      1.0000 0.00613  0.58609  0.80840  Biso   1.000  C
  C66      1.0000 0.04771  0.66209  0.85869  Biso   1.000  C
  Si8      1.0000 0.20719  0.57581  0.96157  Biso   1.000  Si
  H44      1.0000 0.12704  0.56741  0.02282  Biso   1.000  H
  C67      1.0000 0.86732  0.71409  0.64407  Biso   1.000  C
  C68      1.0000 0.99402  0.65352  0.73336  Biso   1.000  C
  C69      1.0000 0.02265  0.71992  0.63511  Biso   1.000  C
  C70      1.0000 0.84565  0.71259  0.69970  Biso   1.000  C
  H45      1.0000 0.76616  0.72899  0.73429  Biso   1.000  H
  C71      1.0000 0.81964  0.73742  0.58509  Biso   1.000  C
  H46      1.0000 0.72103  0.77110  0.53876  Biso   1.000  H
  C72      1.0000 0.64432  0.89981  0.72147  Biso   1.000  C
  C73      1.0000 0.76036  0.87630  0.66419  Biso   1.000  C
  C74      1.0000 0.76523  0.83220  0.79528  Biso   1.000  C
  H47      1.0000 0.38346  0.78341  0.42929  Biso   1.000  H
  H48      1.0000 0.36317  0.76089  0.48678  Biso   1.000  H
  H49      1.0000 0.33277  0.73909  0.41339  Biso   1.000  H
  H50      1.0000 0.42880  0.69261  0.35641  Biso   1.000  H
  H51      1.0000 0.51216  0.68631  0.40021  Biso   1.000  H
  H52      1.0000 0.48056  0.73639  0.37438  Biso   1.000  H
  H53      1.0000 0.39076  0.64662  0.46558  Biso   1.000  H
  H54      1.0000 0.42433  0.66451  0.54098  Biso   1.000  H
  H55      1.0000 0.47385  0.63912  0.50958  Biso   1.000  H
  H56      1.0000 0.81971  0.63631  0.97356  Biso   1.000  H
  H57      1.0000 0.81520  0.58139  0.96590  Biso   1.000  H
  H58      1.0000 0.79384  0.60590  0.02133  Biso   1.000  H
  H59      1.0000 0.98880  0.64762  0.15813  Biso   1.000  H
  H60      1.0000 0.90532  0.65121  0.14253  Biso   1.000  H
  H61      1.0000 0.93901  0.68069  0.09981  Biso   1.000  H
  H62      1.0000 0.92723  0.51912  0.07784  Biso   1.000  H
  H63      1.0000 0.89642  0.54319  0.12725  Biso   1.000  H
  H64      1.0000 0.98041  0.54359  0.14454  Biso   1.000  H
  C75      1.0000 0.98585  0.60341  0.74361  Biso   1.000  C
  H65      1.0000 0.99845  0.55330  0.81371  Biso   1.000  H
  C76      1.0000 0.02611  0.68030  0.79219  Biso   1.000  C
  H66      1.0000 0.06935  0.68240  0.89739  Biso   1.000  H
  C77      1.0000 0.25944  0.63271  0.98509  Biso   1.000  C
  C78      1.0000 0.19034  0.56329  0.87089  Biso   1.000  C
  C79      1.0000 0.26124  0.52712  0.01561  Biso   1.000  C
  C80      1.0000 0.00494  0.75961  0.59378  Biso   1.000  C
  C81      1.0000 0.09572  0.70929  0.66918  Biso   1.000  C
  H67      1.0000 0.87753  0.69851  0.74170  Biso   1.000  H
  H68      1.0000 0.83366  0.74069  0.54700  Biso   1.000  H
  H69      1.0000 0.67402  0.92521  0.74736  Biso   1.000  H
  H70      1.0000 0.61606  0.88719  0.74510  Biso   1.000  H
  H71      1.0000 0.61235  0.91119  0.67757  Biso   1.000  H
  H72      1.0000 0.79055  0.85162  0.65848  Biso   1.000  H
  H73      1.0000 0.79065  0.90141  0.69029  Biso   1.000  H
  H74      1.0000 0.72884  0.88800  0.62039  Biso   1.000  H
  H75      1.0000 0.79634  0.80770  0.79070  Biso   1.000  H
  H76      1.0000 0.73682  0.82000  0.81916  Biso   1.000  H
  H77      1.0000 0.79445  0.85799  0.82040  Biso   1.000  H
  H78      1.0000 0.96657  0.58271  0.70521  Biso   1.000  H
  H79      1.0000 0.03392  0.71320  0.78720  Biso   1.000  H
  H80      1.0000 0.30460  0.62951  0.97917  Biso   1.000  H
  H81      1.0000 0.23120  0.65750  0.95637  Biso   1.000  H
  H82      1.0000 0.26941  0.64011  0.03183  Biso   1.000  H
  H83      1.0000 0.16242  0.58851  0.84268  Biso   1.000  H
  H84      1.0000 0.16384  0.53430  0.85720  Biso   1.000  H
  H85      1.0000 0.23614  0.56069  0.86589  Biso   1.000  H
  H86      1.0000 0.23344  0.49860  0.00403  Biso   1.000  H
  H87      1.0000 0.27293  0.53452  0.06271  Biso   1.000  H
  H88      1.0000 0.30555  0.52321  0.00825  Biso   1.000  H
  H89      1.0000 0.95474  0.76822  0.56970  Biso   1.000  H
  C82      1.0000 0.06185  0.78789  0.58720  Biso   1.000  C
  C83      1.0000 0.15132  0.73749  0.66239  Biso   1.000  C
  H90      1.0000 0.10913  0.68211  0.69811  Biso   1.000  H
  C84      1.0000 0.13523  0.77722  0.62178  Biso   1.000  C
  H91      1.0000 0.04868  0.81492  0.55801  Biso   1.000  H
  H92      1.0000 0.20145  0.72892  0.68679  Biso   1.000  H
  C85      1.0000 0.19824  0.80851  0.61401  Biso   1.000  C
  C86      1.0000 0.23545  0.78031  0.57767  Biso   1.000  C
  C87      1.0000 0.18194  0.85400  0.59399  Biso   1.000  C
  C88      1.0000 0.23595  0.83530  0.67670  Biso   1.000  C
  C89      1.0000 0.29125  0.51172  0.41380  Biso   1.000  C
  C90      1.0000 0.24860  0.49419  0.34741  Biso   1.000  C
  C91      1.0000 0.25574  0.52819  0.45827  Biso   1.000  C
  H93      1.0000 0.34349  0.51271  0.42940  Biso   1.000  H
  Si9      1.0000 0.29077  0.46467  0.29301  Biso   1.000  Si
  C92      1.0000 0.17211  0.49440  0.32852  Biso   1.000  C
  C93      1.0000 0.18047  0.52641  0.43681  Biso   1.000  C
  H94      1.0000 0.28478  0.54031  0.50269  Biso   1.000  H
  C94      1.0000 0.33699  0.40861  0.33861  Biso   1.000  C
  C95      1.0000 0.21388  0.44550  0.21102  Biso   1.000  C
  C96      1.0000 0.35399  0.50471  0.27247  Biso   1.000  C
  C97      1.0000 0.13828  0.51062  0.37299  Biso   1.000  C
  H95      1.0000 0.14145  0.48320  0.28400  Biso   1.000  H
  C98      1.0000 0.14726  0.53889  0.48827  Biso   1.000  C
  C99      1.0000 0.37709  0.38069  0.31138  Biso   1.000  C
  C100     1.0000 0.32676  0.39222  0.39517  Biso   1.000  C
  C101     1.0000 0.17296  0.47790  0.16048  Biso   1.000  C
  C102     1.0000 0.18751  0.39780  0.20031  Biso   1.000  C
  C103     1.0000 0.36917  0.49639  0.21318  Biso   1.000  C
  C104     1.0000 0.38958  0.54462  0.31117  Biso   1.000  C
  H96      1.0000 0.08609  0.51030  0.35801  Biso   1.000  H
  C105     1.0000 0.14604  0.49892  0.53480  Biso   1.000  C
  C106     1.0000 0.11965  0.58121  0.49188  Biso   1.000  C
  C107     1.0000 0.40188  0.33581  0.33840  Biso   1.000  C
  H97      1.0000 0.38780  0.39229  0.27401  Biso   1.000  H
  C108     1.0000 0.35139  0.34701  0.42291  Biso   1.000  C
  H98      1.0000 0.30227  0.41189  0.41627  Biso   1.000  H
  C109     1.0000 0.10952  0.46591  0.10530  Biso   1.000  C
  H99      1.0000 0.18987  0.50991  0.16418  Biso   1.000  H
  C110     1.0000 0.12459  0.38610  0.14540  Biso   1.000  C
  H100     1.0000 0.21407  0.37369  0.23181  Biso   1.000  H
  C111     1.0000 0.41566  0.52680  0.19558  Biso   1.000  C
  H101     1.0000 0.34758  0.46979  0.18482  Biso   1.000  H
  C112     1.0000 0.43556  0.57339  0.29187  Biso   1.000  C
  H102     1.0000 0.38199  0.55209  0.35178  Biso   1.000  H
  C113     1.0000 0.12244  0.45079  0.49847  Biso   1.000  C
  C114     1.0000 0.16255  0.50361  0.60186  Biso   1.000  C
  Si10     1.0000 0.11455  0.63655  0.44051  Biso   1.000  Si
  H103     1.0000 0.09914  0.58410  0.52569  Biso   1.000  H
  C115     1.0000 0.38846  0.31781  0.39378  Biso   1.000  C
  H104     1.0000 0.42868  0.31700  0.31859  Biso   1.000  H
  H105     1.0000 0.34266  0.33631  0.46177  Biso   1.000  H
  C116     1.0000 0.08167  0.41911  0.09738  Biso   1.000  C
  H106     1.0000 0.08412  0.48949  0.07231  Biso   1.000  H
  H107     1.0000 0.10937  0.35381  0.13979  Biso   1.000  H
  C117     1.0000 0.44999  0.56549  0.23490  Biso   1.000  C
  H108     1.0000 0.42379  0.52029  0.15492  Biso   1.000  H
  H109     1.0000 0.45805  0.59989  0.32008  Biso   1.000  H
  C118     1.0000 0.05007  0.43860  0.46789  Biso   1.000  C
  C119     1.0000 0.17629  0.42120  0.49280  Biso   1.000  C
  Si11     1.0000 0.15854  0.46385  0.67011  Biso   1.000  Si
  H110     1.0000 0.18027  0.53452  0.61849  Biso   1.000  H
  C120     1.0000 0.07166  0.68329  0.47407  Biso   1.000  C
  C121     1.0000 0.05358  0.62770  0.34839  Biso   1.000  C
  C122     1.0000 0.20717  0.65540  0.44880  Biso   1.000  C
  C123     1.0000 0.40684  0.26621  0.41540  Biso   1.000  C
  C124     1.0000 0.01179  0.40602  0.04112  Biso   1.000  C
  C125     1.0000 0.50057  0.60070  0.21508  Biso   1.000  C
  C126     1.0000 0.02905  0.39802  0.42898  Biso   1.000  C
  H111     1.0000 0.01375  0.45841  0.47361  Biso   1.000  H
  C127     1.0000 0.15224  0.38030  0.45039  Biso   1.000  C
  H112     1.0000 0.22713  0.42810  0.51638  Biso   1.000  H
  C128     1.0000 0.07946  0.48369  0.68848  Biso   1.000  C
  C129     1.0000 0.15034  0.40100  0.64710  Biso   1.000  C
  C130     1.0000 0.24262  0.47028  0.74829  Biso   1.000  C
  H113     1.0000 0.10115  0.68880  0.52127  Biso   1.000  H
  H114     1.0000 0.06799  0.71181  0.44880  Biso   1.000  H
  H115     1.0000 0.02396  0.67329  0.46939  Biso   1.000  H
  H116     1.0000 0.04955  0.65668  0.32409  Biso   1.000  H
  H117     1.0000 0.07395  0.60391  0.32898  Biso   1.000  H
  H118     1.0000 0.00615  0.61799  0.34509  Biso   1.000  H
  H119     1.0000 0.23724  0.66042  0.49620  Biso   1.000  H
  H120     1.0000 0.22858  0.63150  0.43079  Biso   1.000  H
  H121     1.0000 0.20367  0.68421  0.42420  Biso   1.000  H
  C131     1.0000 0.34535  0.23360  0.37052  Biso   1.000  C
  C132     1.0000 0.46719  0.25131  0.46692  Biso   1.000  C
  C133     1.0000 0.94529  0.40659  0.06047  Biso   1.000  C
  C134     1.0000 0.00570  0.39581  0.97725  Biso   1.000  C
  C135     1.0000 0.49059  0.65082  0.22852  Biso   1.000  C
  C136     1.0000 0.58265  0.59772  0.28529  Biso   1.000  C
  C137     1.0000 0.52097  0.57880  0.15698  Biso   1.000  C
  C138     1.0000 0.56299  0.57449  0.21200  Biso   1.000  C
  C139     1.0000 0.45897  0.60341  0.12599  Biso   1.000  C
  C140     1.0000 0.08034  0.36832  0.41828  Biso   1.000  C
  H122     1.0000 0.97825  0.38991  0.40881  Biso   1.000  H
  H123     1.0000 0.18823  0.36049  0.44437  Biso   1.000  H
  H124     1.0000 0.08735  0.51549  0.70511  Biso   1.000  H
  H125     1.0000 0.03616  0.48241  0.64757  Biso   1.000  H
  H126     1.0000 0.07395  0.46360  0.72240  Biso   1.000  H
  H127     1.0000 0.14726  0.38269  0.68370  Biso   1.000  H
  H128     1.0000 0.10745  0.39609  0.60670  Biso   1.000  H
  H129     1.0000 0.19256  0.39129  0.63887  Biso   1.000  H
  H130     1.0000 0.23965  0.45079  0.78380  Biso   1.000  H
  H131     1.0000 0.28435  0.46090  0.73887  Biso   1.000  H
  H132     1.0000 0.24845  0.50261  0.76291  Biso   1.000  H
  C141     1.0000 0.27069  0.24750  0.36491  Biso   1.000  C
  C142     1.0000 0.35968  0.19469  0.34072  Biso   1.000  C
  Si12     1.0000 0.54635  0.28378  0.52878  Biso   1.000  Si
  H133     1.0000 0.47004  0.21770  0.47278  Biso   1.000  H
  C143     1.0000 0.96230  0.38639  0.13191  Biso   1.000  C
  C144     1.0000 0.87821  0.42149  0.02141  Biso   1.000  C
  H134     1.0000 0.95809  0.38610  0.94647  Biso   1.000  H
  Si13     1.0000 0.07697  0.39805  0.93927  Biso   1.000  Si
  Si14     1.0000 0.04916  0.31849  0.35338  Biso   1.000  Si
  C145     1.0000 0.22107  0.26898  0.30469  Biso   1.000  C
  C146     1.0000 0.24777  0.24409  0.41987  Biso   1.000  C
  Si15     1.0000 0.29588  0.14746  0.28981  Biso   1.000  Si
  H135     1.0000 0.40956  0.19092  0.34638  Biso   1.000  H
  C147     1.0000 0.62617  0.24562  0.55261  Biso   1.000  C
  C148     1.0000 0.52892  0.29320  0.60948  Biso   1.000  C
  C149     1.0000 0.56666  0.34001  0.49970  Biso   1.000  C
  C150     1.0000 0.99379  0.41391  0.19161  Biso   1.000  C
  C151     1.0000 0.95220  0.33791  0.14128  Biso   1.000  C
  H136     1.0000 0.87287  0.43259  0.97715  Biso   1.000  H
  Si16     1.0000 0.79271  0.42419  0.03839  Biso   1.000  Si
  C152     1.0000 0.17382  0.39300  0.00232  Biso   1.000  C
  C153     1.0000 0.05867  0.34869  0.87715  Biso   1.000  C
  C154     1.0000 0.06690  0.45499  0.89156  Biso   1.000  C
  C155     1.0000 0.13258  0.28591  0.35590  Biso   1.000  C
  C156     1.0000 0.00589  0.34652  0.26660  Biso   1.000  C
  C157     1.0000 0.97727  0.28012  0.36491  Biso   1.000  C
  C158     1.0000 0.15428  0.28741  0.30031  Biso   1.000  C
  H137     1.0000 0.23374  0.27101  0.26568  Biso   1.000  H
  C159     1.0000 0.18026  0.26262  0.41488  Biso   1.000  C
  H138     1.0000 0.27887  0.22890  0.46120  Biso   1.000  H
  C160     1.0000 0.35558  0.10019  0.27849  Biso   1.000  C
  C161     1.0000 0.23954  0.12370  0.33578  Biso   1.000  C
  C162     1.0000 0.23468  0.16780  0.20469  Biso   1.000  C
  H139     1.0000 0.61644  0.21659  0.57067  Biso   1.000  H
  H140     1.0000 0.63674  0.23911  0.51318  Biso   1.000  H
  H141     1.0000 0.66714  0.26091  0.58658  Biso   1.000  H
  H142     1.0000 0.57118  0.30739  0.64360  Biso   1.000  H
  H143     1.0000 0.48777  0.31369  0.59981  Biso   1.000  H
  H144     1.0000 0.51935  0.26361  0.62559  Biso   1.000  H
  H145     1.0000 0.60915  0.35342  0.53439  Biso   1.000  H
  H146     1.0000 0.57558  0.33549  0.45899  Biso   1.000  H
  H147     1.0000 0.52606  0.36088  0.49038  Biso   1.000  H
  C163     1.0000 0.01407  0.39659  0.25641  Biso   1.000  C
  H148     1.0000 0.00148  0.44670  0.18631  Biso   1.000  H
  C164     1.0000 0.97379  0.31970  0.20778  Biso   1.000  C
  H149     1.0000 0.93056  0.31760  0.10258  Biso   1.000  H
  C165     1.0000 0.73867  0.47292  0.98435  Biso   1.000  C
  C166     1.0000 0.74047  0.36729  0.01487  Biso   1.000  C
  C167     1.0000 0.80957  0.43671  0.12908  Biso   1.000  C
  H150     1.0000 0.18019  0.36369  0.02640  Biso   1.000  H
  H151     1.0000 0.18473  0.41861  0.03412  Biso   1.000  H
  H152     1.0000 0.20606  0.39410  0.97864  Biso   1.000  H
  H153     1.0000 0.01110  0.35238  0.84184  Biso   1.000  H
  H154     1.0000 0.09459  0.34879  0.85743  Biso   1.000  H
  H155     1.0000 0.06089  0.31931  0.90015  Biso   1.000  H
  H156     1.0000 0.07268  0.48092  0.92213  Biso   1.000  H
  H157     1.0000 0.10351  0.45681  0.87277  Biso   1.000  H
  H158     1.0000 0.01950  0.45641  0.85543  Biso   1.000  H
  C168     1.0000 0.99496  0.24039  0.40618  Biso   1.000  C
  C169     1.0000 0.90418  0.29071  0.33078  Biso   1.000  C
  H159     1.0000 0.12239  0.30149  0.25832  Biso   1.000  H
  H160     1.0000 0.16625  0.25931  0.45297  Biso   1.000  H
  H161     1.0000 0.32589  0.07479  0.25260  Biso   1.000  H
  H162     1.0000 0.38391  0.11281  0.25492  Biso   1.000  H
  H163     1.0000 0.38755  0.08881  0.32239  Biso   1.000  H
  H164     1.0000 0.20936  0.14842  0.34149  Biso   1.000  H
  H165     1.0000 0.20926  0.09859  0.30968  Biso   1.000  H
  H166     1.0000 0.27107  0.11200  0.37957  Biso   1.000  H
  H167     1.0000 0.20359  0.19230  0.20932  Biso   1.000  H
  H168     1.0000 0.26308  0.18000  0.18081  Biso   1.000  H
  H169     1.0000 0.20546  0.14201  0.17957  Biso   1.000  H
  H170     1.0000 0.03340  0.41729  0.29481  Biso   1.000  H
  H171     1.0000 0.96600  0.28680  0.21282  Biso   1.000  H
  H172     1.0000 0.76647  0.50140  0.99593  Biso   1.000  H
  H173     1.0000 0.72698  0.46552  0.93726  Biso   1.000  H
  H174     1.0000 0.69438  0.47679  0.99177  Biso   1.000  H
  H175     1.0000 0.73050  0.35989  0.96814  Biso   1.000  H
  H176     1.0000 0.69531  0.37049  0.02079  Biso   1.000  H
  H177     1.0000 0.76870  0.34250  0.04359  Biso   1.000  H
  H178     1.0000 0.83749  0.41149  0.15729  Biso   1.000  H
  H179     1.0000 0.83606  0.46570  0.14277  Biso   1.000  H
  H180     1.0000 0.76377  0.43931  0.13407  Biso   1.000  H
  H181     1.0000 0.04516  0.23182  0.43027  Biso   1.000  H
  C170     1.0000 0.93806  0.21211  0.41277  Biso   1.000  C
  C171     1.0000 0.84858  0.26251  0.33758  Biso   1.000  C
  H182     1.0000 0.89079  0.31789  0.30191  Biso   1.000  H
  C172     1.0000 0.86467  0.22278  0.37819  Biso   1.000  C
  H183     1.0000 0.95129  0.18508  0.44201  Biso   1.000  H
  H184     1.0000 0.79846  0.27112  0.31318  Biso   1.000  H
  C173     1.0000 0.80169  0.19149  0.38601  Biso   1.000  C
  C174     1.0000 0.76445  0.21969  0.42229  Biso   1.000  C
  C175     1.0000 0.81797  0.14600  0.40598  Biso   1.000  C
  C176     1.0000 0.76396  0.16470  0.32327  Biso   1.000  C
  C177     1.0000 0.73467  0.33222  0.70470  Biso   1.000  C
  Si17     1.0000 0.79585  0.35256  0.78977  Biso   1.000  Si
  H185     1.0000 0.70356  0.30771  0.70928  Biso   1.000  H
  H186     1.0000 0.76305  0.31998  0.68076  Biso   1.000  H
  H187     1.0000 0.70545  0.35800  0.67958  Biso   1.000  H
  C178     1.0000 0.85964  0.30530  0.84067  Biso   1.000  C
  C179     1.0000 0.85552  0.39979  0.77850  Biso   1.000  C
  C180     1.0000 0.73953  0.37628  0.83578  Biso   1.000  C
  C181     1.0000 0.84532  0.26639  0.87047  Biso   1.000  C
  H188     1.0000 0.90955  0.30910  0.84639  Biso   1.000  H
  H189     1.0000 0.82581  0.42519  0.75256  Biso   1.000  H
  H190     1.0000 0.88383  0.38720  0.75488  Biso   1.000  H
  H191     1.0000 0.88754  0.41121  0.82240  Biso   1.000  H
  H192     1.0000 0.70935  0.35160  0.84150  Biso   1.000  H
  H193     1.0000 0.70924  0.40139  0.80969  Biso   1.000  H
  H194     1.0000 0.77100  0.38799  0.87958  Biso   1.000  H
  C182     1.0000 0.90683  0.23381  0.91541  Biso   1.000  C
  C183     1.0000 0.77061  0.25252  0.86486  Biso   1.000  C
  C184     1.0000 0.88845  0.18220  0.89379  Biso   1.000  C
  C185     1.0000 0.96711  0.24871  0.96687  Biso   1.000  C
  C186     1.0000 0.72101  0.23100  0.80470  Biso   1.000  C
  C187     1.0000 0.74771  0.25590  0.91988  Biso   1.000  C
  C188     1.0000 0.90179  0.16421  0.83836  Biso   1.000  C
  C189     1.0000 0.85131  0.15300  0.92287  Biso   1.000  C
  H195     1.0000 0.97003  0.28228  0.97279  Biso   1.000  H
  Si18     1.0000 0.04641  0.21620  0.02884  Biso   1.000  Si
  C190     1.0000 0.65425  0.21261  0.80027  Biso   1.000  C
  H196     1.0000 0.73373  0.22901  0.76569  Biso   1.000  H
  C191     1.0000 0.68020  0.23740  0.91489  Biso   1.000  C
  H197     1.0000 0.77879  0.27112  0.96116  Biso   1.000  H
  C192     1.0000 0.87702  0.11929  0.81139  Biso   1.000  C
  H198     1.0000 0.92861  0.18299  0.81859  Biso   1.000  H
  C193     1.0000 0.82674  0.10780  0.89518  Biso   1.000  C
  H199     1.0000 0.84260  0.16371  0.96178  Biso   1.000  H
  C194     1.0000 0.06663  0.16001  0.99966  Biso   1.000  C
  C195     1.0000 0.12621  0.25440  0.05262  Biso   1.000  C
  C196     1.0000 0.02904  0.20681  0.10954  Biso   1.000  C
  C197     1.0000 0.63250  0.21411  0.85586  Biso   1.000  C
  H200     1.0000 0.62231  0.19849  0.75827  Biso   1.000  H
  H201     1.0000 0.66623  0.24071  0.95298  Biso   1.000  H
  C198     1.0000 0.83691  0.09140  0.83856  Biso   1.000  C
  H202     1.0000 0.88772  0.10769  0.77397  Biso   1.000  H
  H203     1.0000 0.80221  0.08810  0.91628  Biso   1.000  H
  H204     1.0000 0.07552  0.16449  0.95900  Biso   1.000  H
  H205     1.0000 0.02600  0.13910  0.99039  Biso   1.000  H
  H206     1.0000 0.10926  0.14660  0.03445  Biso   1.000  H
  H207     1.0000 0.11655  0.28339  0.07074  Biso   1.000  H
  H208     1.0000 0.13685  0.26091  0.01325  Biso   1.000  H
  H209     1.0000 0.16725  0.23911  0.08664  Biso   1.000  H
  H210     1.0000 0.98781  0.18629  0.09981  Biso   1.000  H
  H211     1.0000 0.07122  0.19259  0.14361  Biso   1.000  H
  H212     1.0000 0.01946  0.23641  0.12565  Biso   1.000  H
  Si19     1.0000 0.54915  0.18153  0.85339  Biso   1.000  Si
  Si20     1.0000 0.79074  0.03532  0.79296  Biso   1.000  Si
  C199     1.0000 0.50581  0.15350  0.76656  Biso   1.000  C
  C200     1.0000 0.58033  0.13170  0.91829  Biso   1.000  C
  C201     1.0000 0.47724  0.21990  0.86486  Biso   1.000  C
  C202     1.0000 0.71385  0.05449  0.71098  Biso   1.000  C
  C203     1.0000 0.74851  0.00580  0.84737  Biso   1.000  C
  C204     1.0000 0.85393  0.99531  0.77248  Biso   1.000  C
  C205     1.0000 0.51404  0.10339  0.75637  Biso   1.000  C
  C206     1.0000 0.47373  0.18032  0.70778  Biso   1.000  C
  C207     1.0000 0.52904  0.10200  0.92899  Biso   1.000  C
  C208     1.0000 0.65223  0.11971  0.95040  Biso   1.000  C
  C209     1.0000 0.49495  0.25959  0.90619  Biso   1.000  C
  C210     1.0000 0.40412  0.20930  0.83079  Biso   1.000  C
  C211     1.0000 0.67295  0.02209  0.66049  Biso   1.000  C
  C212     1.0000 0.68743  0.10222  0.70027  Biso   1.000  C
  C213     1.0000 0.67202  0.00558  0.82848  Biso   1.000  C
  C214     1.0000 0.79121  0.98830  0.91376  Biso   1.000  C
  C215     1.0000 0.86916  0.00359  0.71319  Biso   1.000  C
  C216     1.0000 0.88952  0.95540  0.81118  Biso   1.000  C
  C217     1.0000 0.49371  0.08610  0.69157  Biso   1.000  C
  H213     1.0000 0.53332  0.08269  0.79477  Biso   1.000  H
  C218     1.0000 0.45214  0.16211  0.64129  Biso   1.000  C
  H214     1.0000 0.46592  0.21322  0.71278  Biso   1.000  H
  C219     1.0000 0.55001  0.06139  0.96790  Biso   1.000  C
  H215     1.0000 0.47822  0.11011  0.90877  Biso   1.000  H
  C220     1.0000 0.67620  0.07881  0.99276  Biso   1.000  C
  H216     1.0000 0.68822  0.13949  0.94438  Biso   1.000  H
  C221     1.0000 0.43805  0.28790  0.91278  Biso   1.000  C
  H217     1.0000 0.54510  0.26820  0.93028  Biso   1.000  H
  C222     1.0000 0.34852  0.23751  0.83759  Biso   1.000  C
  H218     1.0000 0.39071  0.18210  0.80187  Biso   1.000  H
  C223     1.0000 0.60946  0.03411  0.60531  Biso   1.000  C
  H219     1.0000 0.68986  0.99011  0.66419  Biso   1.000  H
  C224     1.0000 0.62457  0.11392  0.64541  Biso   1.000  C
  H220     1.0000 0.71404  0.12629  0.73177  Biso   1.000  H
  H221     1.0000 0.64144  0.01679  0.78401  Biso   1.000  H
  C225     1.0000 0.63821  0.98940  0.87300  Biso   1.000  C
  C226     1.0000 0.75573  0.97180  0.95828  Biso   1.000  C
  H222     1.0000 0.84343  0.98730  0.92940  Biso   1.000  H
  H223     1.0000 0.84755  0.03020  0.68478  Biso   1.000  H
  C227     1.0000 0.91565  0.97318  0.69559  Biso   1.000  C
  C228     1.0000 0.93555  0.92659  0.79188  Biso   1.000  C
  H224     1.0000 0.88192  0.94790  0.85179  Biso   1.000  H
  C229     1.0000 0.46221  0.11360  0.63187  Biso   1.000  C
  H225     1.0000 0.50145  0.05331  0.68627  Biso   1.000  H
  H226     1.0000 0.43055  0.18242  0.60258  Biso   1.000  H
  C230     1.0000 0.62243  0.04919  0.99847  Biso   1.000  C
  H227     1.0000 0.51372  0.04161  0.97356  Biso   1.000  H
  H228     1.0000 0.72724  0.07191  0.01644  Biso   1.000  H
  C231     1.0000 0.36461  0.27720  0.87819  Biso   1.000  C
  H229     1.0000 0.45121  0.31490  0.94196  Biso   1.000  H
  H230     1.0000 0.29845  0.22890  0.81319  Biso   1.000  H
  C232     1.0000 0.58166  0.08091  0.59739  Biso   1.000  C
  H231     1.0000 0.58404  0.01049  0.57227  Biso   1.000  H
  H232     1.0000 0.60936  0.14621  0.63980  Biso   1.000  H
  C233     1.0000 0.68043  0.97361  0.93676  Biso   1.000  C
  H233     1.0000 0.58601  0.98969  0.85797  Biso   1.000  H
  H234     1.0000 0.78484  0.95970  0.00275  Biso   1.000  H
  C234     1.0000 0.94992  0.93449  0.73491  Biso   1.000  C
  H235     1.0000 0.92376  0.97969  0.65488  Biso   1.000  H
  H236     1.0000 0.95804  0.90010  0.82009  Biso   1.000  H
  C235     1.0000 0.44523  0.09340  0.56048  Biso   1.000  C
  C236     1.0000 0.64613  0.00110  0.03481  Biso   1.000  C
  C237     1.0000 0.30161  0.30850  0.88597  Biso   1.000  C
  C238     1.0000 0.51176  0.09400  0.54108  Biso   1.000  C
  C239     1.0000 0.64720  0.96109  0.98828  Biso   1.000  C
  C240     1.0000 0.00056  0.89931  0.71509  Biso   1.000  C
  C241     1.0000 0.37812  0.07849  0.52137  Biso   1.000  C
  C242     1.0000 0.66261  0.99641  0.10192  Biso   1.000  C
  C243     1.0000 0.26444  0.28029  0.92230  Biso   1.000  C
  C244     1.0000 0.31790  0.35399  0.90599  Biso   1.000  C
  C245     1.0000 0.26395  0.33531  0.82328  Biso   1.000  C
  C246     1.0000 0.50576  0.10421  0.47731  Biso   1.000  C
  C247     1.0000 0.61964  0.91880  0.99189  Biso   1.000  C
  C248     1.0000 0.99051  0.84920  0.72847  Biso   1.000  C
  C249     1.0000 0.95896  0.89661  0.62600  Biso   1.000  C
  C250     1.0000 0.08263  0.90230  0.78529  Biso   1.000  C
  C251     1.0000 0.02095  0.92119  0.65699  Biso   1.000  C
  C252     1.0000 0.06293  0.92549  0.71200  Biso   1.000  C
  Si21     1.0000 0.29265  0.07583  0.53840  Biso   1.000  Si
  H237     1.0000 0.37298  0.06740  0.47721  Biso   1.000  H
  H238     1.0000 0.68033  0.96550  0.11855  Biso   1.000  H
  Si22     1.0000 0.65863  0.03613  0.17012  Biso   1.000  Si
  Si23     1.0000 0.57706  0.10197  0.43928  Biso   1.000  Si
  H239     1.0000 0.45818  0.11392  0.44648  Biso   1.000  H
  Si24     1.0000 0.61452  0.86343  0.94047  Biso   1.000  Si
  H240     1.0000 0.59925  0.91589  0.02575  Biso   1.000  H
  C253     1.0000 0.23878  0.02710  0.48441  Biso   1.000  C
  C254     1.0000 0.24046  0.13270  0.51488  Biso   1.000  C
  C255     1.0000 0.30956  0.06331  0.62909  Biso   1.000  C
  C256     1.0000 0.57952  0.01629  0.18854  Biso   1.000  C
  C257     1.0000 0.65043  0.09901  0.14711  Biso   1.000  C
  C258     1.0000 0.74273  0.02970  0.24835  Biso   1.000  C
  C259     1.0000 0.55878  0.15130  0.37721  Biso   1.000  C
  C260     1.0000 0.56694  0.04499  0.39157  Biso   1.000  C
  C261     1.0000 0.67374  0.10702  0.50227  Biso   1.000  C
  C262     1.0000 0.57160  0.81669  0.97408  Biso   1.000  C
  C263     1.0000 0.55352  0.87228  0.84839  Biso   1.000  C
  C264     1.0000 0.70713  0.84461  0.94876  Biso   1.000  C
  H241     1.0000 0.22707  0.03450  0.43727  Biso   1.000  H
  H242     1.0000 0.19447  0.02319  0.49177  Biso   1.000  H
  H243     1.0000 0.26658  0.99861  0.49599  Biso   1.000  H
  H244     1.0000 0.19524  0.12949  0.52080  Biso   1.000  H
  H245     1.0000 0.23056  0.14009  0.46820  Biso   1.000  H
  H246     1.0000 0.26864  0.15748  0.54360  Biso   1.000  H
  H247     1.0000 0.33743  0.08849  0.65729  Biso   1.000  H
  H248     1.0000 0.33605  0.03429  0.64278  Biso   1.000  H
  H249     1.0000 0.26375  0.06071  0.63408  Biso   1.000  H
  H250     1.0000 0.58744  0.98449  0.20512  Biso   1.000  H
  H251     1.0000 0.53622  0.01761  0.14763  Biso   1.000  H
  H252     1.0000 0.57399  0.03638  0.22241  Biso   1.000  H
  H253     1.0000 0.64730  0.11730  0.18371  Biso   1.000  H
  H254     1.0000 0.60754  0.10389  0.10671  Biso   1.000  H
  H255     1.0000 0.69262  0.10869  0.13893  Biso   1.000  H
  H256     1.0000 0.74849  0.99740  0.26292  Biso   1.000  H
  H257     1.0000 0.73969  0.04919  0.28381  Biso   1.000  H
  H258     1.0000 0.78441  0.03909  0.23893  Biso   1.000  H
  H259     1.0000 0.51116  0.14760  0.34190  Biso   1.000  H
  H260     1.0000 0.59465  0.15119  0.35749  Biso   1.000  H
  H261     1.0000 0.56095  0.18071  0.40021  Biso   1.000  H
  H262     1.0000 0.57274  0.01910  0.42219  Biso   1.000  H
  H263     1.0000 0.60355  0.04321  0.37278  Biso   1.000  H
  H264     1.0000 0.51956  0.04360  0.35549  Biso   1.000  H
  H265     1.0000 0.68018  0.13629  0.52641  Biso   1.000  H
  H266     1.0000 0.70617  0.10591  0.47870  Biso   1.000  H
  H267     1.0000 0.68464  0.08141  0.53408  Biso   1.000  H
  H268     1.0000 0.56791  0.78821  0.94876  Biso   1.000  H
  H269     1.0000 0.52390  0.82669  0.96940  Biso   1.000  H
  H270     1.0000 0.60126  0.81118  0.02133  Biso   1.000  H
  H271     1.0000 0.54954  0.84330  0.82410  Biso   1.000  H
  H272     1.0000 0.57394  0.89611  0.82899  Biso   1.000  H
  H273     1.0000 0.50614  0.88199  0.84510  Biso   1.000  H
  H274     1.0000 0.73721  0.83960  0.99616  Biso   1.000  H
  H275     1.0000 0.72852  0.86851  0.93079  Biso   1.000  H
  H276     1.0000 0.70361  0.81581  0.92421  Biso   1.000  H
  C265     1.0000 0.26529  0.66782  0.29527  Biso   1.000  C
  Si25     1.0000 0.20411  0.64744  0.21019  Biso   1.000  Si
  H277     1.0000 0.29635  0.69229  0.29069  Biso   1.000  H
  H278     1.0000 0.23685  0.68002  0.31920  Biso   1.000  H
  H279     1.0000 0.29446  0.64200  0.32039  Biso   1.000  H
  C266     1.0000 0.14440  0.60021  0.22152  Biso   1.000  C
  C267     1.0000 0.14026  0.69470  0.15929  Biso   1.000  C
  C268     1.0000 0.26037  0.62372  0.16418  Biso   1.000  C
  H280     1.0000 0.17410  0.57481  0.24741  Biso   1.000  H
  H281     1.0000 0.11608  0.61280  0.24509  Biso   1.000  H
  H282     1.0000 0.11238  0.58879  0.17762  Biso   1.000  H
  C269     1.0000 0.15459  0.73361  0.12949  Biso   1.000  C
  H283     1.0000 0.09036  0.69090  0.15358  Biso   1.000  H
  H284     1.0000 0.29058  0.64840  0.15852  Biso   1.000  H
  H285     1.0000 0.29066  0.59861  0.19028  Biso   1.000  H
  H286     1.0000 0.22890  0.61201  0.12038  Biso   1.000  H
  C270     1.0000 0.09309  0.76619  0.08461  Biso   1.000  C
  C271     1.0000 0.22930  0.74752  0.13510  Biso   1.000  C
  C272     1.0000 0.11151  0.81780  0.10618  Biso   1.000  C
  C273     1.0000 0.03280  0.75129  0.03309  Biso   1.000  C
  C274     1.0000 0.27891  0.76900  0.19532  Biso   1.000  C
  C275     1.0000 0.25220  0.74410  0.08008  Biso   1.000  C
  C276     1.0000 0.09811  0.83579  0.16161  Biso   1.000  C
  C277     1.0000 0.14860  0.84700  0.07710  Biso   1.000  C
  H287     1.0000 0.02988  0.71772  0.02717  Biso   1.000  H
  Si26     1.0000 0.95349  0.78380  0.97113  Biso   1.000  Si
  C278     1.0000 0.34566  0.78739  0.19969  Biso   1.000  C
  H288     1.0000 0.26617  0.77099  0.23428  Biso   1.000  H
  C279     1.0000 0.31970  0.76260  0.08508  Biso   1.000  C
  H289     1.0000 0.22111  0.72892  0.03881  Biso   1.000  H
  C280     1.0000 0.12288  0.88071  0.18858  Biso   1.000  C
  H290     1.0000 0.07129  0.81701  0.18137  Biso   1.000  H
  C281     1.0000 0.17321  0.89220  0.10479  Biso   1.000  C
  H291     1.0000 0.15731  0.83629  0.03819  Biso   1.000  H
  C282     1.0000 0.87370  0.74560  0.94735  Biso   1.000  C
  C283     1.0000 0.97087  0.79319  0.89043  Biso   1.000  C
  C284     1.0000 0.93328  0.83999  0.00031  Biso   1.000  C
  C285     1.0000 0.36741  0.78589  0.14411  Biso   1.000  C
  H292     1.0000 0.37760  0.80151  0.24169  Biso   1.000  H
  H293     1.0000 0.33367  0.75929  0.04699  Biso   1.000  H
  C286     1.0000 0.16300  0.90860  0.16140  Biso   1.000  C
  H294     1.0000 0.11218  0.89231  0.22599  Biso   1.000  H
  H295     1.0000 0.19770  0.91190  0.08369  Biso   1.000  H
  H296     1.0000 0.88335  0.71661  0.92923  Biso   1.000  H
  H297     1.0000 0.86308  0.73909  0.98677  Biso   1.000  H
  H298     1.0000 0.83266  0.76089  0.91333  Biso   1.000  H
  H299     1.0000 0.92869  0.80741  0.85635  Biso   1.000  H
  H300     1.0000 0.98052  0.76359  0.87437  Biso   1.000  H
  H301     1.0000 0.01210  0.81371  0.90015  Biso   1.000  H
  H302     1.0000 0.89067  0.85340  0.96557  Biso   1.000  H
  H303     1.0000 0.92441  0.83551  0.04102  Biso   1.000  H
  H304     1.0000 0.97393  0.86090  0.00962  Biso   1.000  H
  Si27     1.0000 0.45080  0.81847  0.14658  Biso   1.000  Si
  Si28     1.0000 0.20917  0.96468  0.20700  Biso   1.000  Si
  C287     1.0000 0.49410  0.84650  0.23341  Biso   1.000  C
  C288     1.0000 0.41958  0.86830  0.08168  Biso   1.000  C
  C289     1.0000 0.52266  0.78010  0.13510  Biso   1.000  C
  C290     1.0000 0.28606  0.94551  0.28899  Biso   1.000  C
  C291     1.0000 0.25139  0.99420  0.15260  Biso   1.000  C
  C292     1.0000 0.14598  0.00469  0.22749  Biso   1.000  C
  C293     1.0000 0.48586  0.89661  0.24360  Biso   1.000  C
  C294     1.0000 0.52617  0.81972  0.29218  Biso   1.000  C
  C295     1.0000 0.47086  0.89800  0.07097  Biso   1.000  C
  C296     1.0000 0.34770  0.88029  0.04961  Biso   1.000  C
  C297     1.0000 0.50500  0.74041  0.09377  Biso   1.000  C
  C298     1.0000 0.59578  0.79070  0.16917  Biso   1.000  C
  C299     1.0000 0.32696  0.97791  0.33948  Biso   1.000  C
  C300     1.0000 0.31247  0.89782  0.29970  Biso   1.000  C
  C301     1.0000 0.32788  0.99442  0.17149  Biso   1.000  C
  C302     1.0000 0.20869  0.01170  0.08621  Biso   1.000  C
  C303     1.0000 0.13079  0.99641  0.28678  Biso   1.000  C
  C304     1.0000 0.11039  0.04460  0.18878  Biso   1.000  C
  C305     1.0000 0.50619  0.91390  0.30839  Biso   1.000  C
  H305     1.0000 0.46658  0.91731  0.20520  Biso   1.000  H
  C306     1.0000 0.54777  0.83789  0.35868  Biso   1.000  C
  H306     1.0000 0.53399  0.78682  0.28719  Biso   1.000  H
  C307     1.0000 0.44992  0.93861  0.03212  Biso   1.000  C
  H307     1.0000 0.52168  0.88989  0.09120  Biso   1.000  H
  C308     1.0000 0.32370  0.92119  0.00721  Biso   1.000  C
  H308     1.0000 0.31169  0.86051  0.05559  Biso   1.000  H
  C309     1.0000 0.56191  0.71210  0.08719  Biso   1.000  C
  H309     1.0000 0.45481  0.73180  0.06969  Biso   1.000  H
  C310     1.0000 0.65139  0.76249  0.16238  Biso   1.000  C
  H310     1.0000 0.60919  0.81790  0.19810  Biso   1.000  H
  C311     1.0000 0.39047  0.96589  0.39471  Biso   1.000  C
  H311     1.0000 0.31004  0.00989  0.33578  Biso   1.000  H
  C312     1.0000 0.37535  0.88612  0.35461  Biso   1.000  C
  H312     1.0000 0.28587  0.87371  0.26820  Biso   1.000  H
  H313     1.0000 0.35848  0.98321  0.21601  Biso   1.000  H
  C313     1.0000 0.36171  0.01060  0.12702  Biso   1.000  C
  C314     1.0000 0.24418  0.02820  0.04169  Biso   1.000  C
  H314     1.0000 0.15650  0.01270  0.07061  Biso   1.000  H
  H315     1.0000 0.15236  0.96980  0.31519  Biso   1.000  H
  C315     1.0000 0.08425  0.02682  0.30438  Biso   1.000  C
  C316     1.0000 0.06436  0.07341  0.20808  Biso   1.000  C
  H316     1.0000 0.11798  0.05210  0.14818  Biso   1.000  H
  C317     1.0000 0.53769  0.88640  0.36810  Biso   1.000  C
  H317     1.0000 0.49846  0.94669  0.31370  Biso   1.000  H
  H318     1.0000 0.56936  0.81762  0.39738  Biso   1.000  H
  C318     1.0000 0.37747  0.95081  0.00149  Biso   1.000  C
  H319     1.0000 0.48619  0.95839  0.02640  Biso   1.000  H
  H320     1.0000 0.27266  0.92809  0.98353  Biso   1.000  H
  C319     1.0000 0.63529  0.72280  0.12177  Biso   1.000  C
  H321     1.0000 0.54869  0.68510  0.05800  Biso   1.000  H
  H322     1.0000 0.70146  0.77110  0.18678  Biso   1.000  H
  C320     1.0000 0.41825  0.91909  0.40258  Biso   1.000  C
  H323     1.0000 0.41587  0.98951  0.42770  Biso   1.000  H
  H324     1.0000 0.39055  0.85379  0.36017  Biso   1.000  H
  C321     1.0000 0.31947  0.02639  0.06320  Biso   1.000  C
  H325     1.0000 0.41390  0.01031  0.14200  Biso   1.000  H
  H326     1.0000 0.21508  0.04030  0.99727  Biso   1.000  H
  C322     1.0000 0.05000  0.06551  0.26511  Biso   1.000  C
  H327     1.0000 0.07615  0.02031  0.34509  Biso   1.000  H
  H328     1.0000 0.04186  0.09990  0.17988  Biso   1.000  H
  C323     1.0000 0.55468  0.90660  0.43948  Biso   1.000  C
  C324     1.0000 0.35377  0.99890  0.96516  Biso   1.000  C
  C325     1.0000 0.69830  0.69150  0.11400  Biso   1.000  C
  C326     1.0000 0.48814  0.90600  0.45889  Biso   1.000  C
  C327     1.0000 0.35270  0.03891  0.01168  Biso   1.000  C
  C328     1.0000 0.99934  0.10069  0.28487  Biso   1.000  C
  C329     1.0000 0.62178  0.92151  0.47860  Biso   1.000  C
  C330     1.0000 0.33730  0.00359  0.89804  Biso   1.000  C
  C331     1.0000 0.73549  0.71971  0.07772  Biso   1.000  C
  C332     1.0000 0.68200  0.64601  0.09398  Biso   1.000  C
  C333     1.0000 0.73596  0.66469  0.17669  Biso   1.000  C
  C334     1.0000 0.49417  0.89579  0.52271  Biso   1.000  C
  C335     1.0000 0.38027  0.08120  0.00808  Biso   1.000  C
  C336     1.0000 0.91727  0.09770  0.21467  Biso   1.000  C
  C337     1.0000 0.97895  0.07881  0.34298  Biso   1.000  C
  C338     1.0000 0.93700  0.07451  0.28801  Biso   1.000  C
  C339     1.0000 0.00940  0.15080  0.27149  Biso   1.000  C
  C340     1.0000 0.04097  0.10339  0.37402  Biso   1.000  C
  Si29     1.0000 0.70728  0.92417  0.46161  Biso   1.000  Si
  H329     1.0000 0.62695  0.93260  0.52281  Biso   1.000  H
  Si30     1.0000 0.34127  0.96387  0.82985  Biso   1.000  Si
  H330     1.0000 0.31960  0.03450  0.88147  Biso   1.000  H
  Si31     1.0000 0.42284  0.89807  0.56069  Biso   1.000  Si
  H331     1.0000 0.54173  0.88612  0.55348  Biso   1.000  H
  H332     1.0000 0.40068  0.08411  0.97427  Biso   1.000  H
  Si32     1.0000 0.38539  0.13657  0.05950  Biso   1.000  Si
  C341     1.0000 0.76115  0.97290  0.51560  Biso   1.000  C
  C342     1.0000 0.75945  0.86730  0.48508  Biso   1.000  C
  C343     1.0000 0.69035  0.93669  0.37088  Biso   1.000  C
  C344     1.0000 0.42040  0.98371  0.81147  Biso   1.000  C
  C345     1.0000 0.34948  0.90102  0.85285  Biso   1.000  C
  C346     1.0000 0.25719  0.97030  0.75167  Biso   1.000  C
  C347     1.0000 0.44115  0.84870  0.62281  Biso   1.000  C
  C348     1.0000 0.43297  0.95501  0.60840  Biso   1.000  C
  C349     1.0000 0.32617  0.89302  0.49769  Biso   1.000  C
  C350     1.0000 0.42831  0.18331  0.02589  Biso   1.000  C
  C351     1.0000 0.44639  0.12772  0.15157  Biso   1.000  C
  C352     1.0000 0.29282  0.15539  0.05121  Biso   1.000  C
  H333     1.0000 0.77284  0.96550  0.56270  Biso   1.000  H
  H334     1.0000 0.80543  0.97681  0.50819  Biso   1.000  H
  H335     1.0000 0.73333  0.00139  0.50397  Biso   1.000  H
  H336     1.0000 0.80466  0.87051  0.47916  Biso   1.000  H
  H337     1.0000 0.76935  0.85991  0.53176  Biso   1.000  H
  H338     1.0000 0.73128  0.84252  0.45642  Biso   1.000  H
  H339     1.0000 0.66248  0.91151  0.34267  Biso   1.000  H
  H340     1.0000 0.66386  0.96571  0.35719  Biso   1.000  H
  H341     1.0000 0.73615  0.93929  0.36588  Biso   1.000  H
  H342     1.0000 0.46369  0.98239  0.85234  Biso   1.000  H
  H343     1.0000 0.42591  0.96362  0.77756  Biso   1.000  H
  H344     1.0000 0.41247  0.01551  0.79485  Biso   1.000  H
  H345     1.0000 0.35261  0.88270  0.81626  Biso   1.000  H
  H346     1.0000 0.39237  0.89611  0.89326  Biso   1.000  H
  H347     1.0000 0.30729  0.89131  0.86104  Biso   1.000  H
  H348     1.0000 0.26021  0.95081  0.71616  Biso   1.000  H
  H349     1.0000 0.21550  0.96091  0.76104  Biso   1.000  H
  H350     1.0000 0.25141  0.00260  0.73705  Biso   1.000  H
  H351     1.0000 0.48874  0.85240  0.65807  Biso   1.000  H
  H352     1.0000 0.40526  0.84881  0.64247  Biso   1.000  H
  H353     1.0000 0.43898  0.81929  0.59981  Biso   1.000  H
  H354     1.0000 0.42717  0.98090  0.57778  Biso   1.000  H
  H355     1.0000 0.39636  0.95679  0.62719  Biso   1.000  H
  H356     1.0000 0.48035  0.95640  0.64448  Biso   1.000  H
  H357     1.0000 0.31974  0.86371  0.47361  Biso   1.000  H
  H358     1.0000 0.29373  0.89409  0.52127  Biso   1.000  H
  H359     1.0000 0.31526  0.91859  0.46589  Biso   1.000  H
  H360     1.0000 0.39870  0.18882  0.97864  Biso   1.000  H
  H361     1.0000 0.43200  0.21179  0.05121  Biso   1.000  H
  H362     1.0000 0.47603  0.17331  0.03062  Biso   1.000  H
  H363     1.0000 0.45039  0.15670  0.17592  Biso   1.000  H
  H364     1.0000 0.42596  0.10389  0.17098  Biso   1.000  H
  H365     1.0000 0.49379  0.11801  0.15492  Biso   1.000  H
  H366     1.0000 0.26269  0.16040  0.00381  Biso   1.000  H
  H367     1.0000 0.27141  0.13149  0.06922  Biso   1.000  H
  H368     1.0000 0.29632  0.18419  0.07581  Biso   1.000  H
