data_image0
_cell_length_a       30.587
_cell_length_b       30.587
_cell_length_c       21.553
_cell_angle_alpha    90
_cell_angle_beta     90
_cell_angle_gamma    120

_symmetry_space_group_name_H-M    "P 1"
_symmetry_int_tables_number       1

loop_
  _symmetry_equiv_pos_as_xyz
  'x, y, z'

loop_
  _atom_site_label
  _atom_site_occupancy
  _atom_site_fract_x
  _atom_site_fract_y
  _atom_site_fract_z
  _atom_site_thermal_displace_type
  _atom_site_B_iso_or_equiv
  _atom_site_type_symbol
  C1       1.0000 0.45399  0.45758  0.41451  Biso   1.000  C
  C2       1.0000 0.47330  0.42482  0.42941  Biso   1.000  C
  C3       1.0000 0.45489  0.47038  0.35369  Biso   1.000  C
  H1       1.0000 0.44098  0.46989  0.44569  Biso   1.000  H
  C4       1.0000 0.49250  0.40809  0.38338  Biso   1.000  C
  H2       1.0000 0.47290  0.41459  0.47112  Biso   1.000  H
  C5       1.0000 0.47261  0.45279  0.30771  Biso   1.000  C
  F1       1.0000 0.43590  0.50100  0.34000  Biso   1.000  F
  C6       1.0000 0.51451  0.37449  0.39929  Biso   1.000  C
  C7       1.0000 0.49209  0.42251  0.32200  Biso   1.000  C
  H3       1.0000 0.47141  0.46170  0.26572  Biso   1.000  H
  C8       1.0000 0.47349  0.32240  0.42008  Biso   1.000  C
  N1       1.0000 0.55111  0.39820  0.44852  Biso   1.000  N
  H4       1.0000 0.53171  0.37091  0.36190  Biso   1.000  H
  H5       1.0000 0.50529  0.41111  0.28998  Biso   1.000  H
  C9       1.0000 0.43042  0.29661  0.37289  Biso   1.000  C
  N2       1.0000 0.49502  0.29091  0.43149  Biso   1.000  N
  H6       1.0000 0.45892  0.32621  0.45989  Biso   1.000  H
  C10      1.0000 0.59790  0.41598  0.43572  Biso   1.000  C
  C11      1.0000 0.43990  0.28412  0.31532  Biso   1.000  C
  C12      1.0000 0.38259  0.28340  0.38719  Biso   1.000  C
  C13      1.0000 0.49001  0.27181  0.48559  Biso   1.000  C
  C14      1.0000 0.63820  0.44441  0.47910  Biso   1.000  C
  H7       1.0000 0.60639  0.41009  0.39530  Biso   1.000  H
  C15      1.0000 0.40048  0.25629  0.27328  Biso   1.000  C
  H8       1.0000 0.47370  0.29431  0.30372  Biso   1.000  H
  C16      1.0000 0.34220  0.25441  0.34659  Biso   1.000  C
  H9       1.0000 0.37590  0.29389  0.42579  Biso   1.000  H
  C17      1.0000 0.50901  0.23768  0.50299  Biso   1.000  C
  H10      1.0000 0.47321  0.28019  0.51631  Biso   1.000  H
  C18      1.0000 0.68779  0.46291  0.46161  Biso   1.000  C
  C19      1.0000 0.62781  0.45332  0.54011  Biso   1.000  C
  C20      1.0000 0.35349  0.24168  0.29068  Biso   1.000  C
  H11      1.0000 0.40740  0.24822  0.23329  Biso   1.000  H
  H12      1.0000 0.30840  0.24410  0.35782  Biso   1.000  H
  C21      1.0000 0.49960  0.21639  0.56252  Biso   1.000  C
  C22      1.0000 0.53710  0.22488  0.46161  Biso   1.000  C
  C23      1.0000 0.72871  0.49099  0.50299  Biso   1.000  C
  H13      1.0000 0.69480  0.45672  0.42059  Biso   1.000  H
  C24      1.0000 0.66771  0.48231  0.58168  Biso   1.000  C
  H14      1.0000 0.59379  0.43980  0.55319  Biso   1.000  H
  F2       1.0000 0.31390  0.21122  0.25138  Biso   1.000  F
  C25      1.0000 0.51768  0.18540  0.58168  Biso   1.000  C
  H15      1.0000 0.48019  0.22360  0.59068  Biso   1.000  H
  H16      1.0000 0.54331  0.23810  0.42059  Biso   1.000  H
  C26      1.0000 0.55560  0.19382  0.47910  Biso   1.000  C
  C27      1.0000 0.71680  0.50039  0.56252  Biso   1.000  C
  C28      1.0000 0.78178  0.50998  0.48559  Biso   1.000  C
  C29      1.0000 0.65701  0.49420  0.64348  Biso   1.000  C
  C30      1.0000 0.50579  0.16278  0.64348  Biso   1.000  C
  C31      1.0000 0.54669  0.17449  0.54011  Biso   1.000  C
  C32      1.0000 0.58400  0.18189  0.43572  Biso   1.000  C
  H17      1.0000 0.74341  0.51980  0.59068  Biso   1.000  H
  N3       1.0000 0.79590  0.50500  0.43149  Biso   1.000  N
  H18      1.0000 0.80699  0.52678  0.51631  Biso   1.000  H
  N4       1.0000 0.69050  0.52848  0.67652  Biso   1.000  N
  H19      1.0000 0.62372  0.47540  0.65940  Biso   1.000  H
  N5       1.0000 0.47149  0.16199  0.67652  Biso   1.000  N
  H20      1.0000 0.52460  0.14829  0.65940  Biso   1.000  H
  H21      1.0000 0.56021  0.15399  0.55319  Biso   1.000  H
  N6       1.0000 0.60180  0.15289  0.44852  Biso   1.000  N
  H22      1.0000 0.58990  0.19631  0.39530  Biso   1.000  H
  C33      1.0000 0.84890  0.52652  0.42008  Biso   1.000  C
  C34      1.0000 0.67701  0.53569  0.73920  Biso   1.000  C
  C35      1.0000 0.46432  0.14130  0.73920  Biso   1.000  C
  C36      1.0000 0.62549  0.13998  0.39929  Biso   1.000  C
  C37      1.0000 0.86000  0.48548  0.39929  Biso   1.000  C
  H23      1.0000 0.86730  0.54109  0.45989  Biso   1.000  H
  C38      1.0000 0.86619  0.56959  0.37289  Biso   1.000  C
  C39      1.0000 0.69770  0.51168  0.78578  Biso   1.000  C
  H24      1.0000 0.63940  0.51829  0.74291  Biso   1.000  H
  C40      1.0000 0.69860  0.59058  0.75210  Biso   1.000  C
  C41      1.0000 0.48830  0.18600  0.78578  Biso   1.000  C
  H25      1.0000 0.48171  0.12111  0.74291  Biso   1.000  H
  C42      1.0000 0.40942  0.10801  0.75210  Biso   1.000  C
  H26      1.0000 0.62909  0.16078  0.36190  Biso   1.000  H
  C43      1.0000 0.67761  0.15112  0.42008  Biso   1.000  C
  C44      1.0000 0.59192  0.08441  0.38338  Biso   1.000  C
  N7       1.0000 0.84710  0.44890  0.44852  Biso   1.000  N
  H27      1.0000 0.83921  0.46831  0.36190  Biso   1.000  H
  C45      1.0000 0.91560  0.50749  0.38338  Biso   1.000  C
  C46      1.0000 0.84422  0.56012  0.31532  Biso   1.000  C
  C47      1.0000 0.90081  0.61739  0.38719  Biso   1.000  C
  N8       1.0000 0.67369  0.45721  0.77168  Biso   1.000  N
  H28      1.0000 0.73502  0.52761  0.78022  Biso   1.000  H
  C48      1.0000 0.68668  0.51738  0.85139  Biso   1.000  C
  C49      1.0000 0.66642  0.60821  0.77052  Biso   1.000  C
  C50      1.0000 0.74900  0.62509  0.74472  Biso   1.000  C
  N9       1.0000 0.54282  0.21650  0.77168  Biso   1.000  N
  H29      1.0000 0.47239  0.20741  0.78022  Biso   1.000  H
  C51      1.0000 0.48260  0.16931  0.85139  Biso   1.000  C
  C52      1.0000 0.39181  0.05821  0.77052  Biso   1.000  C
  C53      1.0000 0.37489  0.12390  0.74472  Biso   1.000  C
  N10      1.0000 0.70910  0.20408  0.43149  Biso   1.000  N
  H30      1.0000 0.67380  0.13270  0.45989  Biso   1.000  H
  C54      1.0000 0.70341  0.13379  0.37289  Biso   1.000  C
  C55      1.0000 0.57752  0.06961  0.32200  Biso   1.000  C
  C56      1.0000 0.57521  0.04851  0.42941  Biso   1.000  C
  C57      1.0000 0.81810  0.40209  0.43572  Biso   1.000  C
  C58      1.0000 0.93042  0.50791  0.32200  Biso   1.000  C
  C59      1.0000 0.95149  0.52671  0.42941  Biso   1.000  C
  H31      1.0000 0.82060  0.52629  0.30372  Biso   1.000  H
  C60      1.0000 0.85580  0.59949  0.27328  Biso   1.000  C
  C61      1.0000 0.91220  0.65782  0.34659  Biso   1.000  C
  H32      1.0000 0.91800  0.62411  0.42579  Biso   1.000  H
  C62      1.0000 0.70320  0.43992  0.75980  Biso   1.000  C
  C63      1.0000 0.63690  0.49549  0.87371  Biso   1.000  C
  C64      1.0000 0.72390  0.53950  0.89389  Biso   1.000  C
  H33      1.0000 0.63129  0.58549  0.77530  Biso   1.000  H
  C65      1.0000 0.68691  0.66110  0.78230  Biso   1.000  C
  C66      1.0000 0.76990  0.67518  0.75688  Biso   1.000  C
  H34      1.0000 0.77049  0.61320  0.73029  Biso   1.000  H
  C67      1.0000 0.56011  0.26332  0.75980  Biso   1.000  C
  C68      1.0000 0.50452  0.14142  0.87371  Biso   1.000  C
  C69      1.0000 0.46050  0.18442  0.89389  Biso   1.000  C
  H35      1.0000 0.41450  0.04579  0.77530  Biso   1.000  H
  C70      1.0000 0.33888  0.02578  0.78230  Biso   1.000  C
  C71      1.0000 0.32480  0.09472  0.75688  Biso   1.000  C
  H36      1.0000 0.38679  0.15731  0.73029  Biso   1.000  H
  C72      1.0000 0.72819  0.21820  0.48559  Biso   1.000  C
  C73      1.0000 0.71592  0.15580  0.31532  Biso   1.000  C
  C74      1.0000 0.71662  0.09921  0.38719  Biso   1.000  C
  H37      1.0000 0.58889  0.09419  0.28998  Biso   1.000  H
  C75      1.0000 0.54718  0.01978  0.30771  Biso   1.000  C
  H38      1.0000 0.58539  0.05829  0.47112  Biso   1.000  H
  C76      1.0000 0.54239  0.99641  0.41451  Biso   1.000  C
  C77      1.0000 0.80620  0.36181  0.47910  Biso   1.000  C
  H39      1.0000 0.80369  0.39360  0.39530  Biso   1.000  H
  H40      1.0000 0.90580  0.49469  0.28998  Biso   1.000  H
  C78      1.0000 0.98021  0.52739  0.30771  Biso   1.000  C
  H41      1.0000 0.94171  0.52708  0.47112  Biso   1.000  H
  C79      1.0000 0.00360  0.54600  0.41451  Biso   1.000  C
  H42      1.0000 0.84080  0.59258  0.23329  Biso   1.000  H
  C80      1.0000 0.88819  0.64649  0.29068  Biso   1.000  C
  H43      1.0000 0.93569  0.69160  0.35782  Biso   1.000  H
  C81      1.0000 0.68419  0.38529  0.75150  Biso   1.000  C
  H44      1.0000 0.73840  0.46291  0.75618  Biso   1.000  H
  H45      1.0000 0.61030  0.47820  0.84480  Biso   1.000  H
  C82      1.0000 0.62430  0.49730  0.93310  Biso   1.000  C
  C83      1.0000 0.71160  0.53739  0.95922  Biso   1.000  C
  H46      1.0000 0.75809  0.55649  0.88099  Biso   1.000  H
  H47      1.0000 0.66581  0.67401  0.79478  Biso   1.000  H
  C84      1.0000 0.73582  0.69130  0.77539  Biso   1.000  C
  H48      1.0000 0.80520  0.69798  0.75312  Biso   1.000  H
  C85      1.0000 0.61472  0.29892  0.75150  Biso   1.000  C
  H49      1.0000 0.53711  0.27551  0.75618  Biso   1.000  H
  H50      1.0000 0.52180  0.13209  0.84480  Biso   1.000  H
  C86      1.0000 0.50270  0.12700  0.93310  Biso   1.000  C
  C87      1.0000 0.46258  0.17418  0.95922  Biso   1.000  C
  H51      1.0000 0.44349  0.20159  0.88099  Biso   1.000  H
  C88      1.0000 0.30872  0.04451  0.77539  Biso   1.000  C
  H52      1.0000 0.32601  0.99181  0.79478  Biso   1.000  H
  H53      1.0000 0.30201  0.10721  0.75312  Biso   1.000  H
  C89      1.0000 0.76228  0.27128  0.50299  Biso   1.000  C
  H54      1.0000 0.71980  0.19298  0.51631  Biso   1.000  H
  H55      1.0000 0.70571  0.17939  0.30372  Biso   1.000  H
  C90      1.0000 0.74370  0.14421  0.27328  Biso   1.000  C
  C91      1.0000 0.74561  0.08781  0.34659  Biso   1.000  C
  H56      1.0000 0.70608  0.08200  0.42579  Biso   1.000  H
  H57      1.0000 0.53831  0.00970  0.26572  Biso   1.000  H
  C92      1.0000 0.52961  0.98452  0.35369  Biso   1.000  C
  H58      1.0000 0.53014  0.97112  0.44569  Biso   1.000  H
  C93      1.0000 0.77509  0.31220  0.46161  Biso   1.000  C
  C94      1.0000 0.82548  0.37219  0.54011  Biso   1.000  C
  H59      1.0000 0.99029  0.52859  0.26572  Biso   1.000  H
  C95      1.0000 0.01551  0.54509  0.35369  Biso   1.000  C
  H60      1.0000 0.02890  0.55898  0.44569  Biso   1.000  H
  F3       1.0000 0.89730  0.68609  0.25138  Biso   1.000  F
  C96      1.0000 0.63211  0.35011  0.75071  Biso   1.000  C
  C97      1.0000 0.71799  0.36789  0.75071  Biso   1.000  C
  H61      1.0000 0.59020  0.48560  0.94469  Biso   1.000  H
  C98      1.0000 0.65972  0.51531  0.97351  Biso   1.000  C
  H62      1.0000 0.73690  0.55000  0.99040  Biso   1.000  H
  F4       1.0000 0.75528  0.74147  0.78931  Biso   1.000  F
  C99      1.0000 0.64991  0.28200  0.75071  Biso   1.000  C
  H63      1.0000 0.51440  0.10461  0.94469  Biso   1.000  H
  C100     1.0000 0.48469  0.14440  0.97351  Biso   1.000  C
  H64      1.0000 0.45001  0.18691  0.99040  Biso   1.000  H
  F5       1.0000 0.25852  0.01382  0.78931  Biso   1.000  F
  C101     1.0000 0.78361  0.28321  0.56252  Biso   1.000  C
  H65      1.0000 0.75181  0.15920  0.23329  Biso   1.000  H
  C102     1.0000 0.75828  0.11178  0.29068  Biso   1.000  C
  H66      1.0000 0.75588  0.06429  0.35782  Biso   1.000  H
  F6       1.0000 0.49902  0.93492  0.34000  Biso   1.000  F
  H67      1.0000 0.76190  0.30518  0.42059  Biso   1.000  H
  C103     1.0000 0.81459  0.33229  0.58168  Biso   1.000  C
  H68      1.0000 0.84599  0.40620  0.55319  Biso   1.000  H
  F7       1.0000 0.06510  0.56412  0.34000  Biso   1.000  F
  H69      1.0000 0.60860  0.36181  0.74969  Biso   1.000  H
  C104     1.0000 0.70110  0.31579  0.75150  Biso   1.000  C
  H70      1.0000 0.75319  0.39141  0.74969  Biso   1.000  H
  F8       1.0000 0.64949  0.51368  0.03698  Biso   1.000  F
  H71      1.0000 0.63820  0.24682  0.74969  Biso   1.000  H
  F9       1.0000 0.48631  0.13579  0.03698  Biso   1.000  F
  H72      1.0000 0.77638  0.25660  0.59068  Biso   1.000  H
  F10      1.0000 0.78878  0.10268  0.25138  Biso   1.000  F
  C105     1.0000 0.83721  0.34301  0.64348  Biso   1.000  C
  C106     1.0000 0.73669  0.29680  0.75980  Biso   1.000  C
  N11      1.0000 0.83801  0.30949  0.67652  Biso   1.000  N
  H73      1.0000 0.85170  0.37631  0.65940  Biso   1.000  H
  N12      1.0000 0.78350  0.32628  0.77168  Biso   1.000  N
  H74      1.0000 0.72452  0.26162  0.75618  Biso   1.000  H
  C107     1.0000 0.85869  0.32300  0.73920  Biso   1.000  C
  C108     1.0000 0.81402  0.30231  0.78578  Biso   1.000  C
  H75      1.0000 0.87890  0.36060  0.74291  Biso   1.000  H
  C109     1.0000 0.89200  0.30141  0.75210  Biso   1.000  C
  H76      1.0000 0.79259  0.26501  0.78022  Biso   1.000  H
  C110     1.0000 0.83069  0.31330  0.85139  Biso   1.000  C
  C111     1.0000 0.94181  0.33361  0.77052  Biso   1.000  C
  C112     1.0000 0.87612  0.25101  0.74472  Biso   1.000  C
  C113     1.0000 0.85860  0.36309  0.87371  Biso   1.000  C
  C114     1.0000 0.81560  0.27611  0.89389  Biso   1.000  C
  H77      1.0000 0.95420  0.36872  0.77530  Biso   1.000  H
  C115     1.0000 0.97419  0.31311  0.78230  Biso   1.000  C
  C116     1.0000 0.90528  0.23009  0.75688  Biso   1.000  C
  H78      1.0000 0.84270  0.22949  0.73029  Biso   1.000  H
  H79      1.0000 0.86792  0.38971  0.84480  Biso   1.000  H
  C117     1.0000 0.87301  0.37570  0.93310  Biso   1.000  C
  C118     1.0000 0.82579  0.28838  0.95922  Biso   1.000  C
  H80      1.0000 0.79840  0.24191  0.88099  Biso   1.000  H
  C119     1.0000 0.95548  0.26418  0.77539  Biso   1.000  C
  H81      1.0000 0.00822  0.33421  0.79478  Biso   1.000  H
  H82      1.0000 0.89280  0.19480  0.75312  Biso   1.000  H
  H83      1.0000 0.89538  0.40979  0.94469  Biso   1.000  H
  C120     1.0000 0.85560  0.34029  0.97351  Biso   1.000  C
  H84      1.0000 0.81311  0.26309  0.99040  Biso   1.000  H
  F11      1.0000 0.98618  0.24470  0.78931  Biso   1.000  F
  F12      1.0000 0.86419  0.35048  0.03698  Biso   1.000  F
  C121     1.0000 0.54457  0.58043  0.59013  Biso   1.000  C
  C122     1.0000 0.51385  0.59772  0.61365  Biso   1.000  C
  C123     1.0000 0.55836  0.55223  0.62312  Biso   1.000  C
  H85      1.0000 0.55637  0.58892  0.54874  Biso   1.000  H
  C124     1.0000 0.50006  0.62924  0.57393  Biso   1.000  C
  C125     1.0000 0.49637  0.58413  0.67053  Biso   1.000  C
  C126     1.0000 0.53937  0.53845  0.68422  Biso   1.000  C
  H86      1.0000 0.58028  0.54173  0.60604  Biso   1.000  H
  N13      1.0000 0.44498  0.60153  0.56131  Biso   1.000  N
  H87      1.0000 0.51849  0.63615  0.53361  Biso   1.000  H
  C127     1.0000 0.51307  0.68024  0.60432  Biso   1.000  C
  H88      1.0000 0.47425  0.59462  0.68682  Biso   1.000  H
  C128     1.0000 0.50926  0.55434  0.70835  Biso   1.000  C
  F13      1.0000 0.55066  0.50742  0.71702  Biso   1.000  F
  C129     1.0000 0.42936  0.58552  0.50824  Biso   1.000  C
  N14      1.0000 0.50947  0.71222  0.55714  Biso   1.000  N
  H89      1.0000 0.48747  0.67364  0.63722  Biso   1.000  H
  C130     1.0000 0.56636  0.70803  0.63453  Biso   1.000  C
  H90      1.0000 0.49697  0.54585  0.74955  Biso   1.000  H
  C131     1.0000 0.37458  0.55725  0.49153  Biso   1.000  C
  H91      1.0000 0.45337  0.59145  0.47664  Biso   1.000  H
  C132     1.0000 0.47957  0.72943  0.56465  Biso   1.000  C
  C133     1.0000 0.60766  0.72713  0.59574  Biso   1.000  C
  C134     1.0000 0.57046  0.71093  0.69693  Biso   1.000  C
  C135     1.0000 0.35985  0.53622  0.43265  Biso   1.000  C
  C136     1.0000 0.33766  0.55174  0.53315  Biso   1.000  C
  C137     1.0000 0.47356  0.76175  0.51983  Biso   1.000  C
  H92      1.0000 0.45985  0.72052  0.60145  Biso   1.000  H
  H93      1.0000 0.60336  0.72403  0.55203  Biso   1.000  H
  C138     1.0000 0.65577  0.75084  0.62182  Biso   1.000  C
  C139     1.0000 0.61828  0.73615  0.72445  Biso   1.000  C
  H94      1.0000 0.54096  0.69595  0.72213  Biso   1.000  H
  C140     1.0000 0.30877  0.51123  0.41595  Biso   1.000  C
  H95      1.0000 0.38458  0.53894  0.40375  Biso   1.000  H
  C141     1.0000 0.28817  0.52644  0.51983  Biso   1.000  C
  H96      1.0000 0.34786  0.56665  0.57291  Biso   1.000  H
  C142     1.0000 0.49427  0.76662  0.45892  Biso   1.000  C
  C143     1.0000 0.44826  0.78595  0.53315  Biso   1.000  C
  H97      1.0000 0.68496  0.76443  0.59625  Biso   1.000  H
  C144     1.0000 0.66027  0.75442  0.68552  Biso   1.000  C
  H98      1.0000 0.62196  0.74064  0.76815  Biso   1.000  H
  C145     1.0000 0.29247  0.49092  0.35322  Biso   1.000  C
  C146     1.0000 0.27234  0.50572  0.45892  Biso   1.000  C
  C147     1.0000 0.24986  0.52044  0.56465  Biso   1.000  C
  C148     1.0000 0.48877  0.79754  0.41595  Biso   1.000  C
  H99      1.0000 0.51126  0.74895  0.44801  Biso   1.000  H
  H100     1.0000 0.43338  0.78123  0.57291  Biso   1.000  H
  C149     1.0000 0.44276  0.81732  0.49153  Biso   1.000  C
  F14      1.0000 0.70605  0.78013  0.71313  Biso   1.000  F
  N15      1.0000 0.31817  0.48065  0.31842  Biso   1.000  N
  H101     1.0000 0.26077  0.48544  0.33875  Biso   1.000  H
  H102     1.0000 0.23766  0.48873  0.44801  Biso   1.000  H
  N16      1.0000 0.20277  0.49054  0.55714  Biso   1.000  N
  H103     1.0000 0.26066  0.54015  0.60145  Biso   1.000  H
  C150     1.0000 0.50908  0.80154  0.35322  Biso   1.000  C
  C151     1.0000 0.46376  0.82362  0.43265  Biso   1.000  C
  C152     1.0000 0.41445  0.84382  0.50824  Biso   1.000  C
  C153     1.0000 0.29867  0.46185  0.25542  Biso   1.000  C
  C154     1.0000 0.16715  0.48692  0.60432  Biso   1.000  C
  N17      1.0000 0.51937  0.83755  0.31842  Biso   1.000  N
  H104     1.0000 0.51455  0.77534  0.33875  Biso   1.000  H
  H105     1.0000 0.46107  0.84563  0.40375  Biso   1.000  H
  N18      1.0000 0.39848  0.84344  0.56131  Biso   1.000  N
  H106     1.0000 0.40857  0.86194  0.47664  Biso   1.000  H
  C155     1.0000 0.29576  0.41183  0.24354  Biso   1.000  C
  C156     1.0000 0.33655  0.50402  0.21055  Biso   1.000  C
  H107     1.0000 0.26436  0.45785  0.25064  Biso   1.000  H
  C157     1.0000 0.12917  0.49994  0.57393  Biso   1.000  C
  H108     1.0000 0.18618  0.51255  0.63722  Biso   1.000  H
  C158     1.0000 0.14166  0.43365  0.63453  Biso   1.000  C
  C159     1.0000 0.53817  0.83683  0.25542  Biso   1.000  C
  C160     1.0000 0.37079  0.87085  0.57393  Biso   1.000  C
  C161     1.0000 0.33507  0.40401  0.25644  Biso   1.000  C
  C162     1.0000 0.25157  0.37453  0.22015  Biso   1.000  C
  N19      1.0000 0.32368  0.54385  0.21654  Biso   1.000  N
  H109     1.0000 0.37176  0.51682  0.22572  Biso   1.000  H
  C163     1.0000 0.33338  0.48975  0.14383  Biso   1.000  C
  N20      1.0000 0.15658  0.55502  0.56131  Biso   1.000  N
  H110     1.0000 0.11767  0.48152  0.53361  Biso   1.000  H
  C164     1.0000 0.08388  0.48612  0.61365  Biso   1.000  C
  C165     1.0000 0.11948  0.39235  0.59574  Biso   1.000  C
  C166     1.0000 0.14045  0.42953  0.69693  Biso   1.000  C
  C167     1.0000 0.49597  0.83253  0.21055  Biso   1.000  C
  H111     1.0000 0.54218  0.80652  0.25064  Biso   1.000  H
  C168     1.0000 0.58818  0.88395  0.24354  Biso   1.000  C
  C169     1.0000 0.31977  0.83283  0.60432  Biso   1.000  C
  H112     1.0000 0.36387  0.88232  0.53361  Biso   1.000  H
  C170     1.0000 0.40227  0.91615  0.61365  Biso   1.000  C
  C171     1.0000 0.32977  0.35713  0.24711  Biso   1.000  C
  H113     1.0000 0.36595  0.43093  0.27193  Biso   1.000  H
  C172     1.0000 0.24676  0.32542  0.21055  Biso   1.000  C
  H114     1.0000 0.22466  0.38034  0.21041  Biso   1.000  H
  C173     1.0000 0.35535  0.58692  0.23811  Biso   1.000  C
  C174     1.0000 0.37268  0.48544  0.11641  Biso   1.000  C
  C175     1.0000 0.29498  0.48344  0.10453  Biso   1.000  C
  C176     1.0000 0.15618  0.57065  0.50824  Biso   1.000  C
  C177     1.0000 0.08776  0.50364  0.67053  Biso   1.000  C
  C178     1.0000 0.03587  0.45543  0.59013  Biso   1.000  C
  H115     1.0000 0.12066  0.39662  0.55203  Biso   1.000  H
  C179     1.0000 0.09505  0.34422  0.62182  Biso   1.000  C
  C180     1.0000 0.11787  0.38174  0.72445  Biso   1.000  C
  H116     1.0000 0.15497  0.45902  0.72213  Biso   1.000  H
  N21      1.0000 0.45615  0.77983  0.21654  Biso   1.000  N
  H117     1.0000 0.48317  0.85492  0.22572  Biso   1.000  H
  C181     1.0000 0.51025  0.84363  0.14383  Biso   1.000  C
  C182     1.0000 0.59596  0.93102  0.25644  Biso   1.000  C
  C183     1.0000 0.62546  0.87704  0.22015  Biso   1.000  C
  N22      1.0000 0.28775  0.79723  0.55714  Biso   1.000  N
  H118     1.0000 0.32636  0.81384  0.63722  Biso   1.000  H
  C184     1.0000 0.29194  0.85831  0.63453  Biso   1.000  C
  C185     1.0000 0.41587  0.91222  0.67053  Biso   1.000  C
  C186     1.0000 0.41956  0.96413  0.59013  Biso   1.000  C
  C187     1.0000 0.28457  0.31923  0.22442  Biso   1.000  C
  H119     1.0000 0.35668  0.35105  0.25611  Biso   1.000  H
  H120     1.0000 0.21649  0.29835  0.19431  Biso   1.000  H
  C188     1.0000 0.34436  0.62694  0.24252  Biso   1.000  C
  H121     1.0000 0.38726  0.59255  0.25184  Biso   1.000  H
  H122     1.0000 0.39977  0.48862  0.14133  Biso   1.000  H
  C189     1.0000 0.37206  0.47623  0.05071  Biso   1.000  C
  C190     1.0000 0.29358  0.47574  0.04385  Biso   1.000  C
  H123     1.0000 0.26718  0.48454  0.12254  Biso   1.000  H
  C191     1.0000 0.18266  0.62543  0.49153  Biso   1.000  C
  H124     1.0000 0.13807  0.54664  0.47664  Biso   1.000  H
  H125     1.0000 0.12035  0.52573  0.68682  Biso   1.000  H
  C192     1.0000 0.04505  0.49073  0.70835  Biso   1.000  C
  H126     1.0000 0.03254  0.44362  0.54874  Biso   1.000  H
  C193     1.0000 0.99385  0.44162  0.62312  Biso   1.000  C
  H127     1.0000 0.07948  0.31504  0.59625  Biso   1.000  H
  C194     1.0000 0.09418  0.33972  0.68552  Biso   1.000  C
  H128     1.0000 0.11866  0.37804  0.76815  Biso   1.000  H
  C195     1.0000 0.41305  0.76843  0.23811  Biso   1.000  C
  C196     1.0000 0.51456  0.88723  0.11641  Biso   1.000  C
  C197     1.0000 0.51657  0.81154  0.10453  Biso   1.000  C
  H129     1.0000 0.56906  0.93503  0.27193  Biso   1.000  H
  C198     1.0000 0.64285  0.97263  0.24711  Biso   1.000  C
  C199     1.0000 0.67458  0.92132  0.21055  Biso   1.000  C
  H130     1.0000 0.61968  0.84435  0.21041  Biso   1.000  H
  C200     1.0000 0.27057  0.75012  0.56465  Biso   1.000  C
  C201     1.0000 0.27288  0.88055  0.59574  Biso   1.000  C
  C202     1.0000 0.28905  0.85952  0.69693  Biso   1.000  C
  H131     1.0000 0.40536  0.87964  0.68682  Biso   1.000  H
  C203     1.0000 0.44565  0.95492  0.70835  Biso   1.000  C
  H132     1.0000 0.41106  0.96742  0.54874  Biso   1.000  H
  C204     1.0000 0.44774  0.00611  0.62312  Biso   1.000  C
  F15      1.0000 0.28216  0.27374  0.21282  Biso   1.000  F
  C205     1.0000 0.29385  0.61712  0.24321  Biso   1.000  C
  C206     1.0000 0.38286  0.67673  0.24321  Biso   1.000  C
  H133     1.0000 0.39816  0.47272  0.03174  Biso   1.000  H
  C207     1.0000 0.33306  0.47265  0.01703  Biso   1.000  C
  H134     1.0000 0.26637  0.47265  0.01935  Biso   1.000  H
  C208     1.0000 0.21407  0.66235  0.53315  Biso   1.000  C
  C209     1.0000 0.17639  0.64015  0.43265  Biso   1.000  C
  H135     1.0000 0.04888  0.50304  0.74955  Biso   1.000  H
  C210     1.0000 0.99908  0.46064  0.68422  Biso   1.000  C
  H136     1.0000 0.96145  0.41972  0.60604  Biso   1.000  H
  F16      1.0000 0.07406  0.29393  0.71313  Biso   1.000  F
  C211     1.0000 0.37307  0.71743  0.24252  Biso   1.000  C
  H137     1.0000 0.40747  0.79474  0.25184  Biso   1.000  H
  H138     1.0000 0.51137  0.91113  0.14133  Biso   1.000  H
  C212     1.0000 0.52377  0.89584  0.05071  Biso   1.000  C
  C213     1.0000 0.52427  0.81785  0.04385  Biso   1.000  C
  H139     1.0000 0.51545  0.78262  0.12254  Biso   1.000  H
  C214     1.0000 0.68076  0.96534  0.22442  Biso   1.000  C
  H140     1.0000 0.64898  0.00562  0.25611  Biso   1.000  H
  H141     1.0000 0.70166  0.91815  0.19431  Biso   1.000  H
  C215     1.0000 0.23826  0.71184  0.51983  Biso   1.000  C
  H142     1.0000 0.27946  0.73932  0.60145  Biso   1.000  H
  H143     1.0000 0.27597  0.87934  0.55203  Biso   1.000  H
  C216     1.0000 0.24918  0.90494  0.62182  Biso   1.000  C
  C217     1.0000 0.26387  0.88214  0.72445  Biso   1.000  C
  H144     1.0000 0.30406  0.84503  0.72213  Biso   1.000  H
  H145     1.0000 0.45416  0.95115  0.74955  Biso   1.000  H
  C218     1.0000 0.46156  0.00094  0.68422  Biso   1.000  C
  H146     1.0000 0.45830  0.03854  0.60604  Biso   1.000  H
  H147     1.0000 0.26709  0.58315  0.24433  Biso   1.000  H
  C219     1.0000 0.28257  0.65563  0.24252  Biso   1.000  C
  H148     1.0000 0.41687  0.68394  0.24433  Biso   1.000  H
  F17      1.0000 0.33436  0.46563  0.95555  Biso   1.000  F
  H149     1.0000 0.21876  0.65212  0.57291  Biso   1.000  H
  C220     1.0000 0.20245  0.69123  0.41595  Biso   1.000  C
  H150     1.0000 0.15435  0.61542  0.40375  Biso   1.000  H
  F18      1.0000 0.95677  0.44932  0.71702  Biso   1.000  F
  C221     1.0000 0.32329  0.70614  0.24321  Biso   1.000  C
  H151     1.0000 0.52726  0.92544  0.03174  Biso   1.000  H
  C222     1.0000 0.52738  0.86043  0.01703  Biso   1.000  C
  H152     1.0000 0.52737  0.79372  0.01935  Biso   1.000  H
  F19      1.0000 0.72626  0.00841  0.21282  Biso   1.000  F
  C223     1.0000 0.23336  0.72762  0.45892  Biso   1.000  C
  H153     1.0000 0.23556  0.92053  0.59625  Biso   1.000  H
  C224     1.0000 0.24558  0.90584  0.68552  Biso   1.000  C
  H154     1.0000 0.25939  0.88134  0.76815  Biso   1.000  H
  F20      1.0000 0.49258  0.04322  0.71702  Biso   1.000  F
  C225     1.0000 0.23156  0.64464  0.23811  Biso   1.000  C
  C226     1.0000 0.19847  0.70754  0.35322  Biso   1.000  C
  H155     1.0000 0.31606  0.73294  0.24433  Biso   1.000  H
  F21      1.0000 0.53438  0.86873  0.95555  Biso   1.000  F
  H156     1.0000 0.25109  0.76235  0.44801  Biso   1.000  H
  F22      1.0000 0.21985  0.92593  0.71313  Biso   1.000  F
  N23      1.0000 0.22017  0.67632  0.21654  Biso   1.000  N
  H157     1.0000 0.20528  0.61274  0.25184  Biso   1.000  H
  N24      1.0000 0.16247  0.68183  0.31842  Biso   1.000  N
  H158     1.0000 0.22466  0.73925  0.33875  Biso   1.000  H
  C227     1.0000 0.16747  0.66344  0.21055  Biso   1.000  C
  C228     1.0000 0.16317  0.70134  0.25542  Biso   1.000  C
  H159     1.0000 0.14505  0.62822  0.22572  Biso   1.000  H
  C229     1.0000 0.15639  0.66665  0.14383  Biso   1.000  C
  H160     1.0000 0.19346  0.73562  0.25064  Biso   1.000  H
  C230     1.0000 0.11608  0.70425  0.24354  Biso   1.000  C
  C231     1.0000 0.11277  0.62735  0.11641  Biso   1.000  C
  C232     1.0000 0.18847  0.70504  0.10453  Biso   1.000  C
  C233     1.0000 0.06895  0.66491  0.25644  Biso   1.000  C
  C234     1.0000 0.12296  0.74842  0.22015  Biso   1.000  C
  H161     1.0000 0.08886  0.60025  0.14133  Biso   1.000  H
  C235     1.0000 0.10416  0.62792  0.05071  Biso   1.000  C
  C236     1.0000 0.18217  0.70644  0.04385  Biso   1.000  C
  H162     1.0000 0.21736  0.73283  0.12254  Biso   1.000  H
  H163     1.0000 0.06498  0.63403  0.27193  Biso   1.000  H
  C237     1.0000 0.02737  0.67024  0.24711  Biso   1.000  C
  C238     1.0000 0.07867  0.75321  0.21055  Biso   1.000  C
  H164     1.0000 0.15567  0.77534  0.21041  Biso   1.000  H
  H165     1.0000 0.07458  0.60183  0.03174  Biso   1.000  H
  C239     1.0000 0.13955  0.66692  0.01703  Biso   1.000  C
  H166     1.0000 0.20625  0.73362  0.01935  Biso   1.000  H
  C240     1.0000 0.03467  0.71543  0.22442  Biso   1.000  C
  H167     1.0000 0.99436  0.64332  0.25611  Biso   1.000  H
  H168     1.0000 0.08186  0.78353  0.19431  Biso   1.000  H
  F23      1.0000 0.13126  0.66563  0.95555  Biso   1.000  F
  F24      1.0000 0.99158  0.71784  0.21282  Biso   1.000  F
  C241     1.0000 0.41037  0.47752  0.60664  Biso   1.000  C
  C242     1.0000 0.38257  0.48914  0.64863  Biso   1.000  C
  H169     1.0000 0.41847  0.49254  0.56665  Biso   1.000  H
  C243     1.0000 0.42497  0.44513  0.62404  Biso   1.000  C
  C244     1.0000 0.37006  0.46714  0.70621  Biso   1.000  C
  H170     1.0000 0.37237  0.51274  0.63703  Biso   1.000  H
  C245     1.0000 0.41225  0.42112  0.67995  Biso   1.000  C
  F25      1.0000 0.45547  0.43603  0.58474  Biso   1.000  F
  C246     1.0000 0.34425  0.48443  0.75344  Biso   1.000  C
  C247     1.0000 0.38326  0.43252  0.72055  Biso   1.000  C
  H171     1.0000 0.42257  0.39763  0.69113  Biso   1.000  H
  C248     1.0000 0.29218  0.47333  0.73261  Biso   1.000  C
  N25      1.0000 0.37575  0.53743  0.76481  Biso   1.000  N
  H172     1.0000 0.34048  0.46604  0.79325  Biso   1.000  H
  H173     1.0000 0.37277  0.41534  0.75915  Biso   1.000  H
  C249     1.0000 0.25855  0.41772  0.71674  Biso   1.000  C
  N26      1.0000 0.26846  0.48624  0.78184  Biso   1.000  N
  H174     1.0000 0.29578  0.49413  0.69522  Biso   1.000  H
  C250     1.0000 0.39488  0.55155  0.81891  Biso   1.000  C
  C251     1.0000 0.24416  0.40292  0.65531  Biso   1.000  C
  C252     1.0000 0.24185  0.38182  0.76272  Biso   1.000  C
  C253     1.0000 0.25065  0.51523  0.76903  Biso   1.000  C
  C254     1.0000 0.42897  0.60463  0.83631  Biso   1.000  C
  H175     1.0000 0.38645  0.52633  0.84963  Biso   1.000  H
  C255     1.0000 0.21387  0.35313  0.64102  Biso   1.000  C
  H176     1.0000 0.25558  0.42753  0.62335  Biso   1.000  H
  C256     1.0000 0.20906  0.32972  0.74783  Biso   1.000  C
  H177     1.0000 0.25208  0.39163  0.80444  Biso   1.000  H
  C257     1.0000 0.22227  0.52712  0.81242  Biso   1.000  C
  H178     1.0000 0.25659  0.52965  0.72862  Biso   1.000  H
  C258     1.0000 0.45025  0.61652  0.89584  Biso   1.000  C
  C259     1.0000 0.44178  0.64555  0.79492  Biso   1.000  C
  H179     1.0000 0.20497  0.34305  0.59903  Biso   1.000  H
  C260     1.0000 0.19625  0.31783  0.68705  Biso   1.000  C
  H180     1.0000 0.19677  0.30443  0.77906  Biso   1.000  H
  C261     1.0000 0.20376  0.55823  0.79492  Biso   1.000  C
  C262     1.0000 0.21338  0.50783  0.87343  Biso   1.000  C
  C263     1.0000 0.48128  0.66563  0.91505  Biso   1.000  C
  H181     1.0000 0.44307  0.58994  0.92405  Biso   1.000  H
  H182     1.0000 0.42856  0.63853  0.75396  Biso   1.000  H
  C264     1.0000 0.47287  0.69512  0.81242  Biso   1.000  C
  F26      1.0000 0.16566  0.26822  0.67332  Biso   1.000  F
  C265     1.0000 0.17566  0.57103  0.83631  Biso   1.000  C
  H183     1.0000 0.20997  0.57144  0.75396  Biso   1.000  H
  C266     1.0000 0.18437  0.51874  0.91505  Biso   1.000  C
  H184     1.0000 0.22686  0.48733  0.88651  Biso   1.000  H
  C267     1.0000 0.50385  0.67632  0.97685  Biso   1.000  C
  C268     1.0000 0.49217  0.70553  0.87343  Biso   1.000  C
  C269     1.0000 0.48476  0.73543  0.76903  Biso   1.000  C
  C270     1.0000 0.16626  0.54974  0.89584  Biso   1.000  C
  C271     1.0000 0.15665  0.60512  0.81891  Biso   1.000  C
  C272     1.0000 0.17248  0.49613  0.97685  Biso   1.000  C
  H185     1.0000 0.51839  0.70965  0.99272  Biso   1.000  H
  N27      1.0000 0.50466  0.64283  0.00984  Biso   1.000  N
  H186     1.0000 0.51268  0.73955  0.88651  Biso   1.000  H
  N28      1.0000 0.51376  0.78225  0.78184  Biso   1.000  N
  H187     1.0000 0.47038  0.72694  0.72862  Biso   1.000  H
  H188     1.0000 0.14688  0.55695  0.92405  Biso   1.000  H
  N29      1.0000 0.16165  0.62422  0.76481  Biso   1.000  N
  H189     1.0000 0.13987  0.61353  0.84963  Biso   1.000  H
  H190     1.0000 0.19125  0.48163  0.99272  Biso   1.000  H
  N30      1.0000 0.13818  0.49534  0.00984  Biso   1.000  N
  C273     1.0000 0.52538  0.65634  0.07252  Biso   1.000  C
  C274     1.0000 0.52665  0.81883  0.73261  Biso   1.000  C
  C275     1.0000 0.14018  0.65574  0.75344  Biso   1.000  C
  C276     1.0000 0.13097  0.47465  0.07252  Biso   1.000  C
  C277     1.0000 0.48066  0.63562  0.11915  Biso   1.000  C
  H191     1.0000 0.54559  0.69395  0.07623  Biso   1.000  H
  C278     1.0000 0.55869  0.63475  0.08542  Biso   1.000  C
  H192     1.0000 0.50587  0.80165  0.69522  Biso   1.000  H
  C279     1.0000 0.51557  0.85982  0.75344  Biso   1.000  C
  C280     1.0000 0.58228  0.84084  0.71674  Biso   1.000  C
  C281     1.0000 0.18117  0.70784  0.73261  Biso   1.000  C
  H193     1.0000 0.12555  0.65952  0.79325  Biso   1.000  H
  C282     1.0000 0.09706  0.62992  0.70621  Biso   1.000  C
  C283     1.0000 0.15499  0.51935  0.11915  Biso   1.000  C
  H194     1.0000 0.14837  0.45445  0.07623  Biso   1.000  H
  C284     1.0000 0.07607  0.44135  0.08542  Biso   1.000  C
  N31      1.0000 0.45016  0.65963  0.10504  Biso   1.000  N
  H195     1.0000 0.45926  0.59832  0.11353  Biso   1.000  H
  C285     1.0000 0.49738  0.64664  0.18475  Biso   1.000  C
  C286     1.0000 0.60844  0.66692  0.10384  Biso   1.000  C
  C287     1.0000 0.54275  0.58432  0.07804  Biso   1.000  C
  N32      1.0000 0.46256  0.83834  0.76481  Biso   1.000  N
  H196     1.0000 0.53396  0.87443  0.79325  Biso   1.000  H
  C288     1.0000 0.53288  0.90294  0.70621  Biso   1.000  C
  C289     1.0000 0.59707  0.84125  0.65531  Biso   1.000  C
  C290     1.0000 0.61818  0.86005  0.76272  Biso   1.000  C
  N33      1.0000 0.21777  0.73155  0.78184  Biso   1.000  N
  H197     1.0000 0.19837  0.70425  0.69522  Biso   1.000  H
  C291     1.0000 0.15916  0.74144  0.71674  Biso   1.000  C
  C292     1.0000 0.10657  0.61742  0.64863  Biso   1.000  C
  C293     1.0000 0.04927  0.61674  0.72055  Biso   1.000  C
  N34      1.0000 0.20947  0.54985  0.10504  Biso   1.000  N
  H198     1.0000 0.13908  0.54075  0.11353  Biso   1.000  H
  C294     1.0000 0.14927  0.50262  0.18475  Biso   1.000  C
  C295     1.0000 0.05845  0.39152  0.10384  Biso   1.000  C
  C296     1.0000 0.04158  0.45724  0.07804  Biso   1.000  C
  C297     1.0000 0.40338  0.63015  0.09312  Biso   1.000  C
  C298     1.0000 0.52525  0.69644  0.20702  Biso   1.000  C
  C299     1.0000 0.48227  0.60942  0.22725  Biso   1.000  C
  H199     1.0000 0.62087  0.70202  0.10862  Biso   1.000  H
  C300     1.0000 0.64086  0.64642  0.11562  Biso   1.000  C
  C301     1.0000 0.57197  0.56344  0.09024  Biso   1.000  C
  H200     1.0000 0.50936  0.56283  0.06361  Biso   1.000  H
  C302     1.0000 0.44847  0.84333  0.81891  Biso   1.000  C
  C303     1.0000 0.51086  0.89342  0.64863  Biso   1.000  C
  C304     1.0000 0.56746  0.95073  0.72055  Biso   1.000  C
  H201     1.0000 0.57249  0.82804  0.62335  Biso   1.000  H
  C305     1.0000 0.64686  0.86073  0.64102  Biso   1.000  C
  C306     1.0000 0.67026  0.87934  0.74783  Biso   1.000  C
  H202     1.0000 0.60836  0.86043  0.80444  Biso   1.000  H
  C307     1.0000 0.26455  0.74933  0.76903  Biso   1.000  C
  C308     1.0000 0.15876  0.75582  0.65531  Biso   1.000  C
  C309     1.0000 0.13997  0.75812  0.76272  Biso   1.000  C
  H203     1.0000 0.14037  0.62762  0.63703  Biso   1.000  H
  C310     1.0000 0.06717  0.58964  0.60664  Biso   1.000  C
  C311     1.0000 0.00889  0.58775  0.67995  Biso   1.000  C
  H204     1.0000 0.04256  0.62724  0.75915  Biso   1.000  H
  C312     1.0000 0.22678  0.59662  0.09312  Biso   1.000  C
  C313     1.0000 0.17116  0.47472  0.20702  Biso   1.000  C
  C314     1.0000 0.12717  0.51772  0.22725  Biso   1.000  C
  H205     1.0000 0.08116  0.37914  0.10862  Biso   1.000  H
  C315     1.0000 0.00557  0.35913  0.11562  Biso   1.000  C
  C316     1.0000 0.99147  0.42802  0.09024  Biso   1.000  C
  H206     1.0000 0.05346  0.49062  0.06361  Biso   1.000  H
  C317     1.0000 0.36776  0.64913  0.08481  Biso   1.000  C
  H207     1.0000 0.39116  0.59492  0.08955  Biso   1.000  H
  H208     1.0000 0.53457  0.72305  0.17812  Biso   1.000  H
  C318     1.0000 0.53967  0.70905  0.26641  Biso   1.000  C
  C319     1.0000 0.49248  0.62173  0.29253  Biso   1.000  C
  H209     1.0000 0.46507  0.57522  0.21436  Biso   1.000  H
  H210     1.0000 0.67485  0.66752  0.12815  Biso   1.000  H
  C320     1.0000 0.62217  0.59753  0.10876  Biso   1.000  C
  H211     1.0000 0.55946  0.52814  0.08644  Biso   1.000  H
  C321     1.0000 0.39536  0.82434  0.83631  Biso   1.000  C
  H212     1.0000 0.47368  0.86013  0.84963  Biso   1.000  H
  H213     1.0000 0.48726  0.85964  0.63703  Biso   1.000  H
  C322     1.0000 0.52245  0.93284  0.60664  Biso   1.000  C
  C323     1.0000 0.57887  0.99112  0.67995  Biso   1.000  C
  H214     1.0000 0.58468  0.95745  0.75915  Biso   1.000  H
  H215     1.0000 0.65698  0.86194  0.59903  Biso   1.000  H
  C324     1.0000 0.68216  0.87844  0.68705  Biso   1.000  C
  H216     1.0000 0.69555  0.89233  0.77906  Biso   1.000  H
  C325     1.0000 0.30487  0.77772  0.81242  Biso   1.000  C
  H217     1.0000 0.27308  0.74344  0.72862  Biso   1.000  H
  H218     1.0000 0.17196  0.74442  0.62335  Biso   1.000  H
  C326     1.0000 0.13927  0.78613  0.64102  Biso   1.000  C
  C327     1.0000 0.12067  0.79093  0.74783  Biso   1.000  C
  H219     1.0000 0.13955  0.74793  0.80444  Biso   1.000  H
  H220     1.0000 0.07407  0.58152  0.56665  Biso   1.000  H
  C328     1.0000 0.02018  0.57503  0.62404  Biso   1.000  C
  H221     1.0000 0.97506  0.57744  0.69113  Biso   1.000  H
  C329     1.0000 0.28136  0.63222  0.08481  Biso   1.000  C
  H222     1.0000 0.20374  0.60882  0.08955  Biso   1.000  H
  H223     1.0000 0.18848  0.46544  0.17812  Biso   1.000  H
  C330     1.0000 0.16936  0.46034  0.26641  Biso   1.000  C
  C331     1.0000 0.12927  0.50753  0.29253  Biso   1.000  C
  H224     1.0000 0.11018  0.53494  0.21436  Biso   1.000  H
  H225     1.0000 0.99265  0.32511  0.12815  Biso   1.000  H
  C332     1.0000 0.97535  0.37782  0.10876  Biso   1.000  C
  H226     1.0000 0.96865  0.44052  0.08644  Biso   1.000  H
  C333     1.0000 0.31657  0.61535  0.08403  Biso   1.000  C
  C334     1.0000 0.38465  0.70123  0.08403  Biso   1.000  C
  H227     1.0000 0.56207  0.74314  0.27801  Biso   1.000  H
  C335     1.0000 0.52226  0.67364  0.30683  Biso   1.000  C
  H228     1.0000 0.47976  0.59643  0.32371  Biso   1.000  H
  F27      1.0000 0.65287  0.57805  0.12263  Biso   1.000  F
  C336     1.0000 0.35448  0.79625  0.79492  Biso   1.000  C
  C337     1.0000 0.38346  0.83374  0.89584  Biso   1.000  C
  H229     1.0000 0.50746  0.92593  0.56665  Biso   1.000  H
  C338     1.0000 0.55488  0.97984  0.62404  Biso   1.000  C
  H230     1.0000 0.60233  0.02491  0.69113  Biso   1.000  H
  F28      1.0000 0.73177  0.89743  0.67332  Biso   1.000  F
  C339     1.0000 0.29445  0.78662  0.87343  Biso   1.000  C
  H231     1.0000 0.13807  0.79504  0.59903  Biso   1.000  H
  C340     1.0000 0.12155  0.80373  0.68705  Biso   1.000  C
  H232     1.0000 0.10767  0.80324  0.77906  Biso   1.000  H
  F29      1.0000 0.98057  0.54453  0.58474  Biso   1.000  F
  C341     1.0000 0.29877  0.68345  0.08403  Biso   1.000  C
  H233     1.0000 0.18107  0.43792  0.27801  Biso   1.000  H
  C342     1.0000 0.15138  0.47774  0.30683  Biso   1.000  C
  H234     1.0000 0.11667  0.52025  0.32371  Biso   1.000  H
  F30      1.0000 0.92516  0.34712  0.12263  Biso   1.000  F
  H235     1.0000 0.30487  0.58012  0.08305  Biso   1.000  H
  C343     1.0000 0.35088  0.71863  0.08481  Biso   1.000  C
  H236     1.0000 0.41988  0.72475  0.08305  Biso   1.000  H
  F31      1.0000 0.53085  0.68383  0.37034  Biso   1.000  F
  H237     1.0000 0.36147  0.79002  0.75396  Biso   1.000  H
  C344     1.0000 0.33435  0.81562  0.91505  Biso   1.000  C
  H238     1.0000 0.41006  0.85314  0.92405  Biso   1.000  H
  F32      1.0000 0.56396  0.01944  0.58474  Biso   1.000  F
  H239     1.0000 0.26047  0.77315  0.88651  Biso   1.000  H
  F33      1.0000 0.10256  0.83434  0.67332  Biso   1.000  F
  H240     1.0000 0.27527  0.69512  0.08305  Biso   1.000  H
  F34      1.0000 0.15296  0.46914  0.37034  Biso   1.000  F
  C345     1.0000 0.36987  0.77322  0.09312  Biso   1.000  C
  C346     1.0000 0.32367  0.82755  0.97685  Biso   1.000  C
  N35      1.0000 0.34038  0.79055  0.10504  Biso   1.000  N
  H241     1.0000 0.40509  0.79625  0.08955  Biso   1.000  H
  H242     1.0000 0.29037  0.80875  0.99272  Biso   1.000  H
  N36      1.0000 0.35716  0.86183  0.00984  Biso   1.000  N
  C347     1.0000 0.36435  0.84503  0.11915  Biso   1.000  C
  C348     1.0000 0.34366  0.86904  0.07252  Biso   1.000  C
  H243     1.0000 0.40166  0.86092  0.11353  Biso   1.000  H
  C349     1.0000 0.35337  0.85073  0.18475  Biso   1.000  C
  H244     1.0000 0.30606  0.85163  0.07623  Biso   1.000  H
  C350     1.0000 0.36526  0.92393  0.08542  Biso   1.000  C
  C351     1.0000 0.30355  0.82883  0.20702  Biso   1.000  C
  C352     1.0000 0.39059  0.87285  0.22725  Biso   1.000  C
  C353     1.0000 0.33305  0.94152  0.10384  Biso   1.000  C
  C354     1.0000 0.41566  0.95843  0.07804  Biso   1.000  C
  H245     1.0000 0.27696  0.81154  0.17812  Biso   1.000  H
  C355     1.0000 0.29099  0.83064  0.26641  Biso   1.000  C
  C356     1.0000 0.37825  0.87073  0.29253  Biso   1.000  C
  H246     1.0000 0.42478  0.88984  0.21436  Biso   1.000  H
  H247     1.0000 0.29797  0.91883  0.10862  Biso   1.000  H
  C357     1.0000 0.35357  0.99445  0.11562  Biso   1.000  C
  H248     1.0000 0.43718  0.94654  0.06361  Biso   1.000  H
  C358     1.0000 0.43656  0.00853  0.09024  Biso   1.000  C
  H249     1.0000 0.25686  0.81894  0.27801  Biso   1.000  H
  C359     1.0000 0.32638  0.84865  0.30683  Biso   1.000  C
  H250     1.0000 0.40358  0.88334  0.32371  Biso   1.000  H
  H251     1.0000 0.33244  0.00732  0.12815  Biso   1.000  H
  C360     1.0000 0.40247  0.02465  0.10876  Biso   1.000  C
  H252     1.0000 0.47189  0.03133  0.08644  Biso   1.000  H
  F35      1.0000 0.31615  0.84703  0.37034  Biso   1.000  F
  F36      1.0000 0.42197  0.07482  0.12263  Biso   1.000  F
  C361     1.0000 0.59718  0.54879  0.39108  Biso   1.000  C
  C362     1.0000 0.62241  0.52622  0.36362  Biso   1.000  C
  C363     1.0000 0.57889  0.57250  0.35220  Biso   1.000  C
  H253     1.0000 0.59270  0.54800  0.43479  Biso   1.000  H
  C364     1.0000 0.62531  0.52501  0.30121  Biso   1.000  C
  H254     1.0000 0.63738  0.51168  0.38881  Biso   1.000  H
  C365     1.0000 0.58249  0.57159  0.28850  Biso   1.000  C
  F37      1.0000 0.55320  0.59258  0.37981  Biso   1.000  F
  C366     1.0000 0.65309  0.49949  0.27101  Biso   1.000  C
  C367     1.0000 0.60620  0.54721  0.26242  Biso   1.000  C
  H255     1.0000 0.56891  0.58718  0.26289  Biso   1.000  H
  N37      1.0000 0.62110  0.46389  0.22382  Biso   1.000  N
  C368     1.0000 0.70410  0.53750  0.24062  Biso   1.000  C
  H256     1.0000 0.65971  0.48050  0.30390  Biso   1.000  H
  H257     1.0000 0.60929  0.54600  0.21872  Biso   1.000  H
  C369     1.0000 0.60390  0.41681  0.23129  Biso   1.000  C
  N38      1.0000 0.73179  0.51010  0.22800  Biso   1.000  N
  H258     1.0000 0.69720  0.54902  0.20030  Biso   1.000  H
  C370     1.0000 0.73561  0.58281  0.28029  Biso   1.000  C
  C371     1.0000 0.57160  0.37850  0.18652  Biso   1.000  C
  H259     1.0000 0.61282  0.40602  0.26808  Biso   1.000  H
  C372     1.0000 0.74782  0.51051  0.17492  Biso   1.000  C
  C373     1.0000 0.74920  0.57892  0.33722  Biso   1.000  C
  C374     1.0000 0.75290  0.63079  0.25681  Biso   1.000  C
  C375     1.0000 0.54741  0.32900  0.19979  Biso   1.000  C
  C376     1.0000 0.56669  0.39431  0.12560  Biso   1.000  C
  C377     1.0000 0.77612  0.48401  0.15821  Biso   1.000  C
  H260     1.0000 0.74189  0.52859  0.14332  Biso   1.000  H
  H261     1.0000 0.73871  0.54630  0.35350  Biso   1.000  H
  C378     1.0000 0.77901  0.62161  0.37498  Biso   1.000  C
  C379     1.0000 0.78110  0.67280  0.28980  Biso   1.000  C
  H262     1.0000 0.74439  0.63411  0.21542  Biso   1.000  H
  C380     1.0000 0.51600  0.29208  0.15821  Biso   1.000  C
  H263     1.0000 0.55212  0.31881  0.23960  Biso   1.000  H
  C381     1.0000 0.53579  0.35788  0.08259  Biso   1.000  C
  H264     1.0000 0.58440  0.42901  0.11469  Biso   1.000  H
  C382     1.0000 0.78160  0.45260  0.19979  Biso   1.000  C
  C383     1.0000 0.79709  0.49031  0.09929  Biso   1.000  C
  H265     1.0000 0.78750  0.61780  0.41618  Biso   1.000  H
  C384     1.0000 0.79491  0.66759  0.35090  Biso   1.000  C
  H266     1.0000 0.79161  0.70520  0.27272  Biso   1.000  H
  C385     1.0000 0.48950  0.23730  0.17492  Biso   1.000  C
  C386     1.0000 0.50970  0.30681  0.09929  Biso   1.000  C
  C387     1.0000 0.53178  0.37419  0.01990  Biso   1.000  C
  C388     1.0000 0.80690  0.42840  0.18652  Biso   1.000  C
  H267     1.0000 0.76669  0.44788  0.23960  Biso   1.000  H
  C389     1.0000 0.82208  0.46419  0.08259  Biso   1.000  C
  H268     1.0000 0.79438  0.51229  0.07038  Biso   1.000  H
  F38      1.0000 0.82591  0.70991  0.38371  Biso   1.000  F
  N39      1.0000 0.48991  0.22171  0.22800  Biso   1.000  N
  H269     1.0000 0.47141  0.21330  0.14332  Biso   1.000  H
  H270     1.0000 0.48771  0.28212  0.07038  Biso   1.000  H
  H271     1.0000 0.55800  0.40590  0.00538  Biso   1.000  H
  N40      1.0000 0.49578  0.34848  0.98511  Biso   1.000  N
  C390     1.0000 0.81288  0.39609  0.23129  Biso   1.000  C
  C391     1.0000 0.82760  0.43331  0.12560  Biso   1.000  C
  C392     1.0000 0.84239  0.46819  0.01990  Biso   1.000  C
  C393     1.0000 0.46251  0.16660  0.24062  Biso   1.000  C
  C394     1.0000 0.49649  0.36800  0.92210  Biso   1.000  C
  N41      1.0000 0.84280  0.37891  0.22382  Biso   1.000  N
  H272     1.0000 0.79321  0.38722  0.26808  Biso   1.000  H
  H273     1.0000 0.84461  0.41560  0.11469  Biso   1.000  H
  H274     1.0000 0.84790  0.44199  0.00538  Biso   1.000  H
  N42      1.0000 0.85272  0.50421  0.98511  Biso   1.000  N
  C395     1.0000 0.41721  0.15282  0.28029  Biso   1.000  C
  H275     1.0000 0.45100  0.14821  0.20030  Biso   1.000  H
  C396     1.0000 0.50051  0.15361  0.27101  Biso   1.000  C
  C397     1.0000 0.50081  0.33010  0.87719  Biso   1.000  C
  H276     1.0000 0.52682  0.40232  0.91732  Biso   1.000  H
  C398     1.0000 0.44939  0.37091  0.91022  Biso   1.000  C
  C399     1.0000 0.84641  0.34690  0.27101  Biso   1.000  C
  C400     1.0000 0.87149  0.50349  0.92210  Biso   1.000  C
  C401     1.0000 0.42111  0.17030  0.33722  Biso   1.000  C
  C402     1.0000 0.36918  0.12209  0.25681  Biso   1.000  C
  N43      1.0000 0.53611  0.15720  0.22382  Biso   1.000  N
  H277     1.0000 0.51949  0.17921  0.30390  Biso   1.000  H
  C403     1.0000 0.47501  0.10031  0.30121  Biso   1.000  C
  N44      1.0000 0.55350  0.34301  0.88322  Biso   1.000  N
  H278     1.0000 0.47841  0.29491  0.89240  Biso   1.000  H
  C404     1.0000 0.48970  0.33331  0.81051  Biso   1.000  C
  C405     1.0000 0.40231  0.33161  0.92312  Biso   1.000  C
  C406     1.0000 0.45632  0.41511  0.88679  Biso   1.000  C
  C407     1.0000 0.83340  0.29590  0.24062  Biso   1.000  C
  H279     1.0000 0.82078  0.34029  0.30390  Biso   1.000  H
  C408     1.0000 0.89970  0.37468  0.30121  Biso   1.000  C
  C409     1.0000 0.82928  0.49919  0.87719  Biso   1.000  C
  H280     1.0000 0.87551  0.47321  0.91732  Biso   1.000  H
  C410     1.0000 0.92149  0.55060  0.91022  Biso   1.000  C
  C411     1.0000 0.37840  0.15739  0.37498  Biso   1.000  C
  H281     1.0000 0.45371  0.19242  0.35350  Biso   1.000  H
  C412     1.0000 0.32721  0.10831  0.28980  Biso   1.000  C
  H282     1.0000 0.36591  0.11031  0.21542  Biso   1.000  H
  C413     1.0000 0.58320  0.18710  0.23129  Biso   1.000  C
  C414     1.0000 0.45279  0.05901  0.26242  Biso   1.000  C
  C415     1.0000 0.47380  0.09619  0.36362  Biso   1.000  C
  C416     1.0000 0.56491  0.31130  0.90479  Biso   1.000  C
  C417     1.0000 0.44612  0.29401  0.78309  Biso   1.000  C
  C418     1.0000 0.52181  0.37170  0.77122  Biso   1.000  C
  H283     1.0000 0.39829  0.30069  0.93862  Biso   1.000  H
  C419     1.0000 0.36069  0.33689  0.91379  Biso   1.000  C
  C420     1.0000 0.41200  0.41991  0.87719  Biso   1.000  C
  H284     1.0000 0.48899  0.44199  0.87709  Biso   1.000  H
  N45      1.0000 0.77829  0.26819  0.22800  Biso   1.000  N
  H285     1.0000 0.85180  0.30280  0.20030  Biso   1.000  H
  C421     1.0000 0.84721  0.26441  0.28029  Biso   1.000  C
  C422     1.0000 0.94100  0.39378  0.26242  Biso   1.000  C
  C423     1.0000 0.90380  0.37759  0.36362  Biso   1.000  C
  N46      1.0000 0.78950  0.44649  0.88322  Biso   1.000  N
  H286     1.0000 0.81650  0.52161  0.89240  Biso   1.000  H
  C424     1.0000 0.84360  0.51028  0.81051  Biso   1.000  C
  C425     1.0000 0.92932  0.59772  0.92312  Biso   1.000  C
  C426     1.0000 0.95881  0.54369  0.88679  Biso   1.000  C
  C427     1.0000 0.33239  0.12730  0.35090  Biso   1.000  C
  H287     1.0000 0.38219  0.16969  0.41618  Biso   1.000  H
  H288     1.0000 0.29482  0.08641  0.27272  Biso   1.000  H
  C428     1.0000 0.62151  0.19310  0.18652  Biso   1.000  C
  H289     1.0000 0.59400  0.20680  0.26808  Biso   1.000  H
  H290     1.0000 0.45399  0.06331  0.21872  Biso   1.000  H
  C429     1.0000 0.42841  0.01091  0.28850  Biso   1.000  C
  C430     1.0000 0.45121  0.04840  0.39108  Biso   1.000  C
  H291     1.0000 0.48830  0.12571  0.38881  Biso   1.000  H
  C431     1.0000 0.61588  0.32228  0.90920  Biso   1.000  C
  H292     1.0000 0.53859  0.27940  0.91848  Biso   1.000  H
  H293     1.0000 0.42220  0.26690  0.80801  Biso   1.000  H
  C432     1.0000 0.43749  0.29461  0.71739  Biso   1.000  C
  C433     1.0000 0.51551  0.37310  0.71048  Biso   1.000  C
  H294     1.0000 0.55071  0.39948  0.78922  Biso   1.000  H
  H295     1.0000 0.32769  0.31001  0.92279  Biso   1.000  H
  C434     1.0000 0.36798  0.38208  0.89111  Biso   1.000  C
  H296     1.0000 0.41521  0.45018  0.86099  Biso   1.000  H
  C435     1.0000 0.76272  0.25222  0.17492  Biso   1.000  C
  C436     1.0000 0.82968  0.25078  0.33722  Biso   1.000  C
  C437     1.0000 0.87788  0.24708  0.25681  Biso   1.000  C
  H297     1.0000 0.93671  0.39069  0.21872  Biso   1.000  H
  C438     1.0000 0.98911  0.41749  0.28850  Biso   1.000  C
  C439     1.0000 0.95159  0.40281  0.39108  Biso   1.000  C
  H298     1.0000 0.87431  0.36260  0.38881  Biso   1.000  H
  C440     1.0000 0.74639  0.43508  0.90479  Biso   1.000  C
  C441     1.0000 0.84791  0.55389  0.78309  Biso   1.000  C
  C442     1.0000 0.84991  0.47820  0.77122  Biso   1.000  C
  H299     1.0000 0.90242  0.60172  0.93862  Biso   1.000  H
  C443     1.0000 0.97619  0.63928  0.91379  Biso   1.000  C
  H300     1.0000 0.95299  0.51100  0.87709  Biso   1.000  H
  C444     1.0000 0.00791  0.58802  0.87719  Biso   1.000  C
  F39      1.0000 0.29010  0.11601  0.38371  Biso   1.000  F
  C445     1.0000 0.60571  0.17241  0.12560  Biso   1.000  C
  C446     1.0000 0.67100  0.21839  0.19979  Biso   1.000  C
  C447     1.0000 0.42751  0.00642  0.35220  Biso   1.000  C
  H301     1.0000 0.41279  0.98169  0.26289  Biso   1.000  H
  H302     1.0000 0.45201  0.04470  0.43479  Biso   1.000  H
  C448     1.0000 0.65660  0.37279  0.90990  Biso   1.000  C
  C449     1.0000 0.62721  0.28381  0.90990  Biso   1.000  C
  H303     1.0000 0.40789  0.26849  0.69842  Biso   1.000  H
  C450     1.0000 0.47291  0.33361  0.68371  Biso   1.000  C
  H304     1.0000 0.53962  0.40032  0.68598  Biso   1.000  H
  F40      1.0000 0.32489  0.38450  0.87951  Biso   1.000  F
  C451     1.0000 0.70789  0.22390  0.15821  Biso   1.000  C
  H305     1.0000 0.78672  0.25811  0.14332  Biso   1.000  H
  H306     1.0000 0.80761  0.26131  0.35350  Biso   1.000  H
  C452     1.0000 0.84261  0.22100  0.37498  Biso   1.000  C
  C453     1.0000 0.89170  0.21888  0.28980  Biso   1.000  C
  H307     1.0000 0.88970  0.25561  0.21542  Biso   1.000  H
  C454     1.0000 0.99360  0.42112  0.35220  Biso   1.000  C
  H308     1.0000 0.01830  0.43108  0.26289  Biso   1.000  H
  H309     1.0000 0.95531  0.40730  0.43479  Biso   1.000  H
  C455     1.0000 0.70638  0.38408  0.90920  Biso   1.000  C
  H310     1.0000 0.74078  0.46140  0.91848  Biso   1.000  H
  H311     1.0000 0.84468  0.57778  0.80801  Biso   1.000  H
  C456     1.0000 0.85711  0.56250  0.71739  Biso   1.000  C
  C457     1.0000 0.85761  0.48450  0.71048  Biso   1.000  C
  H312     1.0000 0.84881  0.44932  0.78922  Biso   1.000  H
  H313     1.0000 0.98231  0.67231  0.92279  Biso   1.000  H
  C458     1.0000 0.01410  0.63200  0.89111  Biso   1.000  C
  H314     1.0000 0.03501  0.58481  0.86099  Biso   1.000  H
  C459     1.0000 0.64209  0.17788  0.08259  Biso   1.000  C
  H315     1.0000 0.57101  0.15538  0.11469  Biso   1.000  H
  H316     1.0000 0.68121  0.23330  0.23960  Biso   1.000  H
  F41      1.0000 0.40737  0.96059  0.37981  Biso   1.000  F
  H317     1.0000 0.64940  0.39960  0.91101  Biso   1.000  H
  C460     1.0000 0.67771  0.29359  0.90920  Biso   1.000  C
  H318     1.0000 0.60040  0.24980  0.91101  Biso   1.000  H
  F42      1.0000 0.46460  0.33229  0.62219  Biso   1.000  F
  C461     1.0000 0.69321  0.20291  0.09929  Biso   1.000  C
  H319     1.0000 0.83032  0.21250  0.41618  Biso   1.000  H
  C462     1.0000 0.87272  0.20510  0.35090  Biso   1.000  C
  H320     1.0000 0.91359  0.20839  0.27272  Biso   1.000  H
  F43      1.0000 0.03939  0.44679  0.37981  Biso   1.000  F
  C463     1.0000 0.71621  0.34339  0.90990  Biso   1.000  C
  H321     1.0000 0.86060  0.59209  0.69842  Biso   1.000  H
  C464     1.0000 0.86069  0.52708  0.68371  Biso   1.000  C
  H322     1.0000 0.86070  0.46042  0.68598  Biso   1.000  H
  F44      1.0000 0.05959  0.67511  0.87951  Biso   1.000  F
  C465     1.0000 0.62580  0.15761  0.01990  Biso   1.000  C
  C466     1.0000 0.68871  0.25361  0.90479  Biso   1.000  C
  H323     1.0000 0.71789  0.20559  0.07038  Biso   1.000  H
  F45      1.0000 0.88399  0.17411  0.38371  Biso   1.000  F
  H324     1.0000 0.75018  0.35060  0.91101  Biso   1.000  H
  F46      1.0000 0.86769  0.53539  0.62219  Biso   1.000  F
  H325     1.0000 0.59411  0.15210  0.00538  Biso   1.000  H
  N47      1.0000 0.65151  0.14731  0.98511  Biso   1.000  N
  N48      1.0000 0.65699  0.21050  0.88322  Biso   1.000  N
  H326     1.0000 0.72060  0.25920  0.91848  Biso   1.000  H
  C467     1.0000 0.63201  0.12851  0.92210  Biso   1.000  C
  C468     1.0000 0.66992  0.17071  0.87719  Biso   1.000  C
  H327     1.0000 0.59771  0.12450  0.91732  Biso   1.000  H
  C469     1.0000 0.62910  0.07849  0.91022  Biso   1.000  C
  H328     1.0000 0.70512  0.18351  0.89240  Biso   1.000  H
  C470     1.0000 0.66669  0.15640  0.81051  Biso   1.000  C
  C471     1.0000 0.66840  0.07071  0.92312  Biso   1.000  C
  C472     1.0000 0.58489  0.04119  0.88679  Biso   1.000  C
  C473     1.0000 0.70599  0.15210  0.78309  Biso   1.000  C
  C474     1.0000 0.62829  0.15010  0.77122  Biso   1.000  C
  H329     1.0000 0.69930  0.09759  0.93862  Biso   1.000  H
  C475     1.0000 0.66308  0.02378  0.91379  Biso   1.000  C
  C476     1.0000 0.58009  0.99211  0.87719  Biso   1.000  C
  H330     1.0000 0.55801  0.04700  0.87709  Biso   1.000  H
  H331     1.0000 0.73310  0.15531  0.80801  Biso   1.000  H
  C477     1.0000 0.70541  0.14289  0.71739  Biso   1.000  C
  C478     1.0000 0.62689  0.14240  0.71048  Biso   1.000  C
  H332     1.0000 0.60049  0.15119  0.78922  Biso   1.000  H
  C479     1.0000 0.61793  0.98592  0.89111  Biso   1.000  C
  H333     1.0000 0.68999  0.01771  0.92279  Biso   1.000  H
  H334     1.0000 0.54980  0.96500  0.86099  Biso   1.000  H
  H335     1.0000 0.73149  0.13942  0.69842  Biso   1.000  H
  C480     1.0000 0.66641  0.13930  0.68371  Biso   1.000  C
  H336     1.0000 0.59971  0.13930  0.68598  Biso   1.000  H
  F47      1.0000 0.61550  0.94039  0.87951  Biso   1.000  F
  F48      1.0000 0.66772  0.13232  0.62219  Biso   1.000  F
  C481     1.0000 0.99643  0.69047  0.58048  Biso   1.000  C
  C482     1.0000 0.00173  0.73736  0.58976  Biso   1.000  C
  H337     1.0000 0.02332  0.68436  0.58948  Biso   1.000  H
  C483     1.0000 0.95122  0.65257  0.55779  Biso   1.000  C
  H338     1.0000 0.03264  0.76428  0.60525  Biso   1.000  H
  C484     1.0000 0.96245  0.74517  0.57686  Biso   1.000  C
  C485     1.0000 0.91342  0.65876  0.54387  Biso   1.000  C
  F49      1.0000 0.94885  0.60708  0.54619  Biso   1.000  F
  C486     1.0000 0.96534  0.79516  0.58878  Biso   1.000  C
  C487     1.0000 0.91823  0.70788  0.55347  Biso   1.000  C
  H339     1.0000 0.88313  0.63166  0.52768  Biso   1.000  H
  C488     1.0000 0.00324  0.83736  0.54387  Biso   1.000  C
  N49      1.0000 0.98484  0.81396  0.65179  Biso   1.000  N
  H340     1.0000 0.93103  0.79116  0.58396  Biso   1.000  H
  H341     1.0000 0.89133  0.71365  0.54378  Biso   1.000  H
  H342     1.0000 0.03845  0.85016  0.55909  Biso   1.000  H
  C489     1.0000 0.00001  0.82305  0.47715  Biso   1.000  C
  N50      1.0000 0.99031  0.87715  0.54985  Biso   1.000  N
  C490     1.0000 0.95913  0.82426  0.68659  Biso   1.000  C
  C491     1.0000 0.03932  0.81875  0.44977  Biso   1.000  C
  C492     1.0000 0.96162  0.81675  0.43785  Biso   1.000  C
  C493     1.0000 0.02204  0.92026  0.57147  Biso   1.000  C
  H343     1.0000 0.92744  0.81875  0.67206  Biso   1.000  H
  C494     1.0000 0.97543  0.84457  0.74927  Biso   1.000  C
  H344     1.0000 0.06642  0.82196  0.47464  Biso   1.000  H
  C495     1.0000 0.03875  0.80958  0.38408  Biso   1.000  C
  C496     1.0000 0.96022  0.80905  0.37716  Biso   1.000  C
  H345     1.0000 0.93384  0.81788  0.45585  Biso   1.000  H
  C497     1.0000 0.01105  0.96028  0.57588  Biso   1.000  C
  H346     1.0000 0.05393  0.92585  0.58516  Biso   1.000  H
  C498     1.0000 0.02654  0.86956  0.76597  Biso   1.000  C
  C499     1.0000 0.93903  0.83906  0.79228  Biso   1.000  C
  H347     1.0000 0.06482  0.80607  0.36505  Biso   1.000  H
  C500     1.0000 0.99973  0.80595  0.35035  Biso   1.000  C
  H348     1.0000 0.93304  0.80595  0.35267  Biso   1.000  H
  C501     1.0000 0.96054  0.95047  0.57658  Biso   1.000  C
  C502     1.0000 0.04955  0.01008  0.57658  Biso   1.000  C
  C503     1.0000 0.04122  0.89055  0.82485  Biso   1.000  C
  H349     1.0000 0.05124  0.87228  0.73707  Biso   1.000  H
  H350     1.0000 0.90435  0.82207  0.78138  Biso   1.000  H
  C504     1.0000 0.95484  0.85975  0.85315  Biso   1.000  C
  F50      1.0000 0.00105  0.79897  0.28887  Biso   1.000  F
  H351     1.0000 0.93372  0.91645  0.57765  Biso   1.000  H
  C505     1.0000 0.94922  0.98897  0.57588  Biso   1.000  C
  H352     1.0000 0.08354  0.01725  0.57765  Biso   1.000  H
  C506     1.0000 0.03975  0.05077  0.57588  Biso   1.000  C
  C507     1.0000 0.00435  0.88508  0.86647  Biso   1.000  C
  C508     1.0000 0.09604  0.91887  0.84155  Biso   1.000  C
  C509     1.0000 0.91654  0.85378  0.89797  Biso   1.000  C
  C510     1.0000 0.89823  0.97795  0.57147  Biso   1.000  C
  C511     1.0000 0.98996  0.03945  0.57658  Biso   1.000  C
  C512     1.0000 0.07971  0.10177  0.57147  Biso   1.000  C
  H353     1.0000 0.01453  0.89995  0.90628  Biso   1.000  H
  N51      1.0000 0.11163  0.93487  0.89468  Biso   1.000  N
  H354     1.0000 0.12004  0.92476  0.80996  Biso   1.000  H
  N52      1.0000 0.86946  0.82389  0.89046  Biso   1.000  N
  H355     1.0000 0.92733  0.87345  0.93477  Biso   1.000  H
  H356     1.0000 0.87192  0.94605  0.58516  Biso   1.000  H
  N53      1.0000 0.88685  0.00966  0.54985  Biso   1.000  N
  H357     1.0000 0.98273  0.06625  0.57765  Biso   1.000  H
  N54      1.0000 0.12281  0.11317  0.54985  Biso   1.000  N
  H358     1.0000 0.07411  0.12805  0.58516  Biso   1.000  H
  C513     1.0000 0.16675  0.96258  0.90725  Biso   1.000  C
  C514     1.0000 0.83384  0.82026  0.93769  Biso   1.000  C
  C515     1.0000 0.83414  0.99675  0.54387  Biso   1.000  C
  C516     1.0000 0.16266  0.16587  0.54387  Biso   1.000  C
  H359     1.0000 0.18512  0.96945  0.86698  Biso   1.000  H
  C517     1.0000 0.18054  0.93106  0.94697  Biso   1.000  C
  C518     1.0000 0.17971  0.01355  0.93769  Biso   1.000  C
  C519     1.0000 0.79584  0.83325  0.90725  Biso   1.000  C
  H360     1.0000 0.85282  0.84586  0.97058  Biso   1.000  H
  C520     1.0000 0.80833  0.76696  0.96785  Biso   1.000  C
  H361     1.0000 0.81174  0.96156  0.55909  Biso   1.000  H
  C521     1.0000 0.82302  0.99996  0.47715  Biso   1.000  C
  C522     1.0000 0.82981  0.03465  0.58878  Biso   1.000  C
  H362     1.0000 0.14986  0.18826  0.55909  Biso   1.000  H
  C523     1.0000 0.20486  0.17018  0.58878  Biso   1.000  C
  C524     1.0000 0.17694  0.17697  0.47715  Biso   1.000  C
  C525     1.0000 0.21123  0.91377  0.92344  Biso   1.000  C
  C526     1.0000 0.16302  0.91747  0.00385  Biso   1.000  C
  N55      1.0000 0.17616  0.04556  0.89046  Biso   1.000  N
  H363     1.0000 0.15416  0.00698  0.97058  Biso   1.000  H
  C527     1.0000 0.23301  0.04137  0.96785  Biso   1.000  C
  N56      1.0000 0.82323  0.88836  0.89468  Biso   1.000  N
  H364     1.0000 0.78432  0.81486  0.86698  Biso   1.000  H
  C528     1.0000 0.75053  0.81947  0.94697  Biso   1.000  C
  C529     1.0000 0.78611  0.72566  0.92906  Biso   1.000  C
  C530     1.0000 0.80714  0.76288  0.03025  Biso   1.000  C
  C531     1.0000 0.77944  0.96066  0.44977  Biso   1.000  C
  C532     1.0000 0.85514  0.03835  0.43785  Biso   1.000  C
  N57      1.0000 0.82913  0.01517  0.65179  Biso   1.000  N
  H365     1.0000 0.86011  0.06897  0.58396  Biso   1.000  H
  C533     1.0000 0.78271  0.03756  0.57686  Biso   1.000  C
  N58      1.0000 0.18604  0.17086  0.65179  Biso   1.000  N
  H366     1.0000 0.20886  0.13986  0.58396  Biso   1.000  H
  C534     1.0000 0.25482  0.21725  0.57686  Biso   1.000  C
  C535     1.0000 0.18125  0.22058  0.44977  Biso   1.000  C
  C536     1.0000 0.18321  0.14485  0.43785  Biso   1.000  C
  C537     1.0000 0.22505  0.88557  0.95648  Biso   1.000  C
  H367     1.0000 0.22303  0.92227  0.88206  Biso   1.000  H
  H368     1.0000 0.14094  0.92797  0.02018  Biso   1.000  H
  C538     1.0000 0.17595  0.88769  0.04166  Biso   1.000  C
  C539     1.0000 0.14626  0.06278  0.89797  Biso   1.000  C
  C540     1.0000 0.27434  0.06047  0.92906  Biso   1.000  C
  C541     1.0000 0.23715  0.04428  0.03025  Biso   1.000  C
  C542     1.0000 0.82282  0.90396  0.84155  Biso   1.000  C
  C543     1.0000 0.70253  0.78878  0.92344  Biso   1.000  C
  C544     1.0000 0.75445  0.83699  0.00385  Biso   1.000  C
  H369     1.0000 0.78732  0.72996  0.88535  Biso   1.000  H
  C545     1.0000 0.76174  0.67756  0.95518  Biso   1.000  C
  C546     1.0000 0.78454  0.71505  0.05776  Biso   1.000  C
  H370     1.0000 0.82162  0.79236  0.05544  Biso   1.000  H
  H371     1.0000 0.75553  0.93355  0.47464  Biso   1.000  H
  C547     1.0000 0.77082  0.96126  0.38408  Biso   1.000  C
  C548     1.0000 0.84880  0.03975  0.37716  Biso   1.000  C
  H372     1.0000 0.88405  0.06617  0.45585  Biso   1.000  H
  C549     1.0000 0.86513  0.04088  0.68659  Biso   1.000  C
  C550     1.0000 0.73564  0.99826  0.58976  Biso   1.000  C
  C551     1.0000 0.78962  0.08176  0.55347  Biso   1.000  C
  C552     1.0000 0.17575  0.13484  0.68659  Biso   1.000  C
  C553     1.0000 0.26265  0.26437  0.58976  Biso   1.000  C
  C554     1.0000 0.29213  0.21035  0.55347  Biso   1.000  C
  H373     1.0000 0.17806  0.24447  0.47464  Biso   1.000  H
  C555     1.0000 0.19044  0.22915  0.38408  Biso   1.000  C
  C556     1.0000 0.19094  0.15115  0.37716  Biso   1.000  C
  H374     1.0000 0.18214  0.11597  0.45585  Biso   1.000  H
  H375     1.0000 0.24693  0.87508  0.93936  Biso   1.000  H
  C557     1.0000 0.20604  0.87175  0.01758  Biso   1.000  C
  H376     1.0000 0.16364  0.87915  0.08287  Biso   1.000  H
  C558     1.0000 0.14020  0.09505  0.85315  Biso   1.000  C
  H377     1.0000 0.12650  0.05387  0.93477  Biso   1.000  H
  H378     1.0000 0.27002  0.05738  0.88535  Biso   1.000  H
  C559     1.0000 0.32245  0.08418  0.95518  Biso   1.000  C
  C560     1.0000 0.28492  0.06946  0.05776  Biso   1.000  C
  H379     1.0000 0.20763  0.02925  0.05544  Biso   1.000  H
  C561     1.0000 0.84935  0.95877  0.82485  Biso   1.000  C
  H380     1.0000 0.80475  0.87998  0.80996  Biso   1.000  H
  C562     1.0000 0.66054  0.77496  0.95648  Biso   1.000  C
  H381     1.0000 0.69923  0.77696  0.88206  Biso   1.000  H
  H382     1.0000 0.78704  0.85907  0.02018  Biso   1.000  H
  C563     1.0000 0.71174  0.82407  0.04166  Biso   1.000  C
  H383     1.0000 0.74613  0.64838  0.92957  Biso   1.000  H
  C564     1.0000 0.76083  0.67307  0.01888  Biso   1.000  C
  H384     1.0000 0.78533  0.71135  0.10147  Biso   1.000  H
  H385     1.0000 0.74123  0.93518  0.36505  Biso   1.000  H
  C565     1.0000 0.80624  0.00026  0.35035  Biso   1.000  C
  H386     1.0000 0.87294  0.06697  0.35267  Biso   1.000  H
  H387     1.0000 0.89133  0.07255  0.67206  Biso   1.000  H
  C566     1.0000 0.86914  0.02457  0.74927  Biso   1.000  C
  H388     1.0000 0.73164  0.96738  0.60525  Biso   1.000  H
  C567     1.0000 0.69404  0.00354  0.58048  Biso   1.000  C
  C568     1.0000 0.74533  0.08656  0.54387  Biso   1.000  C
  H389     1.0000 0.82231  0.10864  0.54378  Biso   1.000  H
  H390     1.0000 0.18122  0.10864  0.67206  Biso   1.000  H
  C569     1.0000 0.15546  0.13088  0.74927  Biso   1.000  C
  H391     1.0000 0.23571  0.26837  0.60525  Biso   1.000  H
  C570     1.0000 0.30954  0.30597  0.58048  Biso   1.000  C
  C571     1.0000 0.34123  0.25467  0.54387  Biso   1.000  C
  H392     1.0000 0.28635  0.17765  0.54378  Biso   1.000  H
  H393     1.0000 0.19394  0.25878  0.36505  Biso   1.000  H
  C572     1.0000 0.19404  0.19377  0.35035  Biso   1.000  C
  H394     1.0000 0.19403  0.12707  0.35267  Biso   1.000  H
  F51      1.0000 0.21732  0.84076  0.05039  Biso   1.000  F
  C573     1.0000 0.16096  0.09996  0.79228  Biso   1.000  C
  C574     1.0000 0.11493  0.11925  0.86647  Biso   1.000  C
  H395     1.0000 0.35161  0.09777  0.92957  Biso   1.000  H
  C575     1.0000 0.32693  0.08777  0.01888  Biso   1.000  C
  H396     1.0000 0.28863  0.07395  0.10147  Biso   1.000  H
  C576     1.0000 0.88073  0.99565  0.86647  Biso   1.000  C
  C577     1.0000 0.84302  0.97346  0.76597  Biso   1.000  C
  H397     1.0000 0.62814  0.75306  0.93936  Biso   1.000  H
  C578     1.0000 0.66572  0.79395  0.01758  Biso   1.000  C
  H398     1.0000 0.71554  0.83638  0.08287  Biso   1.000  H
  F52      1.0000 0.74075  0.62728  0.04644  Biso   1.000  F
  F53      1.0000 0.79795  0.99898  0.28887  Biso   1.000  F
  C579     1.0000 0.90002  0.06096  0.79228  Biso   1.000  C
  H399     1.0000 0.66102  0.97667  0.58948  Biso   1.000  H
  C580     1.0000 0.70136  0.04877  0.55779  Biso   1.000  C
  H400     1.0000 0.74852  0.11687  0.52768  Biso   1.000  H
  C581     1.0000 0.13045  0.15697  0.76597  Biso   1.000  C
  H401     1.0000 0.31564  0.33896  0.58948  Biso   1.000  H
  C582     1.0000 0.34740  0.29865  0.55779  Biso   1.000  C
  H402     1.0000 0.36833  0.25146  0.52768  Biso   1.000  H
  F54      1.0000 0.20103  0.20208  0.28887  Biso   1.000  F
  H403     1.0000 0.17790  0.08226  0.78138  Biso   1.000  H
  H404     1.0000 0.10003  0.11457  0.90628  Biso   1.000  H
  C583     1.0000 0.10941  0.15066  0.82485  Biso   1.000  C
  F55      1.0000 0.37274  0.11348  0.04644  Biso   1.000  F
  H405     1.0000 0.88545  0.98546  0.90628  Biso   1.000  H
  C584     1.0000 0.90493  0.04515  0.85315  Biso   1.000  C
  H406     1.0000 0.82103  0.94877  0.73707  Biso   1.000  H
  F56      1.0000 0.62342  0.78266  0.05039  Biso   1.000  F
  H407     1.0000 0.91772  0.09566  0.78138  Biso   1.000  H
  F57      1.0000 0.65825  0.05115  0.54619  Biso   1.000  F
  H408     1.0000 0.12776  0.17897  0.73707  Biso   1.000  H
  F58      1.0000 0.39292  0.34176  0.54619  Biso   1.000  F
  C585     1.0000 0.08114  0.17716  0.84155  Biso   1.000  C
  C586     1.0000 0.93726  0.08346  0.89797  Biso   1.000  C
  N59      1.0000 0.06511  0.17675  0.89468  Biso   1.000  N
  H409     1.0000 0.07521  0.19525  0.80996  Biso   1.000  H
  N60      1.0000 0.95444  0.13058  0.89046  Biso   1.000  N
  H410     1.0000 0.94615  0.07267  0.93477  Biso   1.000  H
  C587     1.0000 0.03746  0.20415  0.90725  Biso   1.000  C
  C588     1.0000 0.98643  0.16618  0.93769  Biso   1.000  C
  H411     1.0000 0.03056  0.21567  0.86698  Biso   1.000  H
  C589     1.0000 0.06894  0.24946  0.94697  Biso   1.000  C
  H412     1.0000 0.99300  0.14715  0.97058  Biso   1.000  H
  C590     1.0000 0.95860  0.19166  0.96785  Biso   1.000  C
  C591     1.0000 0.08621  0.29748  0.92344  Biso   1.000  C
  C592     1.0000 0.08255  0.24557  0.00385  Biso   1.000  C
  C593     1.0000 0.93955  0.21386  0.92906  Biso   1.000  C
  C594     1.0000 0.95570  0.19287  0.03025  Biso   1.000  C
  C595     1.0000 0.11443  0.33946  0.95648  Biso   1.000  C
  H413     1.0000 0.07775  0.30076  0.88206  Biso   1.000  H
  H414     1.0000 0.07200  0.21295  0.02018  Biso   1.000  H
  C596     1.0000 0.11231  0.28826  0.04166  Biso   1.000  C
  H415     1.0000 0.94264  0.21265  0.88535  Biso   1.000  H
  C597     1.0000 0.91582  0.23824  0.95518  Biso   1.000  C
  C598     1.0000 0.93056  0.21548  0.05776  Biso   1.000  C
  H416     1.0000 0.97075  0.17837  0.05544  Biso   1.000  H
  H417     1.0000 0.12490  0.37185  0.93936  Biso   1.000  H
  C599     1.0000 0.12823  0.33425  0.01758  Biso   1.000  C
  H418     1.0000 0.12083  0.28445  0.08287  Biso   1.000  H
  H419     1.0000 0.90225  0.25387  0.92957  Biso   1.000  H
  C600     1.0000 0.91222  0.23915  0.01888  Biso   1.000  C
  H420     1.0000 0.92606  0.21465  0.10147  Biso   1.000  H
  F59      1.0000 0.15920  0.37657  0.05039  Biso   1.000  F
  F60      1.0000 0.88651  0.25927  0.04644  Biso   1.000  F
  C601     1.0000 0.02022  0.32776  0.44899  Biso   1.000  C
  C602     1.0000 0.99973  0.27487  0.43715  Biso   1.000  C
  H421     1.0000 0.99915  0.34067  0.46147  Biso   1.000  H
  C603     1.0000 0.06913  0.35796  0.44207  Biso   1.000  C
  C604     1.0000 0.03193  0.25728  0.41878  Biso   1.000  C
  H422     1.0000 0.96465  0.25218  0.44198  Biso   1.000  H
  C605     1.0000 0.10323  0.34188  0.42356  Biso   1.000  C
  F61      1.0000 0.08864  0.40817  0.45595  Biso   1.000  F
  C606     1.0000 0.01034  0.20238  0.40588  Biso   1.000  C
  C607     1.0000 0.08233  0.29178  0.41136  Biso   1.000  C
  H423     1.0000 0.13853  0.36468  0.41976  Biso   1.000  H
  N61      1.0000 0.02383  0.19517  0.34315  Biso   1.000  N
  H424     1.0000 0.97273  0.18498  0.40955  Biso   1.000  H
  C608     1.0000 0.03103  0.17838  0.45247  Biso   1.000  C
  H425     1.0000 0.10383  0.27985  0.39697  Biso   1.000  H
  C609     1.0000 0.99033  0.16086  0.31017  Biso   1.000  C
  N62      1.0000 0.00704  0.12386  0.43836  Biso   1.000  N
  H426     1.0000 0.06833  0.19427  0.44685  Biso   1.000  H
  C610     1.0000 0.02005  0.18408  0.51807  Biso   1.000  C
  C611     1.0000 0.00102  0.14897  0.24836  Biso   1.000  C
  H427     1.0000 0.95703  0.14206  0.32608  Biso   1.000  H
  C612     1.0000 0.03655  0.10657  0.42648  Biso   1.000  C
  C613     1.0000 0.97023  0.16218  0.54039  Biso   1.000  C
  C614     1.0000 0.05724  0.20616  0.56057  Biso   1.000  C
  C615     1.0000 0.96112  0.11997  0.20675  Biso   1.000  C
  C616     1.0000 0.05011  0.16705  0.22916  Biso   1.000  C
  C617     1.0000 0.01756  0.05198  0.41818  Biso   1.000  C
  H428     1.0000 0.07175  0.12956  0.42286  Biso   1.000  H
  H429     1.0000 0.94361  0.14485  0.51148  Biso   1.000  H
  C618     1.0000 0.95764  0.16395  0.59978  Biso   1.000  C
  C619     1.0000 0.04493  0.20408  0.62585  Biso   1.000  C
  H430     1.0000 0.09143  0.22315  0.54767  Biso   1.000  H
  C620     1.0000 0.97154  0.11106  0.14578  Biso   1.000  C
  H431     1.0000 0.92713  0.10646  0.21988  Biso   1.000  H
  C621     1.0000 0.06202  0.15765  0.16967  Biso   1.000  C
  H432     1.0000 0.07672  0.18645  0.25737  Biso   1.000  H
  C622     1.0000 0.96542  0.01676  0.41739  Biso   1.000  C
  C623     1.0000 0.05132  0.03458  0.41739  Biso   1.000  C
  H433     1.0000 0.92351  0.15225  0.61138  Biso   1.000  H
  C624     1.0000 0.99303  0.18196  0.64019  Biso   1.000  C
  H434     1.0000 0.07024  0.21665  0.65708  Biso   1.000  H
  C625     1.0000 0.93123  0.08268  0.10235  Biso   1.000  C
  C626     1.0000 0.02114  0.12956  0.12829  Biso   1.000  C
  C627     1.0000 0.11515  0.17668  0.15228  Biso   1.000  C
  C628     1.0000 0.94803  0.96557  0.41818  Biso   1.000  C
  H435     1.0000 0.94195  0.02846  0.41637  Biso   1.000  H
  C629     1.0000 0.03446  0.98248  0.41818  Biso   1.000  C
  H436     1.0000 0.08654  0.05806  0.41637  Biso   1.000  H
  F62      1.0000 0.98282  0.18038  0.70366  Biso   1.000  F
  N63      1.0000 0.88442  0.06486  0.11516  Biso   1.000  N
  H437     1.0000 0.93974  0.07675  0.06199  Biso   1.000  H
  H438     1.0000 0.02814  0.12337  0.08727  Biso   1.000  H
  N64      1.0000 0.12921  0.17166  0.09818  Biso   1.000  N
  H439     1.0000 0.14035  0.19348  0.18294  Biso   1.000  H
  C630     1.0000 0.89342  0.92997  0.42648  Biso   1.000  C
  C631     1.0000 0.98325  0.94866  0.41739  Biso   1.000  C
  C632     1.0000 0.07003  0.96346  0.42648  Biso   1.000  C
  C633     1.0000 0.84782  0.04115  0.06598  Biso   1.000  C
  C634     1.0000 0.18224  0.19317  0.08676  Biso   1.000  C
  N65      1.0000 0.87613  0.88316  0.43836  Biso   1.000  N
  H440     1.0000 0.87045  0.94216  0.42286  Biso   1.000  H
  H441     1.0000 0.97155  0.91347  0.41637  Biso   1.000  H
  N66      1.0000 0.11687  0.99298  0.43836  Biso   1.000  N
  H442     1.0000 0.05784  0.92827  0.42286  Biso   1.000  H
  C635     1.0000 0.82583  0.07479  0.05006  Biso   1.000  C
  H443     1.0000 0.86502  0.03756  0.02858  Biso   1.000  H
  C636     1.0000 0.80685  0.98909  0.08676  Biso   1.000  C
  C637     1.0000 0.19333  0.15218  0.06598  Biso   1.000  C
  H444     1.0000 0.20063  0.20778  0.12657  Biso   1.000  H
  C638     1.0000 0.19953  0.23625  0.03958  Biso   1.000  C
  C639     1.0000 0.82161  0.85266  0.45247  Biso   1.000  C
  C640     1.0000 0.14736  0.96897  0.45247  Biso   1.000  C
  C641     1.0000 0.80665  0.09147  0.09609  Biso   1.000  C
  C642     1.0000 0.82544  0.08917  0.98868  Biso   1.000  C
  N67      1.0000 0.82833  0.95757  0.09818  Biso   1.000  N
  H445     1.0000 0.79223  0.99286  0.12657  Biso   1.000  H
  C643     1.0000 0.76373  0.96327  0.03958  Biso   1.000  C
  N68      1.0000 0.18041  0.11556  0.11516  Biso   1.000  N
  H446     1.0000 0.17253  0.13496  0.02858  Biso   1.000  H
  C644     1.0000 0.24896  0.17418  0.05006  Biso   1.000  C
  C645     1.0000 0.17753  0.22677  0.98195  Biso   1.000  C
  C646     1.0000 0.23414  0.28408  0.05387  Biso   1.000  C
  C647     1.0000 0.79763  0.80796  0.40588  Biso   1.000  C
  H447     1.0000 0.80570  0.87406  0.44685  Biso   1.000  H
  C648     1.0000 0.81592  0.83597  0.51807  Biso   1.000  C
  C649     1.0000 0.19200  0.98966  0.40588  Biso   1.000  C
  H448     1.0000 0.12590  0.93167  0.44685  Biso   1.000  H
  C650     1.0000 0.16401  0.97995  0.51807  Biso   1.000  C
  C651     1.0000 0.78735  0.12428  0.08115  Biso   1.000  C
  H449     1.0000 0.80623  0.08128  0.13775  Biso   1.000  H
  C652     1.0000 0.80594  0.11948  0.97439  Biso   1.000  C
  H450     1.0000 0.83864  0.07777  0.95666  Biso   1.000  H
  C653     1.0000 0.82335  0.93847  0.15228  Biso   1.000  C
  C654     1.0000 0.77324  0.95077  0.98195  Biso   1.000  C
  C655     1.0000 0.71593  0.95005  0.05387  Biso   1.000  C
  C656     1.0000 0.15143  0.06878  0.10235  Biso   1.000  C
  C657     1.0000 0.26373  0.17456  0.98868  Biso   1.000  C
  C658     1.0000 0.28483  0.19336  0.09609  Biso   1.000  C
  H451     1.0000 0.15394  0.19298  0.97035  Biso   1.000  H
  C659     1.0000 0.18913  0.26618  0.93996  Biso   1.000  C
  C660     1.0000 0.24554  0.32447  0.01327  Biso   1.000  C
  H452     1.0000 0.25134  0.29076  0.09247  Biso   1.000  H
  N69      1.0000 0.80485  0.82868  0.34315  Biso   1.000  N
  H453     1.0000 0.81502  0.78776  0.40955  Biso   1.000  H
  C661     1.0000 0.74276  0.77466  0.41878  Biso   1.000  C
  C662     1.0000 0.83783  0.80807  0.54039  Biso   1.000  C
  C663     1.0000 0.79381  0.85107  0.56057  Biso   1.000  C
  N70      1.0000 0.17137  0.97618  0.34315  Biso   1.000  N
  C664     1.0000 0.22534  0.96806  0.41878  Biso   1.000  C
  H454     1.0000 0.21224  0.02726  0.40955  Biso   1.000  H
  C665     1.0000 0.14891  0.94277  0.56057  Biso   1.000  C
  C666     1.0000 0.19191  0.02975  0.54039  Biso   1.000  C
  C667     1.0000 0.78822  0.13708  0.02037  Biso   1.000  C
  H455     1.0000 0.77434  0.13658  0.11237  Biso   1.000  H
  H456     1.0000 0.80472  0.12835  0.93235  Biso   1.000  H
  C668     1.0000 0.84234  0.90438  0.16967  Biso   1.000  C
  H457     1.0000 0.80657  0.94688  0.18294  Biso   1.000  H
  H458     1.0000 0.80704  0.96097  0.97035  Biso   1.000  H
  C669     1.0000 0.73382  0.92299  0.93996  Biso   1.000  C
  C670     1.0000 0.67551  0.92106  0.01327  Biso   1.000  C
  H459     1.0000 0.70926  0.96059  0.09247  Biso   1.000  H
  C671     1.0000 0.13955  0.02846  0.14578  Biso   1.000  C
  H460     1.0000 0.13703  0.06025  0.06199  Biso   1.000  H
  H461     1.0000 0.23914  0.16135  0.95666  Biso   1.000  H
  C672     1.0000 0.31354  0.19408  0.97439  Biso   1.000  C
  C673     1.0000 0.33691  0.21265  0.08115  Biso   1.000  C
  H462     1.0000 0.27504  0.19378  0.13775  Biso   1.000  H
  H463     1.0000 0.17413  0.25928  0.89997  Biso   1.000  H
  C674     1.0000 0.22155  0.31319  0.95736  Biso   1.000  C
  H464     1.0000 0.26904  0.35826  0.02445  Biso   1.000  H
  C675     1.0000 0.83912  0.82948  0.31017  Biso   1.000  C
  C676     1.0000 0.72512  0.72487  0.43715  Biso   1.000  C
  C677     1.0000 0.70824  0.79056  0.41136  Biso   1.000  C
  H465     1.0000 0.85513  0.79879  0.51148  Biso   1.000  H
  C678     1.0000 0.83603  0.79369  0.59978  Biso   1.000  C
  C679     1.0000 0.79594  0.84088  0.62585  Biso   1.000  C
  H466     1.0000 0.77685  0.86829  0.54767  Biso   1.000  H
  C680     1.0000 0.17052  0.00966  0.31017  Biso   1.000  C
  C681     1.0000 0.20943  0.91766  0.41136  Biso   1.000  C
  C682     1.0000 0.27512  0.00026  0.43715  Biso   1.000  C
  C683     1.0000 0.15915  0.95508  0.62585  Biso   1.000  C
  H467     1.0000 0.13171  0.90857  0.54767  Biso   1.000  H
  H468     1.0000 0.20123  0.05636  0.51148  Biso   1.000  H
  C684     1.0000 0.20632  0.04236  0.59978  Biso   1.000  C
  F63      1.0000 0.76922  0.16765  0.00668  Biso   1.000  F
  C685     1.0000 0.83293  0.88308  0.22916  Biso   1.000  C
  C686     1.0000 0.87043  0.89158  0.12829  Biso   1.000  C
  H469     1.0000 0.74074  0.91487  0.89997  Biso   1.000  H
  C687     1.0000 0.68685  0.90838  0.95736  Biso   1.000  C
  H470     1.0000 0.64175  0.91076  0.02445  Biso   1.000  H
  C688     1.0000 0.10843  0.97886  0.12829  Biso   1.000  C
  C689     1.0000 0.15885  0.03888  0.20675  Biso   1.000  C
  H471     1.0000 0.32364  0.19525  0.93235  Biso   1.000  H
  C690     1.0000 0.34884  0.21179  0.02037  Biso   1.000  C
  H472     1.0000 0.36223  0.22568  0.11237  Biso   1.000  H
  F64      1.0000 0.23061  0.35275  0.91806  Biso   1.000  F
  C691     1.0000 0.85103  0.85205  0.24836  Biso   1.000  C
  H473     1.0000 0.85796  0.81498  0.32608  Biso   1.000  H
  H474     1.0000 0.74783  0.71249  0.44198  Biso   1.000  H
  C692     1.0000 0.67224  0.69248  0.44899  Biso   1.000  C
  C693     1.0000 0.65811  0.76137  0.42356  Biso   1.000  C
  H475     1.0000 0.72010  0.82397  0.39697  Biso   1.000  H
  H476     1.0000 0.84771  0.77126  0.61138  Biso   1.000  H
  C694     1.0000 0.81801  0.81105  0.64019  Biso   1.000  C
  H477     1.0000 0.78335  0.85356  0.65708  Biso   1.000  H
  C695     1.0000 0.14792  0.99898  0.24836  Biso   1.000  C
  H478     1.0000 0.18505  0.04296  0.32608  Biso   1.000  H
  C696     1.0000 0.23865  0.89679  0.42356  Biso   1.000  C
  H479     1.0000 0.17603  0.89618  0.39697  Biso   1.000  H
  C697     1.0000 0.30753  0.97977  0.44899  Biso   1.000  C
  H480     1.0000 0.28754  0.03537  0.44198  Biso   1.000  H
  H481     1.0000 0.14647  0.92978  0.65708  Biso   1.000  H
  C698     1.0000 0.18893  0.00698  0.64019  Biso   1.000  C
  H482     1.0000 0.22875  0.07648  0.61138  Biso   1.000  H
  H483     1.0000 0.81350  0.89026  0.25737  Biso   1.000  H
  H484     1.0000 0.87663  0.90475  0.08727  Biso   1.000  H
  C699     1.0000 0.88891  0.86047  0.14578  Biso   1.000  C
  F65      1.0000 0.64724  0.87787  0.91806  Biso   1.000  F
  C700     1.0000 0.09564  0.93797  0.16967  Biso   1.000  C
  H485     1.0000 0.09527  0.97188  0.08727  Biso   1.000  H
  H486     1.0000 0.17933  0.07286  0.21988  Biso   1.000  H
  F66      1.0000 0.39845  0.23077  0.00668  Biso   1.000  F
  C701     1.0000 0.88002  0.84118  0.20675  Biso   1.000  C
  H487     1.0000 0.65932  0.65846  0.46147  Biso   1.000  H
  C702     1.0000 0.64203  0.71116  0.44207  Biso   1.000  C
  H488     1.0000 0.63536  0.77387  0.41976  Biso   1.000  H
  F67      1.0000 0.81964  0.80248  0.70366  Biso   1.000  F
  C703     1.0000 0.11695  0.94987  0.22916  Biso   1.000  C
  C704     1.0000 0.28881  0.93088  0.44207  Biso   1.000  C
  H489     1.0000 0.22615  0.86145  0.41976  Biso   1.000  H
  H490     1.0000 0.34153  0.00087  0.46147  Biso   1.000  H
  F68      1.0000 0.19752  0.01718  0.70366  Biso   1.000  F
  C705     1.0000 0.91736  0.84858  0.10235  Biso   1.000  C
  C706     1.0000 0.06153  0.88486  0.15228  Biso   1.000  C
  H491     1.0000 0.89354  0.82068  0.21988  Biso   1.000  H
  F69      1.0000 0.59183  0.68047  0.45595  Biso   1.000  F
  H492     1.0000 0.10975  0.92329  0.25737  Biso   1.000  H
  F70      1.0000 0.31951  0.91140  0.45595  Biso   1.000  F
  N71      1.0000 0.93516  0.81959  0.11516  Biso   1.000  N
  H493     1.0000 0.92321  0.86296  0.06199  Biso   1.000  H
  N72      1.0000 0.04243  0.87078  0.09818  Biso   1.000  N
  H494     1.0000 0.05313  0.85968  0.18294  Biso   1.000  H
  C707     1.0000 0.95885  0.80668  0.06598  Biso   1.000  C
  C708     1.0000 0.01096  0.81777  0.08676  Biso   1.000  C
  H495     1.0000 0.96245  0.82748  0.02858  Biso   1.000  H
  C709     1.0000 0.92526  0.75107  0.05006  Biso   1.000  C
  H496     1.0000 0.00713  0.79939  0.12657  Biso   1.000  H
  C710     1.0000 0.03677  0.80048  0.03958  Biso   1.000  C
  C711     1.0000 0.91083  0.73627  0.98868  Biso   1.000  C
  C712     1.0000 0.90852  0.71517  0.09609  Biso   1.000  C
  C713     1.0000 0.04926  0.82246  0.98195  Biso   1.000  C
  C714     1.0000 0.04996  0.76587  0.05387  Biso   1.000  C
  H497     1.0000 0.92226  0.76088  0.95666  Biso   1.000  H
  C715     1.0000 0.88051  0.68648  0.97439  Biso   1.000  C
  C716     1.0000 0.87574  0.66307  0.08115  Biso   1.000  C
  H498     1.0000 0.91872  0.72498  0.13775  Biso   1.000  H
  H499     1.0000 0.03907  0.84609  0.97035  Biso   1.000  H
  C717     1.0000 0.07704  0.81087  0.93996  Biso   1.000  C
  C718     1.0000 0.07895  0.75447  0.01327  Biso   1.000  C
  H500     1.0000 0.03941  0.74869  0.09247  Biso   1.000  H
  H501     1.0000 0.87162  0.67636  0.93235  Biso   1.000  H
  C719     1.0000 0.86296  0.65118  0.02037  Biso   1.000  C
  H502     1.0000 0.86345  0.63778  0.11237  Biso   1.000  H
  H503     1.0000 0.08516  0.82585  0.89997  Biso   1.000  H
  C720     1.0000 0.09164  0.77848  0.95736  Biso   1.000  C
  H504     1.0000 0.08925  0.73098  0.02445  Biso   1.000  H
  F71      1.0000 0.83234  0.60157  0.00668  Biso   1.000  F
  F72      1.0000 0.12211  0.76938  0.91806  Biso   1.000  F
