data_image0
_cell_length_a       29.175
_cell_length_b       29.175
_cell_length_c       10.882
_cell_angle_alpha    90
_cell_angle_beta     90
_cell_angle_gamma    120

_symmetry_space_group_name_H-M    "P 1"
_symmetry_int_tables_number       1

loop_
  _symmetry_equiv_pos_as_xyz
  'x, y, z'

loop_
  _atom_site_label
  _atom_site_occupancy
  _atom_site_fract_x
  _atom_site_fract_y
  _atom_site_fract_z
  _atom_site_thermal_displace_type
  _atom_site_B_iso_or_equiv
  _atom_site_type_symbol
  C1       1.0000 0.69093  0.62237  0.40388  Biso   1.000  C
  C2       1.0000 0.69002  0.57456  0.43117  Biso   1.000  C
  C3       1.0000 0.71012  0.66227  0.48916  Biso   1.000  C
  H1       1.0000 0.67834  0.62688  0.32687  Biso   1.000  H
  C4       1.0000 0.66452  0.53007  0.33725  Biso   1.000  C
  C5       1.0000 0.70915  0.57017  0.54144  Biso   1.000  C
  C6       1.0000 0.73234  0.65906  0.59594  Biso   1.000  C
  H2       1.0000 0.70783  0.69306  0.47307  Biso   1.000  H
  C7       1.0000 0.61283  0.48337  0.38265  Biso   1.000  C
  N1       1.0000 0.70104  0.50906  0.31777  Biso   1.000  N
  H3       1.0000 0.65862  0.54377  0.25804  Biso   1.000  H
  H4       1.0000 0.70863  0.53815  0.56148  Biso   1.000  H
  C8       1.0000 0.72944  0.61137  0.62571  Biso   1.000  C
  H5       1.0000 0.74944  0.68866  0.64915  Biso   1.000  H
  N2       1.0000 0.59053  0.44427  0.28396  Biso   1.000  N
  H6       1.0000 0.61992  0.46726  0.45607  Biso   1.000  H
  C9       1.0000 0.57392  0.50126  0.41711  Biso   1.000  C
  C10      1.0000 0.71192  0.50435  0.20539  Biso   1.000  C
  H7       1.0000 0.74133  0.60697  0.70364  Biso   1.000  H
  C11      1.0000 0.58243  0.39907  0.30353  Biso   1.000  C
  C12      1.0000 0.56464  0.50546  0.53979  Biso   1.000  C
  C13      1.0000 0.54995  0.51337  0.32705  Biso   1.000  C
  C14      1.0000 0.74682  0.48456  0.16881  Biso   1.000  C
  H8       1.0000 0.69614  0.51448  0.14235  Biso   1.000  H
  C15      1.0000 0.55753  0.35537  0.21586  Biso   1.000  C
  H9       1.0000 0.59305  0.39226  0.38081  Biso   1.000  H
  H10      1.0000 0.58532  0.50055  0.60017  Biso   1.000  H
  C16      1.0000 0.52654  0.51646  0.57618  Biso   1.000  C
  C17      1.0000 0.50963  0.52707  0.36326  Biso   1.000  C
  H11      1.0000 0.55874  0.51306  0.24315  Biso   1.000  H
  C18      1.0000 0.76174  0.45737  0.25060  Biso   1.000  C
  C19      1.0000 0.76735  0.49497  0.04861  Biso   1.000  C
  C20      1.0000 0.54634  0.36487  0.09539  Biso   1.000  C
  C21      1.0000 0.54262  0.30436  0.25060  Biso   1.000  C
  H12      1.0000 0.51722  0.51476  0.66045  Biso   1.000  H
  C22      1.0000 0.50185  0.53007  0.48769  Biso   1.000  C
  H13      1.0000 0.48974  0.53356  0.30371  Biso   1.000  H
  C23      1.0000 0.79781  0.44245  0.21586  Biso   1.000  C
  H14      1.0000 0.74695  0.44918  0.33073  Biso   1.000  H
  C24      1.0000 0.80245  0.47886  0.01296  Biso   1.000  C
  H15      1.0000 0.75712  0.51298  0.99219  Biso   1.000  H
  C25      1.0000 0.52113  0.32355  0.01296  Biso   1.000  C
  H16      1.0000 0.55623  0.39986  0.07085  Biso   1.000  H
  C26      1.0000 0.51544  0.26229  0.16881  Biso   1.000  C
  H17      1.0000 0.55083  0.29775  0.33073  Biso   1.000  H
  H18      1.0000 0.47853  0.54218  0.51351  Biso   1.000  H
  C27      1.0000 0.81853  0.45365  0.09539  Biso   1.000  C
  C28      1.0000 0.81663  0.41755  0.30353  Biso   1.000  C
  C29      1.0000 0.82923  0.49465  0.89248  Biso   1.000  C
  C30      1.0000 0.50503  0.27238  0.04861  Biso   1.000  C
  C31      1.0000 0.50534  0.33456  0.89248  Biso   1.000  C
  C32      1.0000 0.49562  0.20755  0.20539  Biso   1.000  C
  H19      1.0000 0.84364  0.44375  0.07085  Biso   1.000  H
  N3       1.0000 0.85375  0.40948  0.28396  Biso   1.000  N
  H20      1.0000 0.79924  0.40698  0.38081  Biso   1.000  H
  N4       1.0000 0.82385  0.52667  0.82154  Biso   1.000  N
  H21      1.0000 0.85104  0.48076  0.86703  Biso   1.000  H
  H22      1.0000 0.48702  0.24416  0.99219  Biso   1.000  H
  N5       1.0000 0.47334  0.29715  0.82154  Biso   1.000  N
  H23      1.0000 0.51922  0.37026  0.86703  Biso   1.000  H
  N6       1.0000 0.49094  0.19196  0.31777  Biso   1.000  N
  H24      1.0000 0.48552  0.18166  0.14235  Biso   1.000  H
  C33      1.0000 0.87053  0.38716  0.38265  Biso   1.000  C
  C34      1.0000 0.85651  0.54306  0.70970  Biso   1.000  C
  C35      1.0000 0.45692  0.31346  0.70970  Biso   1.000  C
  C36      1.0000 0.46993  0.13445  0.33725  Biso   1.000  C
  C37      1.0000 0.86552  0.33547  0.33725  Biso   1.000  C
  H25      1.0000 0.84735  0.38007  0.45607  Biso   1.000  H
  C38      1.0000 0.92734  0.42606  0.41711  Biso   1.000  C
  C39      1.0000 0.81854  0.52339  0.59695  Biso   1.000  C
  H26      1.0000 0.87955  0.52667  0.70833  Biso   1.000  H
  C40      1.0000 0.89043  0.60246  0.70318  Biso   1.000  C
  C41      1.0000 0.47664  0.29518  0.59695  Biso   1.000  C
  H27      1.0000 0.47334  0.35288  0.70833  Biso   1.000  H
  C42      1.0000 0.39753  0.28797  0.70318  Biso   1.000  C
  H28      1.0000 0.45623  0.11486  0.25804  Biso   1.000  H
  C43      1.0000 0.51662  0.12946  0.38265  Biso   1.000  C
  C44      1.0000 0.42544  0.11545  0.43117  Biso   1.000  C
  N7       1.0000 0.80803  0.29898  0.31777  Biso   1.000  N
  H29      1.0000 0.88513  0.34136  0.25804  Biso   1.000  H
  C45      1.0000 0.88455  0.30998  0.43117  Biso   1.000  C
  C46      1.0000 0.94083  0.43536  0.53979  Biso   1.000  C
  C47      1.0000 0.96345  0.45009  0.32705  Biso   1.000  C
  N8       1.0000 0.78814  0.46568  0.59778  Biso   1.000  N
  H30      1.0000 0.79384  0.53767  0.60219  Biso   1.000  H
  C48      1.0000 0.85052  0.54286  0.47997  Biso   1.000  C
  C49      1.0000 0.94294  0.62597  0.67166  Biso   1.000  C
  C50      1.0000 0.86902  0.63436  0.72064  Biso   1.000  C
  N9       1.0000 0.53434  0.32249  0.59778  Biso   1.000  N
  H31      1.0000 0.46233  0.25615  0.60219  Biso   1.000  H
  C51      1.0000 0.45715  0.30768  0.47997  Biso   1.000  C
  C52      1.0000 0.37405  0.31698  0.67166  Biso   1.000  C
  C53      1.0000 0.36563  0.23466  0.72064  Biso   1.000  C
  N10      1.0000 0.55575  0.14628  0.28396  Biso   1.000  N
  H32      1.0000 0.53271  0.15265  0.45607  Biso   1.000  H
  C54      1.0000 0.49875  0.07267  0.41711  Biso   1.000  C
  C55      1.0000 0.42982  0.13896  0.54144  Biso   1.000  C
  C56      1.0000 0.37762  0.06855  0.40388  Biso   1.000  C
  C57      1.0000 0.79242  0.28805  0.20539  Biso   1.000  C
  C58      1.0000 0.86104  0.29086  0.54144  Biso   1.000  C
  C59      1.0000 0.93143  0.30907  0.40388  Biso   1.000  C
  H33      1.0000 0.91523  0.41466  0.60017  Biso   1.000  H
  C60      1.0000 0.98995  0.47348  0.57618  Biso   1.000  C
  H34      1.0000 0.95434  0.44126  0.24315  Biso   1.000  H
  C61      1.0000 0.01742  0.49038  0.36326  Biso   1.000  C
  C62      1.0000 0.73943  0.44538  0.60972  Biso   1.000  C
  C63      1.0000 0.88413  0.52837  0.44624  Biso   1.000  C
  C64      1.0000 0.84424  0.58287  0.40921  Biso   1.000  C
  H35      1.0000 0.95903  0.60488  0.66118  Biso   1.000  H
  C65      1.0000 0.97132  0.67766  0.65585  Biso   1.000  C
  C66      1.0000 0.90002  0.68827  0.70134  Biso   1.000  C
  H36      1.0000 0.83323  0.61968  0.74573  Biso   1.000  H
  C67      1.0000 0.55464  0.29407  0.60972  Biso   1.000  C
  C68      1.0000 0.47163  0.35577  0.44624  Biso   1.000  C
  C69      1.0000 0.41713  0.26138  0.40921  Biso   1.000  C
  H37      1.0000 0.39514  0.35415  0.66118  Biso   1.000  H
  C70      1.0000 0.32233  0.29367  0.65585  Biso   1.000  C
  C71      1.0000 0.31175  0.21178  0.70134  Biso   1.000  C
  H38      1.0000 0.38034  0.21357  0.74573  Biso   1.000  H
  C72      1.0000 0.60092  0.18337  0.30353  Biso   1.000  C
  C73      1.0000 0.49454  0.05917  0.53979  Biso   1.000  C
  C74      1.0000 0.48663  0.03657  0.32705  Biso   1.000  C
  H39      1.0000 0.46182  0.17046  0.56148  Biso   1.000  H
  C75      1.0000 0.38863  0.11806  0.62571  Biso   1.000  C
  C76      1.0000 0.33772  0.04785  0.48916  Biso   1.000  C
  H40      1.0000 0.37311  0.05145  0.32687  Biso   1.000  H
  C77      1.0000 0.73773  0.25318  0.16881  Biso   1.000  C
  H41      1.0000 0.81833  0.30388  0.14235  Biso   1.000  H
  H42      1.0000 0.82953  0.29138  0.56148  Biso   1.000  H
  C78      1.0000 0.88195  0.27056  0.62571  Biso   1.000  C
  C79      1.0000 0.95213  0.28987  0.48916  Biso   1.000  C
  H43      1.0000 0.94852  0.32165  0.32687  Biso   1.000  H
  H44      1.0000 0.99755  0.48278  0.66045  Biso   1.000  H
  C80      1.0000 0.02825  0.49817  0.48769  Biso   1.000  C
  H45      1.0000 0.04383  0.51028  0.30371  Biso   1.000  H
  C81      1.0000 0.70161  0.38735  0.61276  Biso   1.000  C
  H46      1.0000 0.72543  0.46845  0.61744  Biso   1.000  H
  H47      1.0000 0.88913  0.50368  0.49274  Biso   1.000  H
  C82      1.0000 0.91312  0.55125  0.33670  Biso   1.000  C
  C83      1.0000 0.87074  0.60476  0.30858  Biso   1.000  C
  H48      1.0000 0.81994  0.59296  0.43815  Biso   1.000  H
  C84      1.0000 0.95292  0.71146  0.67175  Biso   1.000  C
  H49      1.0000 0.00722  0.69215  0.63169  Biso   1.000  H
  H50      1.0000 0.88433  0.70988  0.70879  Biso   1.000  H
  C85      1.0000 0.61262  0.31425  0.61276  Biso   1.000  C
  H51      1.0000 0.53154  0.25698  0.61744  Biso   1.000  H
  H52      1.0000 0.49634  0.38545  0.49274  Biso   1.000  H
  C86      1.0000 0.44873  0.36187  0.33670  Biso   1.000  C
  C87      1.0000 0.39523  0.26597  0.30858  Biso   1.000  C
  H53      1.0000 0.40703  0.22698  0.43815  Biso   1.000  H
  H54      1.0000 0.30784  0.31508  0.63169  Biso   1.000  H
  C88      1.0000 0.28855  0.24147  0.67175  Biso   1.000  C
  H55      1.0000 0.29014  0.17446  0.70879  Biso   1.000  H
  C89      1.0000 0.64463  0.20217  0.21586  Biso   1.000  C
  H56      1.0000 0.60774  0.20078  0.38081  Biso   1.000  H
  H57      1.0000 0.49942  0.08478  0.60017  Biso   1.000  H
  C90      1.0000 0.48352  0.01005  0.57618  Biso   1.000  C
  H58      1.0000 0.48693  0.04567  0.24315  Biso   1.000  H
  C91      1.0000 0.47297  0.98259  0.36326  Biso   1.000  C
  H59      1.0000 0.39305  0.13437  0.70364  Biso   1.000  H
  C92      1.0000 0.34093  0.07326  0.59594  Biso   1.000  C
  H60      1.0000 0.30692  0.01476  0.47307  Biso   1.000  H
  C93      1.0000 0.69562  0.23826  0.25060  Biso   1.000  C
  C94      1.0000 0.72765  0.23268  0.04861  Biso   1.000  C
  H61      1.0000 0.86566  0.25868  0.70364  Biso   1.000  H
  C95      1.0000 0.92674  0.26767  0.59594  Biso   1.000  C
  H62      1.0000 0.98523  0.29217  0.47307  Biso   1.000  H
  H63      1.0000 0.06366  0.52149  0.51351  Biso   1.000  H
  C96      1.0000 0.64843  0.36915  0.61294  Biso   1.000  C
  C97      1.0000 0.72074  0.35158  0.61294  Biso   1.000  C
  H64      1.0000 0.93673  0.53985  0.30923  Biso   1.000  H
  C98      1.0000 0.90983  0.58505  0.27394  Biso   1.000  C
  H65      1.0000 0.86663  0.62985  0.26162  Biso   1.000  H
  H66      1.0000 0.97485  0.74867  0.66302  Biso   1.000  H
  C99      1.0000 0.63084  0.27927  0.61294  Biso   1.000  C
  H67      1.0000 0.46012  0.39685  0.30923  Biso   1.000  H
  C100     1.0000 0.41494  0.32478  0.27394  Biso   1.000  C
  H68      1.0000 0.37014  0.23676  0.26162  Biso   1.000  H
  H69      1.0000 0.25131  0.22615  0.66302  Biso   1.000  H
  C101     1.0000 0.63514  0.18147  0.09539  Biso   1.000  C
  H70      1.0000 0.48524  0.00245  0.66045  Biso   1.000  H
  C102     1.0000 0.46997  0.97178  0.48769  Biso   1.000  C
  H71      1.0000 0.46646  0.95619  0.30371  Biso   1.000  H
  H72      1.0000 0.31134  0.06075  0.64915  Biso   1.000  H
  H73      1.0000 0.70223  0.25306  0.33073  Biso   1.000  H
  C103     1.0000 0.67644  0.19758  0.01296  Biso   1.000  C
  H74      1.0000 0.75584  0.24285  0.99219  Biso   1.000  H
  H75      1.0000 0.93924  0.25057  0.64915  Biso   1.000  H
  H76      1.0000 0.63562  0.39337  0.61312  Biso   1.000  H
  C104     1.0000 0.68575  0.29838  0.61276  Biso   1.000  C
  H77      1.0000 0.75774  0.36436  0.61312  Biso   1.000  H
  H78      1.0000 0.93175  0.59926  0.20346  Biso   1.000  H
  H79      1.0000 0.60661  0.24226  0.61312  Biso   1.000  H
  H80      1.0000 0.40075  0.33246  0.20346  Biso   1.000  H
  H81      1.0000 0.60014  0.15637  0.07085  Biso   1.000  H
  H82      1.0000 0.45786  0.93640  0.51351  Biso   1.000  H
  C105     1.0000 0.66544  0.17078  0.89248  Biso   1.000  C
  C106     1.0000 0.70596  0.26058  0.60972  Biso   1.000  C
  N11      1.0000 0.70282  0.17616  0.82154  Biso   1.000  N
  H83      1.0000 0.62972  0.14897  0.86703  Biso   1.000  H
  N12      1.0000 0.67752  0.21186  0.59778  Biso   1.000  N
  H84      1.0000 0.74304  0.27456  0.61744  Biso   1.000  H
  C107     1.0000 0.68654  0.14347  0.70970  Biso   1.000  C
  C108     1.0000 0.70482  0.18147  0.59695  Biso   1.000  C
  H85      1.0000 0.64714  0.12048  0.70833  Biso   1.000  H
  C109     1.0000 0.71202  0.10955  0.70318  Biso   1.000  C
  H86      1.0000 0.74384  0.20616  0.60219  Biso   1.000  H
  C110     1.0000 0.69231  0.14945  0.47997  Biso   1.000  C
  C111     1.0000 0.68303  0.05707  0.67166  Biso   1.000  C
  C112     1.0000 0.76533  0.13097  0.72064  Biso   1.000  C
  C113     1.0000 0.64423  0.11589  0.44624  Biso   1.000  C
  C114     1.0000 0.73863  0.15578  0.40921  Biso   1.000  C
  H87      1.0000 0.64585  0.04096  0.66118  Biso   1.000  H
  C115     1.0000 0.70632  0.02865  0.65585  Biso   1.000  C
  C116     1.0000 0.78822  0.09998  0.70134  Biso   1.000  C
  H88      1.0000 0.78643  0.16678  0.74573  Biso   1.000  H
  H89      1.0000 0.61454  0.11086  0.49274  Biso   1.000  H
  C117     1.0000 0.63812  0.08687  0.33670  Biso   1.000  C
  C118     1.0000 0.73404  0.12926  0.30858  Biso   1.000  C
  H90      1.0000 0.77306  0.18008  0.43815  Biso   1.000  H
  H91      1.0000 0.68493  0.99280  0.63169  Biso   1.000  H
  C119     1.0000 0.75854  0.04706  0.67175  Biso   1.000  C
  H92      1.0000 0.82554  0.11565  0.70879  Biso   1.000  H
  H93      1.0000 0.60316  0.06329  0.30923  Biso   1.000  H
  C120     1.0000 0.67524  0.09016  0.27394  Biso   1.000  C
  H94      1.0000 0.76324  0.13338  0.26162  Biso   1.000  H
  H95      1.0000 0.77382  0.02517  0.66302  Biso   1.000  H
  H96      1.0000 0.66752  0.06827  0.20346  Biso   1.000  H
  C121     1.0000 0.59811  0.64240  0.73718  Biso   1.000  C
  C122     1.0000 0.55120  0.64331  0.76447  Biso   1.000  C
  C123     1.0000 0.61882  0.62320  0.82246  Biso   1.000  C
  H97      1.0000 0.61520  0.65498  0.66017  Biso   1.000  H
  C124     1.0000 0.53220  0.66880  0.67056  Biso   1.000  C
  C125     1.0000 0.52769  0.62419  0.87484  Biso   1.000  C
  C126     1.0000 0.59339  0.60100  0.92933  Biso   1.000  C
  H98      1.0000 0.65191  0.62550  0.80638  Biso   1.000  H
  N13      1.0000 0.47471  0.63230  0.65108  Biso   1.000  N
  H99      1.0000 0.55181  0.67469  0.59144  Biso   1.000  H
  C127     1.0000 0.53721  0.72049  0.71604  Biso   1.000  C
  H100     1.0000 0.49621  0.62471  0.89478  Biso   1.000  H
  C128     1.0000 0.54859  0.60389  0.95901  Biso   1.000  C
  H101     1.0000 0.60588  0.58390  0.98254  Biso   1.000  H
  C129     1.0000 0.45911  0.62138  0.53869  Biso   1.000  C
  N14      1.0000 0.52040  0.74281  0.61726  Biso   1.000  N
  H102     1.0000 0.51399  0.71340  0.78938  Biso   1.000  H
  C130     1.0000 0.59399  0.75939  0.75041  Biso   1.000  C
  H103     1.0000 0.53231  0.59201  0.03703  Biso   1.000  H
  C131     1.0000 0.40441  0.58651  0.50211  Biso   1.000  C
  H104     1.0000 0.48502  0.63721  0.47574  Biso   1.000  H
  C132     1.0000 0.48331  0.75088  0.63692  Biso   1.000  C
  C133     1.0000 0.60748  0.76869  0.87309  Biso   1.000  C
  C134     1.0000 0.63010  0.78342  0.66036  Biso   1.000  C
  C135     1.0000 0.39430  0.56601  0.38192  Biso   1.000  C
  C136     1.0000 0.36230  0.57159  0.58390  Biso   1.000  C
  C137     1.0000 0.46451  0.77582  0.54916  Biso   1.000  C
  H105     1.0000 0.46592  0.74031  0.71412  Biso   1.000  H
  H106     1.0000 0.58188  0.74799  0.93347  Biso   1.000  H
  C138     1.0000 0.65660  0.80681  0.90948  Biso   1.000  C
  C139     1.0000 0.68411  0.82371  0.69656  Biso   1.000  C
  H107     1.0000 0.62099  0.77459  0.57646  Biso   1.000  H
  C140     1.0000 0.34309  0.53090  0.34626  Biso   1.000  C
  H108     1.0000 0.42249  0.57618  0.32549  Biso   1.000  H
  C141     1.0000 0.31131  0.53550  0.54916  Biso   1.000  C
  H109     1.0000 0.36891  0.58639  0.66412  Biso   1.000  H
  C142     1.0000 0.48520  0.78702  0.42869  Biso   1.000  C
  C143     1.0000 0.42839  0.79070  0.58390  Biso   1.000  C
  H110     1.0000 0.66420  0.81611  0.99384  Biso   1.000  H
  C144     1.0000 0.69489  0.83150  0.82099  Biso   1.000  C
  H111     1.0000 0.71051  0.84361  0.63702  Biso   1.000  H
  C145     1.0000 0.33209  0.50411  0.22579  Biso   1.000  C
  C146     1.0000 0.30179  0.51480  0.42869  Biso   1.000  C
  C147     1.0000 0.26760  0.51670  0.63692  Biso   1.000  C
  C148     1.0000 0.46909  0.81219  0.34626  Biso   1.000  C
  H112     1.0000 0.51029  0.77708  0.40425  Biso   1.000  H
  H113     1.0000 0.41360  0.78251  0.66412  Biso   1.000  H
  C149     1.0000 0.41350  0.81789  0.50211  Biso   1.000  C
  H114     1.0000 0.73030  0.85481  0.84681  Biso   1.000  H
  N15      1.0000 0.36950  0.50949  0.15493  Biso   1.000  N
  H115     1.0000 0.29640  0.48230  0.20042  Biso   1.000  H
  H116     1.0000 0.26679  0.48970  0.40425  Biso   1.000  H
  N16      1.0000 0.22239  0.47961  0.61726  Biso   1.000  N
  H117     1.0000 0.27439  0.53411  0.71412  Biso   1.000  H
  C150     1.0000 0.49588  0.82798  0.22579  Biso   1.000  C
  C151     1.0000 0.43399  0.82830  0.38192  Biso   1.000  C
  C152     1.0000 0.37862  0.83772  0.53869  Biso   1.000  C
  C153     1.0000 0.35319  0.47680  0.04301  Biso   1.000  C
  C154     1.0000 0.18331  0.46279  0.71604  Biso   1.000  C
  N17      1.0000 0.49050  0.86000  0.15493  Biso   1.000  N
  H118     1.0000 0.51769  0.81409  0.20042  Biso   1.000  H
  H119     1.0000 0.42380  0.84631  0.32549  Biso   1.000  H
  N18      1.0000 0.36769  0.84239  0.65108  Biso   1.000  N
  H120     1.0000 0.36279  0.84781  0.47574  Biso   1.000  H
  C155     1.0000 0.37870  0.44288  0.03648  Biso   1.000  C
  H121     1.0000 0.31379  0.45381  0.04172  Biso   1.000  H
  C156     1.0000 0.37150  0.51480  0.93034  Biso   1.000  C
  C157     1.0000 0.13660  0.46782  0.67056  Biso   1.000  C
  H122     1.0000 0.19939  0.48598  0.78938  Biso   1.000  H
  C158     1.0000 0.16540  0.40600  0.75041  Biso   1.000  C
  C159     1.0000 0.52320  0.87639  0.04301  Biso   1.000  C
  C160     1.0000 0.33120  0.86340  0.67056  Biso   1.000  C
  C161     1.0000 0.34972  0.39040  0.00496  Biso   1.000  C
  C162     1.0000 0.43201  0.46429  0.05403  Biso   1.000  C
  N19      1.0000 0.34420  0.54519  0.93108  Biso   1.000  N
  H123     1.0000 0.41048  0.53949  0.93549  Biso   1.000  H
  C163     1.0000 0.35901  0.48282  0.81327  Biso   1.000  C
  N20      1.0000 0.15759  0.52528  0.65108  Biso   1.000  N
  H124     1.0000 0.12288  0.44819  0.59144  Biso   1.000  H
  C164     1.0000 0.09210  0.44882  0.76447  Biso   1.000  C
  C165     1.0000 0.16119  0.39250  0.87309  Biso   1.000  C
  C166     1.0000 0.15331  0.36990  0.66036  Biso   1.000  C
  C167     1.0000 0.48522  0.85671  0.93034  Biso   1.000  C
  H125     1.0000 0.54620  0.86000  0.04172  Biso   1.000  H
  C168     1.0000 0.55708  0.93579  0.03648  Biso   1.000  C
  C169     1.0000 0.27951  0.81670  0.71604  Biso   1.000  C
  H126     1.0000 0.32530  0.87710  0.59144  Biso   1.000  H
  C170     1.0000 0.35670  0.90789  0.76447  Biso   1.000  C
  H127     1.0000 0.31249  0.37429  0.99449  Biso   1.000  H
  C171     1.0000 0.37301  0.36198  0.98916  Biso   1.000  C
  C172     1.0000 0.45490  0.43330  0.03474  Biso   1.000  C
  H128     1.0000 0.45311  0.50011  0.07912  Biso   1.000  H
  C173     1.0000 0.37260  0.59391  0.94312  Biso   1.000  C
  C174     1.0000 0.31091  0.44922  0.77964  Biso   1.000  C
  C175     1.0000 0.40531  0.48911  0.74251  Biso   1.000  C
  C176     1.0000 0.16232  0.54092  0.53869  Biso   1.000  C
  C177     1.0000 0.09650  0.47229  0.87484  Biso   1.000  C
  C178     1.0000 0.04432  0.40192  0.73718  Biso   1.000  C
  H129     1.0000 0.16611  0.41811  0.93347  Biso   1.000  H
  C179     1.0000 0.15020  0.34338  0.90948  Biso   1.000  C
  C180     1.0000 0.13962  0.31591  0.69656  Biso   1.000  C
  H130     1.0000 0.15361  0.37900  0.57646  Biso   1.000  H
  N21      1.0000 0.45479  0.79901  0.93108  Biso   1.000  N
  H131     1.0000 0.46049  0.87100  0.93549  Biso   1.000  H
  C181     1.0000 0.51720  0.87619  0.81327  Biso   1.000  C
  C182     1.0000 0.60959  0.95930  0.00496  Biso   1.000  C
  C183     1.0000 0.53571  0.96769  0.05403  Biso   1.000  C
  N22      1.0000 0.25721  0.77760  0.61726  Biso   1.000  N
  H132     1.0000 0.28660  0.80059  0.78938  Biso   1.000  H
  C184     1.0000 0.24060  0.83459  0.75041  Biso   1.000  C
  C185     1.0000 0.37579  0.90350  0.87484  Biso   1.000  C
  C186     1.0000 0.35761  0.95570  0.73718  Biso   1.000  C
  C187     1.0000 0.42519  0.38039  0.00505  Biso   1.000  C
  H133     1.0000 0.35160  0.32609  0.96499  Biso   1.000  H
  H134     1.0000 0.49220  0.44902  0.04209  Biso   1.000  H
  C188     1.0000 0.35239  0.63171  0.94606  Biso   1.000  C
  H135     1.0000 0.40968  0.60789  0.95084  Biso   1.000  H
  H136     1.0000 0.28119  0.44419  0.82613  Biso   1.000  H
  C189     1.0000 0.30481  0.42020  0.67001  Biso   1.000  C
  C190     1.0000 0.40069  0.46259  0.64189  Biso   1.000  C
  H137     1.0000 0.43970  0.51341  0.77146  Biso   1.000  H
  C191     1.0000 0.18209  0.59562  0.50211  Biso   1.000  C
  H138     1.0000 0.15220  0.51499  0.47574  Biso   1.000  H
  H139     1.0000 0.12850  0.50379  0.89478  Biso   1.000  H
  C192     1.0000 0.05531  0.45139  0.95901  Biso   1.000  C
  C193     1.0000 0.00442  0.38122  0.82246  Biso   1.000  C
  H140     1.0000 0.03979  0.38478  0.66017  Biso   1.000  H
  H141     1.0000 0.15188  0.33578  0.99384  Biso   1.000  H
  C194     1.0000 0.13662  0.30511  0.82099  Biso   1.000  C
  H142     1.0000 0.13310  0.28952  0.63702  Biso   1.000  H
  C195     1.0000 0.40611  0.77871  0.94312  Biso   1.000  C
  C196     1.0000 0.55082  0.86170  0.77964  Biso   1.000  C
  C197     1.0000 0.51089  0.91620  0.74251  Biso   1.000  C
  H143     1.0000 0.62571  0.93821  0.99449  Biso   1.000  H
  C198     1.0000 0.63797  0.01099  0.98916  Biso   1.000  C
  H144     1.0000 0.49991  0.95301  0.07912  Biso   1.000  H
  C199     1.0000 0.56670  0.02160  0.03474  Biso   1.000  C
  C200     1.0000 0.24911  0.73240  0.63692  Biso   1.000  C
  C201     1.0000 0.23129  0.83879  0.87309  Biso   1.000  C
  C202     1.0000 0.21660  0.84670  0.66036  Biso   1.000  C
  H145     1.0000 0.37530  0.87152  0.89478  Biso   1.000  H
  C203     1.0000 0.39608  0.94470  0.95901  Biso   1.000  C
  C204     1.0000 0.37680  0.99560  0.82246  Biso   1.000  C
  H146     1.0000 0.34499  0.96021  0.66017  Biso   1.000  H
  H147     1.0000 0.44050  0.35850  0.99642  Biso   1.000  H
  C205     1.0000 0.38739  0.68490  0.94633  Biso   1.000  C
  C206     1.0000 0.29749  0.61259  0.94633  Biso   1.000  C
  H148     1.0000 0.26981  0.39662  0.64262  Biso   1.000  H
  C207     1.0000 0.34189  0.42349  0.60733  Biso   1.000  C
  H149     1.0000 0.42989  0.46671  0.59502  Biso   1.000  H
  C208     1.0000 0.20930  0.63769  0.58390  Biso   1.000  C
  C209     1.0000 0.17171  0.60571  0.38192  Biso   1.000  C
  C210     1.0000 0.00758  0.40659  0.92933  Biso   1.000  C
  H150     1.0000 0.05969  0.46770  0.03703  Biso   1.000  H
  H151     1.0000 0.97360  0.34809  0.80638  Biso   1.000  H
  H152     1.0000 0.12449  0.26969  0.84681  Biso   1.000  H
  C211     1.0000 0.36829  0.72068  0.94606  Biso   1.000  C
  H153     1.0000 0.39210  0.80182  0.95084  Biso   1.000  H
  H154     1.0000 0.55581  0.83700  0.82613  Biso   1.000  H
  C212     1.0000 0.57982  0.88462  0.67001  Biso   1.000  C
  C213     1.0000 0.53739  0.93809  0.64189  Biso   1.000  C
  H155     1.0000 0.48659  0.92629  0.77146  Biso   1.000  H
  H156     1.0000 0.67390  0.02548  0.96499  Biso   1.000  H
  C214     1.0000 0.61960  0.04479  0.00505  Biso   1.000  C
  H157     1.0000 0.55101  0.04321  0.04209  Biso   1.000  H
  C215     1.0000 0.22421  0.68870  0.54916  Biso   1.000  C
  H158     1.0000 0.25969  0.72559  0.71412  Biso   1.000  H
  H159     1.0000 0.25202  0.83392  0.93347  Biso   1.000  H
  C216     1.0000 0.19319  0.84979  0.90948  Biso   1.000  C
  C217     1.0000 0.17628  0.86040  0.69656  Biso   1.000  C
  H160     1.0000 0.22539  0.84638  0.57646  Biso   1.000  H
  C218     1.0000 0.39899  0.99239  0.92933  Biso   1.000  C
  H161     1.0000 0.40801  0.94030  0.03703  Biso   1.000  H
  H162     1.0000 0.37451  0.02639  0.80638  Biso   1.000  H
  H163     1.0000 0.42439  0.69769  0.94652  Biso   1.000  H
  H164     1.0000 0.27330  0.57559  0.94652  Biso   1.000  H
  C219     1.0000 0.27930  0.64758  0.94606  Biso   1.000  C
  H165     1.0000 0.33420  0.40160  0.53676  Biso   1.000  H
  H166     1.0000 0.21750  0.63112  0.66412  Biso   1.000  H
  C220     1.0000 0.18781  0.65688  0.34626  Biso   1.000  C
  H167     1.0000 0.15370  0.57749  0.32549  Biso   1.000  H
  H168     1.0000 0.97798  0.39408  0.98254  Biso   1.000  H
  C221     1.0000 0.31510  0.70252  0.94633  Biso   1.000  C
  H169     1.0000 0.60340  0.87322  0.64262  Biso   1.000  H
  C222     1.0000 0.57650  0.91842  0.60733  Biso   1.000  C
  H170     1.0000 0.53328  0.96318  0.59502  Biso   1.000  H
  H171     1.0000 0.64153  0.08199  0.99642  Biso   1.000  H
  C223     1.0000 0.21299  0.69820  0.42869  Biso   1.000  C
  H172     1.0000 0.18391  0.84809  0.99384  Biso   1.000  H
  C224     1.0000 0.16850  0.86340  0.82099  Biso   1.000  C
  H173     1.0000 0.15639  0.86689  0.63702  Biso   1.000  H
  H174     1.0000 0.41612  0.02199  0.98254  Biso   1.000  H
  C225     1.0000 0.22129  0.62740  0.94312  Biso   1.000  C
  C226     1.0000 0.17199  0.66789  0.22579  Biso   1.000  C
  H175     1.0000 0.30230  0.72670  0.94652  Biso   1.000  H
  H176     1.0000 0.59839  0.93259  0.53676  Biso   1.000  H
  H177     1.0000 0.22291  0.73319  0.40425  Biso   1.000  H
  H178     1.0000 0.14521  0.87551  0.84681  Biso   1.000  H
  N23      1.0000 0.20102  0.65581  0.93108  Biso   1.000  N
  H179     1.0000 0.19819  0.59031  0.95084  Biso   1.000  H
  N24      1.0000 0.13999  0.63048  0.15493  Biso   1.000  N
  H180     1.0000 0.18590  0.70359  0.20042  Biso   1.000  H
  C227     1.0000 0.14332  0.62851  0.93034  Biso   1.000  C
  C228     1.0000 0.12360  0.64679  0.04301  Biso   1.000  C
  H181     1.0000 0.12898  0.58948  0.93549  Biso   1.000  H
  C229     1.0000 0.12380  0.64101  0.81327  Biso   1.000  C
  H182     1.0000 0.14002  0.68621  0.04172  Biso   1.000  H
  C230     1.0000 0.06421  0.62130  0.03648  Biso   1.000  C
  C231     1.0000 0.13831  0.68910  0.77964  Biso   1.000  C
  C232     1.0000 0.08381  0.59471  0.74251  Biso   1.000  C
  C233     1.0000 0.04070  0.65031  0.00496  Biso   1.000  C
  C234     1.0000 0.03231  0.56799  0.05403  Biso   1.000  C
  H183     1.0000 0.16299  0.71878  0.82613  Biso   1.000  H
  C235     1.0000 0.11541  0.69520  0.67001  Biso   1.000  C
  C236     1.0000 0.06191  0.59930  0.64189  Biso   1.000  C
  H184     1.0000 0.07371  0.56031  0.77146  Biso   1.000  H
  C237     1.0000 0.98901  0.62700  0.98916  Biso   1.000  C
  H185     1.0000 0.06180  0.68752  0.99449  Biso   1.000  H
  H186     1.0000 0.04699  0.54689  0.07912  Biso   1.000  H
  C238     1.0000 0.97840  0.54511  0.03474  Biso   1.000  C
  H187     1.0000 0.12680  0.73018  0.64262  Biso   1.000  H
  C239     1.0000 0.08162  0.65811  0.60733  Biso   1.000  C
  H188     1.0000 0.03678  0.57009  0.59502  Biso   1.000  H
  H189     1.0000 0.97452  0.64841  0.96499  Biso   1.000  H
  C240     1.0000 0.95520  0.57480  0.00505  Biso   1.000  C
  H190     1.0000 0.95679  0.50779  0.04209  Biso   1.000  H
  H191     1.0000 0.06739  0.66579  0.53676  Biso   1.000  H
  H192     1.0000 0.91799  0.55948  0.99642  Biso   1.000  H
  C241     1.0000 0.69895  0.90132  0.38734  Biso   1.000  C
  C242     1.0000 0.64508  0.87844  0.36804  Biso   1.000  C
  C243     1.0000 0.73085  0.95463  0.36988  Biso   1.000  C
  H193     1.0000 0.71367  0.88022  0.41242  Biso   1.000  H
  C244     1.0000 0.62188  0.90813  0.33845  Biso   1.000  C
  H194     1.0000 0.62347  0.84112  0.37539  Biso   1.000  H
  C245     1.0000 0.70738  0.98364  0.33836  Biso   1.000  C
  C246     1.0000 0.79025  0.98012  0.37631  Biso   1.000  C
  C247     1.0000 0.65566  0.96033  0.32255  Biso   1.000  C
  H195     1.0000 0.58466  0.89285  0.32972  Biso   1.000  H
  H196     1.0000 0.72847  0.02081  0.32779  Biso   1.000  H
  N25      1.0000 0.80667  0.96381  0.48824  Biso   1.000  N
  C248     1.0000 0.80997  0.96183  0.26365  Biso   1.000  C
  H197     1.0000 0.80667  0.01954  0.37502  Biso   1.000  H
  H198     1.0000 0.64117  0.98174  0.29829  Biso   1.000  H
  C249     1.0000 0.83867  0.00122  0.55909  Biso   1.000  C
  N26      1.0000 0.86767  0.98914  0.26447  Biso   1.000  N
  H199     1.0000 0.79568  0.92285  0.26879  Biso   1.000  H
  C250     1.0000 0.79048  0.97434  0.14666  Biso   1.000  C
  C251     1.0000 0.85447  0.99025  0.67965  Biso   1.000  C
  H200     1.0000 0.85258  0.03692  0.53373  Biso   1.000  H
  C252     1.0000 0.88797  0.96073  0.27642  Biso   1.000  C
  C253     1.0000 0.75046  0.92803  0.07581  Biso   1.000  C
  C254     1.0000 0.80496  0.02243  0.11294  Biso   1.000  C
  C255     1.0000 0.83836  0.93904  0.71522  Biso   1.000  C
  C256     1.0000 0.87967  0.03153  0.76199  Biso   1.000  C
  C257     1.0000 0.94597  0.98095  0.27945  Biso   1.000  C
  H201     1.0000 0.86487  0.92364  0.28414  Biso   1.000  H
  H202     1.0000 0.74036  0.89364  0.10485  Biso   1.000  H
  C258     1.0000 0.72856  0.93263  0.97519  Biso   1.000  C
  H203     1.0000 0.82964  0.05211  0.15944  Biso   1.000  H
  C259     1.0000 0.78209  0.02852  0.00331  Biso   1.000  C
  C260     1.0000 0.84877  0.92895  0.83542  Biso   1.000  C
  H204     1.0000 0.82034  0.91082  0.65879  Biso   1.000  H
  H205     1.0000 0.88959  0.06652  0.73755  Biso   1.000  H
  C261     1.0000 0.89086  0.02203  0.88256  Biso   1.000  C
  C262     1.0000 0.96417  0.94592  0.27964  Biso   1.000  C
  C263     1.0000 0.98176  0.03581  0.27964  Biso   1.000  C
  C264     1.0000 0.74826  0.99144  0.94064  Biso   1.000  C
  H206     1.0000 0.70347  0.90342  0.92832  Biso   1.000  H
  H207     1.0000 0.79349  0.06351  0.97592  Biso   1.000  H
  C265     1.0000 0.87595  0.97102  0.91720  Biso   1.000  C
  C266     1.0000 0.82897  0.87425  0.87199  Biso   1.000  C
  C267     1.0000 0.91576  0.06573  0.97023  Biso   1.000  C
  H208     1.0000 0.93994  0.90892  0.27982  Biso   1.000  H
  C268     1.0000 0.01908  0.96504  0.27945  Biso   1.000  C
  H209     1.0000 0.96895  0.06003  0.27982  Biso   1.000  H
  C269     1.0000 0.03494  0.05401  0.27945  Biso   1.000  C
  H210     1.0000 0.73407  0.99912  0.87015  Biso   1.000  H
  H211     1.0000 0.88418  0.96445  0.99743  Biso   1.000  H
  N27      1.0000 0.82427  0.85861  0.98447  Biso   1.000  N
  H212     1.0000 0.81885  0.84832  0.80904  Biso   1.000  H
  N28      1.0000 0.92386  0.11093  0.95065  Biso   1.000  N
  H213     1.0000 0.92634  0.05892  0.04742  Biso   1.000  H
  C270     1.0000 0.03929  0.92724  0.27642  Biso   1.000  C
  C271     1.0000 0.05407  0.01823  0.27964  Biso   1.000  C
  C272     1.0000 0.07276  0.11203  0.27642  Biso   1.000  C
  C273     1.0000 0.80328  0.80115  0.00395  Biso   1.000  C
  C274     1.0000 0.94619  0.15003  0.04935  Biso   1.000  C
  N29      1.0000 0.01085  0.87852  0.26447  Biso   1.000  N
  H214     1.0000 0.07637  0.94121  0.28414  Biso   1.000  H
  H215     1.0000 0.09104  0.03102  0.27982  Biso   1.000  H
  N30      1.0000 0.12147  0.13234  0.26447  Biso   1.000  N
  H216     1.0000 0.05876  0.13511  0.28414  Biso   1.000  H
  H217     1.0000 0.78956  0.78152  0.92474  Biso   1.000  H
  C275     1.0000 0.84995  0.79612  0.04935  Biso   1.000  C
  C276     1.0000 0.75879  0.78215  0.09787  Biso   1.000  C
  C277     1.0000 0.99785  0.19673  0.00395  Biso   1.000  C
  H218     1.0000 0.95328  0.13392  0.12277  Biso   1.000  H
  C278     1.0000 0.90725  0.16792  0.08372  Biso   1.000  C
  C279     1.0000 0.03815  0.84813  0.26365  Biso   1.000  C
  C280     1.0000 0.15188  0.19000  0.26365  Biso   1.000  C
  N31      1.0000 0.88908  0.81294  0.95065  Biso   1.000  N
  H219     1.0000 0.86606  0.81935  0.12277  Biso   1.000  H
  C281     1.0000 0.83208  0.73932  0.08372  Biso   1.000  C
  C282     1.0000 0.76315  0.80562  0.20814  Biso   1.000  C
  C283     1.0000 0.71097  0.73525  0.07058  Biso   1.000  C
  H220     1.0000 0.99198  0.21043  0.92474  Biso   1.000  H
  N32      1.0000 0.03437  0.17572  0.98447  Biso   1.000  N
  C284     1.0000 0.02339  0.24122  0.09787  Biso   1.000  C
  C285     1.0000 0.88328  0.18003  0.99375  Biso   1.000  C
  C286     1.0000 0.89797  0.17212  0.20640  Biso   1.000  C
  H221     1.0000 0.07717  0.87282  0.26879  Biso   1.000  H
  C287     1.0000 0.01987  0.81013  0.37631  Biso   1.000  C
  C288     1.0000 0.02566  0.81615  0.14666  Biso   1.000  C
  H222     1.0000 0.12714  0.20433  0.26879  Biso   1.000  H
  C289     1.0000 0.18984  0.20971  0.37631  Biso   1.000  C
  C290     1.0000 0.18385  0.20952  0.14666  Biso   1.000  C
  C291     1.0000 0.93425  0.85003  0.97023  Biso   1.000  C
  C292     1.0000 0.81996  0.70323  0.99375  Biso   1.000  C
  C293     1.0000 0.82787  0.72583  0.20640  Biso   1.000  C
  H223     1.0000 0.79515  0.83712  0.22817  Biso   1.000  H
  C294     1.0000 0.72196  0.78472  0.29232  Biso   1.000  C
  H224     1.0000 0.70646  0.71815  0.99357  Biso   1.000  H
  C295     1.0000 0.67107  0.71455  0.15585  Biso   1.000  C
  C296     1.0000 0.04528  0.17101  0.87199  Biso   1.000  C
  C297     1.0000 0.04244  0.23683  0.20814  Biso   1.000  C
  C298     1.0000 0.02426  0.28903  0.07058  Biso   1.000  C
  H225     1.0000 0.89203  0.17971  0.90985  Biso   1.000  H
  C299     1.0000 0.84293  0.19372  0.02996  Biso   1.000  C
  H226     1.0000 0.91865  0.16721  0.26686  Biso   1.000  H
  C300     1.0000 0.85984  0.18312  0.24288  Biso   1.000  C
  H227     1.0000 0.98047  0.78714  0.37502  Biso   1.000  H
  N33      1.0000 0.03615  0.84282  0.48824  Biso   1.000  N
  C301     1.0000 0.04537  0.77625  0.36988  Biso   1.000  C
  C302     1.0000 0.97756  0.78254  0.11294  Biso   1.000  C
  C303     1.0000 0.07196  0.82244  0.07581  Biso   1.000  C
  N34      1.0000 0.15714  0.19333  0.48824  Biso   1.000  N
  H228     1.0000 0.21284  0.19333  0.37502  Biso   1.000  H
  C304     1.0000 0.22373  0.26912  0.36988  Biso   1.000  C
  C305     1.0000 0.21746  0.19503  0.11294  Biso   1.000  C
  C306     1.0000 0.17757  0.24953  0.07581  Biso   1.000  C
  C307     1.0000 0.97796  0.86883  0.88256  Biso   1.000  C
  H229     1.0000 0.94107  0.86744  0.04742  Biso   1.000  H
  H230     1.0000 0.82026  0.71233  0.90985  Biso   1.000  H
  C308     1.0000 0.80627  0.64924  0.02996  Biso   1.000  C
  H231     1.0000 0.83275  0.75144  0.26686  Biso   1.000  H
  C309     1.0000 0.81687  0.67675  0.24288  Biso   1.000  C
  H232     1.0000 0.72638  0.80103  0.37034  Biso   1.000  H
  C310     1.0000 0.67426  0.73992  0.26264  Biso   1.000  C
  H233     1.0000 0.64025  0.68142  0.13977  Biso   1.000  H
  C311     1.0000 0.08015  0.15122  0.83542  Biso   1.000  C
  H234     1.0000 0.02947  0.18114  0.80904  Biso   1.000  H
  H235     1.0000 0.04192  0.20481  0.22817  Biso   1.000  H
  C312     1.0000 0.06277  0.27803  0.29232  Biso   1.000  C
  H236     1.0000 0.01165  0.29350  0.99357  Biso   1.000  H
  C313     1.0000 0.04345  0.32892  0.15585  Biso   1.000  C
  H237     1.0000 0.82307  0.20022  0.97032  Biso   1.000  H
  C314     1.0000 0.83518  0.19673  0.15429  Biso   1.000  C
  H238     1.0000 0.85059  0.18142  0.32715  Biso   1.000  H
  C315     1.0000 0.99877  0.83744  0.55909  Biso   1.000  C
  C316     1.0000 0.01636  0.72373  0.33836  Biso   1.000  C
  C317     1.0000 0.09866  0.79762  0.38734  Biso   1.000  C
  H239     1.0000 0.94787  0.77752  0.15944  Biso   1.000  H
  C318     1.0000 0.97145  0.75353  0.00331  Biso   1.000  C
  C319     1.0000 0.06737  0.79592  0.97519  Biso   1.000  C
  H240     1.0000 0.10639  0.84674  0.10485  Biso   1.000  H
  C320     1.0000 0.16256  0.16131  0.55909  Biso   1.000  C
  C321     1.0000 0.27624  0.29263  0.33836  Biso   1.000  C
  C322     1.0000 0.20239  0.30102  0.38734  Biso   1.000  C
  H241     1.0000 0.22246  0.17033  0.15944  Biso   1.000  H
  C323     1.0000 0.24645  0.21791  0.00331  Biso   1.000  C
  C324     1.0000 0.20404  0.27142  0.97519  Biso   1.000  C
  H242     1.0000 0.15324  0.25962  0.10485  Biso   1.000  H
  C325     1.0000 0.96847  0.84813  0.76199  Biso   1.000  C
  C326     1.0000 0.02895  0.90492  0.91720  Biso   1.000  C
  H243     1.0000 0.79979  0.62285  0.97032  Biso   1.000  H
  C327     1.0000 0.80326  0.63844  0.15429  Biso   1.000  C
  H244     1.0000 0.81859  0.66915  0.32715  Biso   1.000  H
  H245     1.0000 0.64469  0.72745  0.31584  Biso   1.000  H
  C328     1.0000 0.09507  0.12403  0.91720  Biso   1.000  C
  C329     1.0000 0.10064  0.16163  0.71522  Biso   1.000  C
  H246     1.0000 0.07466  0.27363  0.37034  Biso   1.000  H
  C330     1.0000 0.06567  0.32572  0.26264  Biso   1.000  C
  H247     1.0000 0.04113  0.35972  0.13977  Biso   1.000  H
  H248     1.0000 0.81187  0.20880  0.18011  Biso   1.000  H
  H249     1.0000 0.96305  0.81563  0.53373  Biso   1.000  H
  C331     1.0000 0.00977  0.86423  0.67965  Biso   1.000  C
  H250     1.0000 0.97918  0.70762  0.32779  Biso   1.000  H
  C332     1.0000 0.03965  0.69531  0.32255  Biso   1.000  C
  C333     1.0000 0.12155  0.76663  0.36804  Biso   1.000  C
  H251     1.0000 0.11975  0.83344  0.41242  Biso   1.000  H
  H252     1.0000 0.93649  0.72994  0.97592  Biso   1.000  H
  C334     1.0000 0.00857  0.75682  0.94064  Biso   1.000  C
  H253     1.0000 0.09657  0.80004  0.92832  Biso   1.000  H
  H254     1.0000 0.18437  0.14742  0.53373  Biso   1.000  H
  C335     1.0000 0.13574  0.14552  0.67965  Biso   1.000  C
  H255     1.0000 0.29239  0.27154  0.32779  Biso   1.000  H
  C336     1.0000 0.30465  0.34432  0.32255  Biso   1.000  C
  C337     1.0000 0.23335  0.35493  0.36804  Biso   1.000  C
  H256     1.0000 0.16660  0.28634  0.41242  Biso   1.000  H
  H257     1.0000 0.27002  0.20651  0.97592  Biso   1.000  H
  C338     1.0000 0.24313  0.25171  0.94064  Biso   1.000  C
  H258     1.0000 0.19996  0.29651  0.92832  Biso   1.000  H
  H259     1.0000 0.93347  0.82303  0.73755  Biso   1.000  H
  H260     1.0000 0.03556  0.91972  0.99743  Biso   1.000  H
  C339     1.0000 0.07106  0.91984  0.83542  Biso   1.000  C
  H261     1.0000 0.79117  0.60302  0.18011  Biso   1.000  H
  C340     1.0000 0.13118  0.10911  0.88256  Biso   1.000  C
  H262     1.0000 0.08025  0.11583  0.99743  Biso   1.000  H
  H263     1.0000 0.09049  0.17963  0.65879  Biso   1.000  H
  H264     1.0000 0.08277  0.35532  0.31584  Biso   1.000  H
  C341     1.0000 0.06098  0.89934  0.71522  Biso   1.000  C
  H265     1.0000 0.01824  0.65942  0.29829  Biso   1.000  H
  C342     1.0000 0.09187  0.71372  0.33845  Biso   1.000  C
  H266     1.0000 0.15889  0.78235  0.37539  Biso   1.000  H
  H267     1.0000 0.00085  0.73493  0.87015  Biso   1.000  H
  C343     1.0000 0.15182  0.12031  0.76199  Biso   1.000  C
  H268     1.0000 0.34059  0.35881  0.29829  Biso   1.000  H
  C344     1.0000 0.28628  0.37812  0.33845  Biso   1.000  C
  H269     1.0000 0.21766  0.37654  0.37539  Biso   1.000  H
  H270     1.0000 0.26507  0.26592  0.87015  Biso   1.000  H
  C345     1.0000 0.12577  0.95475  0.87199  Biso   1.000  C
  C346     1.0000 0.14999  0.08421  0.97023  Biso   1.000  C
  H271     1.0000 0.08919  0.90955  0.65879  Biso   1.000  H
  H272     1.0000 0.10715  0.69183  0.32972  Biso   1.000  H
  H273     1.0000 0.17697  0.11041  0.73755  Biso   1.000  H
  H274     1.0000 0.30818  0.41532  0.32972  Biso   1.000  H
  N35      1.0000 0.14136  0.96563  0.98447  Biso   1.000  N
  H275     1.0000 0.15166  0.97054  0.80904  Biso   1.000  H
  N36      1.0000 0.18705  0.07614  0.95065  Biso   1.000  N
  H276     1.0000 0.13255  0.07360  0.04742  Biso   1.000  H
  C347     1.0000 0.19885  0.00213  0.00395  Biso   1.000  C
  C348     1.0000 0.20386  0.05382  0.04935  Biso   1.000  C
  C349     1.0000 0.21788  0.97664  0.09787  Biso   1.000  C
  H277     1.0000 0.21849  0.00802  0.92474  Biso   1.000  H
  H278     1.0000 0.18067  0.04673  0.12277  Biso   1.000  H
  C350     1.0000 0.26067  0.09272  0.08372  Biso   1.000  C
  C351     1.0000 0.19437  0.95752  0.20814  Biso   1.000  C
  C352     1.0000 0.26476  0.97573  0.07058  Biso   1.000  C
  C353     1.0000 0.29676  0.11671  0.99375  Biso   1.000  C
  C354     1.0000 0.27416  0.10202  0.20640  Biso   1.000  C
  H279     1.0000 0.16286  0.95804  0.22817  Biso   1.000  H
  C355     1.0000 0.21528  0.93722  0.29232  Biso   1.000  C
  H280     1.0000 0.28187  0.98835  0.99357  Biso   1.000  H
  C356     1.0000 0.28546  0.95653  0.15585  Biso   1.000  C
  H281     1.0000 0.28764  0.10792  0.90985  Biso   1.000  H
  C357     1.0000 0.35075  0.15704  0.02996  Biso   1.000  C
  H282     1.0000 0.24853  0.08132  0.26686  Biso   1.000  H
  C358     1.0000 0.32325  0.14014  0.24288  Biso   1.000  C
  H283     1.0000 0.19899  0.92534  0.37034  Biso   1.000  H
  C359     1.0000 0.26007  0.93433  0.26264  Biso   1.000  C
  H284     1.0000 0.31856  0.95883  0.13977  Biso   1.000  H
  H285     1.0000 0.37718  0.17690  0.97032  Biso   1.000  H
  C360     1.0000 0.36158  0.16483  0.15429  Biso   1.000  C
  H286     1.0000 0.33088  0.14944  0.32715  Biso   1.000  H
  H287     1.0000 0.27257  0.91723  0.31584  Biso   1.000  H
  H288     1.0000 0.39693  0.18810  0.18011  Biso   1.000  H
