data_image0
_cell_length_a       39.1
_cell_length_b       16.748
_cell_length_c       16.501
_cell_angle_alpha    90
_cell_angle_beta     90
_cell_angle_gamma    90

_symmetry_space_group_name_H-M    "P 1"
_symmetry_int_tables_number       1

loop_
  _symmetry_equiv_pos_as_xyz
  'x, y, z'

loop_
  _atom_site_label
  _atom_site_occupancy
  _atom_site_fract_x
  _atom_site_fract_y
  _atom_site_fract_z
  _atom_site_thermal_displace_type
  _atom_site_B_iso_or_equiv
  _atom_site_type_symbol
  C1       1.0000 0.56110  0.55398  0.56360  Biso   1.000  C
  N1       1.0000 0.56683  0.52639  0.64608  Biso   1.000  N
  N2       1.0000 0.58056  0.62419  0.54330  Biso   1.000  N
  H1       1.0000 0.56701  0.51152  0.52621  Biso   1.000  H
  H2       1.0000 0.53691  0.56562  0.55669  Biso   1.000  H
  C2       1.0000 0.57629  0.44847  0.66008  Biso   1.000  C
  C3       1.0000 0.54834  0.56108  0.71232  Biso   1.000  C
  C4       1.0000 0.60299  0.62342  0.48427  Biso   1.000  C
  C5       1.0000 0.57010  0.70373  0.56851  Biso   1.000  C
  O1       1.0000 0.58893  0.40279  0.60930  Biso   1.000  O
  N3       1.0000 0.56903  0.43008  0.73892  Biso   1.000  N
  N4       1.0000 0.56627  0.62682  0.75008  Biso   1.000  N
  H3       1.0000 0.52460  0.57428  0.69820  Biso   1.000  H
  C6       1.0000 0.55105  0.49469  0.78098  Biso   1.000  C
  O2       1.0000 0.61593  0.56550  0.44979  Biso   1.000  O
  N5       1.0000 0.61174  0.70152  0.46543  Biso   1.000  N
  N6       1.0000 0.58079  0.72689  0.64911  Biso   1.000  N
  H4       1.0000 0.54570  0.71328  0.55942  Biso   1.000  H
  C7       1.0000 0.59320  0.75681  0.51288  Biso   1.000  C
  C8       1.0000 0.56680  0.34828  0.76571  Biso   1.000  C
  C9       1.0000 0.57703  0.61380  0.82837  Biso   1.000  C
  C10      1.0000 0.56059  0.70838  0.71977  Biso   1.000  C
  N7       1.0000 0.57056  0.53320  0.84359  Biso   1.000  N
  H5       1.0000 0.52849  0.47779  0.80038  Biso   1.000  H
  C11      1.0000 0.62992  0.72277  0.39198  Biso   1.000  C
  C12      1.0000 0.60604  0.78129  0.64838  Biso   1.000  C
  N8       1.0000 0.61371  0.80039  0.57209  Biso   1.000  N
  H6       1.0000 0.57949  0.79299  0.47918  Biso   1.000  H
  N9       1.0000 0.58801  0.33413  0.83589  Biso   1.000  N
  H7       1.0000 0.57389  0.31317  0.72202  Biso   1.000  H
  H8       1.0000 0.54320  0.33592  0.77892  Biso   1.000  H
  O3       1.0000 0.58951  0.66109  0.87370  Biso   1.000  O
  H9       1.0000 0.53660  0.71477  0.70668  Biso   1.000  H
  H10      1.0000 0.56611  0.74612  0.76250  Biso   1.000  H
  C13      1.0000 0.56806  0.50579  0.92728  Biso   1.000  C
  N10      1.0000 0.66338  0.75842  0.40761  Biso   1.000  N
  H11      1.0000 0.61619  0.76021  0.36119  Biso   1.000  H
  H12      1.0000 0.63299  0.67530  0.35913  Biso   1.000  H
  O4       1.0000 0.61885  0.81371  0.70978  Biso   1.000  O
  C14      1.0000 0.63156  0.87479  0.55082  Biso   1.000  C
  C15      1.0000 0.57670  0.35551  0.91752  Biso   1.000  C
  C16      1.0000 0.61043  0.27197  0.83789  Biso   1.000  C
  N11      1.0000 0.58816  0.43522  0.94400  Biso   1.000  N
  H13      1.0000 0.57550  0.54848  0.96291  Biso   1.000  H
  H14      1.0000 0.54430  0.49463  0.93958  Biso   1.000  H
  C17      1.0000 0.69396  0.72618  0.38180  Biso   1.000  C
  C18      1.0000 0.66780  0.84171  0.42670  Biso   1.000  C
  N12      1.0000 0.66435  0.86142  0.51130  Biso   1.000  N
  H15      1.0000 0.61711  0.90590  0.51500  Biso   1.000  H
  H16      1.0000 0.63519  0.90572  0.59972  Biso   1.000  H
  H17      1.0000 0.55199  0.34840  0.92443  Biso   1.000  H
  C19      1.0000 0.59742  0.29920  0.97291  Biso   1.000  C
  O5       1.0000 0.62307  0.23752  0.77838  Biso   1.000  O
  N13      1.0000 0.61650  0.25233  0.91710  Biso   1.000  N
  C20      1.0000 0.61026  0.43313  0.00521  Biso   1.000  C
  O6       1.0000 0.69665  0.65423  0.35937  Biso   1.000  O
  N14      1.0000 0.71872  0.77681  0.38761  Biso   1.000  N
  C21      1.0000 0.70588  0.85610  0.41040  Biso   1.000  C
  H18      1.0000 0.65330  0.87581  0.39270  Biso   1.000  H
  C22      1.0000 0.69417  0.88888  0.54488  Biso   1.000  C
  N15      1.0000 0.61698  0.35359  0.02170  Biso   1.000  N
  H19      1.0000 0.58240  0.26588  0.00630  Biso   1.000  H
  C23      1.0000 0.63202  0.17578  0.93982  Biso   1.000  C
  O7       1.0000 0.62238  0.48907  0.04103  Biso   1.000  O
  C24      1.0000 0.75000  0.76809  0.33937  Biso   1.000  C
  N16      1.0000 0.71908  0.88572  0.48743  Biso   1.000  N
  H20      1.0000 0.70931  0.89497  0.36683  Biso   1.000  H
  O8       1.0000 0.69670  0.91450  0.61311  Biso   1.000  O
  C25      1.0000 0.63197  0.32768  0.09721  Biso   1.000  C
  N17      1.0000 0.66519  0.18540  0.98170  Biso   1.000  N
  H21      1.0000 0.63540  0.14390  0.89140  Biso   1.000  H
  H22      1.0000 0.61639  0.14700  0.97497  Biso   1.000  H
  N18      1.0000 0.78128  0.77681  0.38761  Biso   1.000  N
  H23      1.0000 0.75000  0.71591  0.31380  Biso   1.000  H
  H24      1.0000 0.75000  0.80798  0.29671  Biso   1.000  H
  C26      1.0000 0.75000  0.93480  0.48930  Biso   1.000  C
  N19      1.0000 0.66483  0.28600  0.08503  Biso   1.000  N
  H25      1.0000 0.61619  0.29209  0.12460  Biso   1.000  H
  H26      1.0000 0.63560  0.37372  0.13181  Biso   1.000  H
  C27      1.0000 0.69471  0.15453  0.94709  Biso   1.000  C
  C28      1.0000 0.66726  0.20247  0.06472  Biso   1.000  C
  C29      1.0000 0.79412  0.85610  0.41040  Biso   1.000  C
  C30      1.0000 0.80604  0.72618  0.38180  Biso   1.000  C
  N20      1.0000 0.78092  0.88572  0.48743  Biso   1.000  N
  H27      1.0000 0.75000  0.96698  0.53809  Biso   1.000  H
  H28      1.0000 0.75000  0.97068  0.44312  Biso   1.000  H
  C31      1.0000 0.69501  0.31902  0.11769  Biso   1.000  C
  O9       1.0000 0.69857  0.13219  0.88067  Biso   1.000  O
  N21      1.0000 0.71923  0.15769  0.01048  Biso   1.000  N
  C32      1.0000 0.70581  0.17990  0.08357  Biso   1.000  C
  H29      1.0000 0.65120  0.17011  0.09642  Biso   1.000  H
  H30      1.0000 0.79069  0.89497  0.36683  Biso   1.000  H
  C33      1.0000 0.83220  0.84171  0.42670  Biso   1.000  C
  O10      1.0000 0.80335  0.65423  0.35937  Biso   1.000  O
  N22      1.0000 0.83662  0.75842  0.40761  Biso   1.000  N
  C34      1.0000 0.80583  0.88888  0.54488  Biso   1.000  C
  O11      1.0000 0.69826  0.38219  0.14339  Biso   1.000  O
  N23      1.0000 0.71918  0.25788  0.11339  Biso   1.000  N
  C35      1.0000 0.75000  0.10849  0.00079  Biso   1.000  C
  H31      1.0000 0.70770  0.13763  0.12442  Biso   1.000  H
  N24      1.0000 0.83565  0.86142  0.51130  Biso   1.000  N
  H32      1.0000 0.84670  0.87581  0.39270  Biso   1.000  H
  C36      1.0000 0.87008  0.72277  0.39198  Biso   1.000  C
  O12      1.0000 0.80330  0.91450  0.61311  Biso   1.000  O
  C37      1.0000 0.75000  0.26081  0.16211  Biso   1.000  C
  H33      1.0000 0.75000  0.08401  0.94758  Biso   1.000  H
  N25      1.0000 0.78077  0.15769  0.01048  Biso   1.000  N
  H34      1.0000 0.75000  0.06628  0.04109  Biso   1.000  H
  C38      1.0000 0.86844  0.87479  0.55082  Biso   1.000  C
  N26      1.0000 0.88826  0.70152  0.46543  Biso   1.000  N
  H35      1.0000 0.88381  0.76021  0.36119  Biso   1.000  H
  H36      1.0000 0.86701  0.67530  0.35913  Biso   1.000  H
  N27      1.0000 0.78082  0.25788  0.11339  Biso   1.000  N
  H37      1.0000 0.75000  0.21603  0.19950  Biso   1.000  H
  H38      1.0000 0.75000  0.30953  0.19393  Biso   1.000  H
  C39      1.0000 0.80529  0.15453  0.94709  Biso   1.000  C
  C40      1.0000 0.79419  0.17990  0.08357  Biso   1.000  C
  N28      1.0000 0.88629  0.80039  0.57209  Biso   1.000  N
  H39      1.0000 0.88289  0.90590  0.51500  Biso   1.000  H
  H40      1.0000 0.86481  0.90572  0.59972  Biso   1.000  H
  C41      1.0000 0.89701  0.62342  0.48427  Biso   1.000  C
  C42      1.0000 0.90680  0.75681  0.51288  Biso   1.000  C
  C43      1.0000 0.80499  0.31902  0.11769  Biso   1.000  C
  O13      1.0000 0.80143  0.13219  0.88067  Biso   1.000  O
  N29      1.0000 0.83481  0.18540  0.98170  Biso   1.000  N
  H41      1.0000 0.79230  0.13763  0.12442  Biso   1.000  H
  C44      1.0000 0.83274  0.20247  0.06472  Biso   1.000  C
  C45      1.0000 0.89396  0.78129  0.64838  Biso   1.000  C
  O14      1.0000 0.88407  0.56550  0.44979  Biso   1.000  O
  N30      1.0000 0.91944  0.62419  0.54330  Biso   1.000  N
  C46      1.0000 0.92990  0.70373  0.56851  Biso   1.000  C
  H42      1.0000 0.92051  0.79299  0.47918  Biso   1.000  H
  O15      1.0000 0.80174  0.38219  0.14339  Biso   1.000  O
  N31      1.0000 0.83517  0.28600  0.08503  Biso   1.000  N
  C47      1.0000 0.86798  0.17578  0.93982  Biso   1.000  C
  H43      1.0000 0.84880  0.17011  0.09642  Biso   1.000  H
  O16      1.0000 0.88115  0.81371  0.70978  Biso   1.000  O
  N32      1.0000 0.91921  0.72689  0.64911  Biso   1.000  N
  C48      1.0000 0.93890  0.55398  0.56360  Biso   1.000  C
  H44      1.0000 0.95430  0.71328  0.55942  Biso   1.000  H
  C49      1.0000 0.86803  0.32768  0.09721  Biso   1.000  C
  N33      1.0000 0.88350  0.25233  0.91710  Biso   1.000  N
  H45      1.0000 0.86460  0.14390  0.89140  Biso   1.000  H
  H46      1.0000 0.88361  0.14700  0.97497  Biso   1.000  H
  C50      1.0000 0.93941  0.70838  0.71977  Biso   1.000  C
  N34      1.0000 0.93317  0.52639  0.64608  Biso   1.000  N
  H47      1.0000 0.93299  0.51152  0.52621  Biso   1.000  H
  H48      1.0000 0.96309  0.56562  0.55669  Biso   1.000  H
  N35      1.0000 0.88302  0.35359  0.02170  Biso   1.000  N
  H49      1.0000 0.88381  0.29209  0.12460  Biso   1.000  H
  H50      1.0000 0.86440  0.37372  0.13181  Biso   1.000  H
  C51      1.0000 0.88957  0.27197  0.83789  Biso   1.000  C
  C52      1.0000 0.90258  0.29920  0.97291  Biso   1.000  C
  N36      1.0000 0.93373  0.62682  0.75008  Biso   1.000  N
  H51      1.0000 0.96340  0.71477  0.70668  Biso   1.000  H
  H52      1.0000 0.93389  0.74612  0.76250  Biso   1.000  H
  C53      1.0000 0.92371  0.44847  0.66008  Biso   1.000  C
  C54      1.0000 0.95166  0.56108  0.71232  Biso   1.000  C
  C55      1.0000 0.88974  0.43313  0.00521  Biso   1.000  C
  O17      1.0000 0.87693  0.23752  0.77838  Biso   1.000  O
  N37      1.0000 0.91199  0.33413  0.83589  Biso   1.000  N
  C56      1.0000 0.92330  0.35551  0.91752  Biso   1.000  C
  H53      1.0000 0.91760  0.26588  0.00630  Biso   1.000  H
  C57      1.0000 0.92297  0.61380  0.82837  Biso   1.000  C
  O18      1.0000 0.91107  0.40279  0.60930  Biso   1.000  O
  N38      1.0000 0.93097  0.43008  0.73892  Biso   1.000  N
  H54      1.0000 0.97540  0.57428  0.69820  Biso   1.000  H
  C58      1.0000 0.94895  0.49469  0.78098  Biso   1.000  C
  N39      1.0000 0.91184  0.43522  0.94400  Biso   1.000  N
  O19      1.0000 0.87762  0.48907  0.04103  Biso   1.000  O
  C59      1.0000 0.93320  0.34828  0.76571  Biso   1.000  C
  H55      1.0000 0.94801  0.34840  0.92443  Biso   1.000  H
  O20      1.0000 0.91049  0.66109  0.87370  Biso   1.000  O
  N40      1.0000 0.92944  0.53320  0.84359  Biso   1.000  N
  H56      1.0000 0.97151  0.47779  0.80038  Biso   1.000  H
  C60      1.0000 0.93194  0.50579  0.92728  Biso   1.000  C
  H57      1.0000 0.92611  0.31317  0.72202  Biso   1.000  H
  H58      1.0000 0.95680  0.33592  0.77892  Biso   1.000  H
  H59      1.0000 0.92450  0.54848  0.96291  Biso   1.000  H
  H60      1.0000 0.95570  0.49463  0.93958  Biso   1.000  H
  C61      1.0000 0.43890  0.44602  0.43640  Biso   1.000  C
  N41      1.0000 0.41944  0.37581  0.45670  Biso   1.000  N
  N42      1.0000 0.43317  0.47361  0.35392  Biso   1.000  N
  H61      1.0000 0.43299  0.48848  0.47379  Biso   1.000  H
  H62      1.0000 0.46309  0.43438  0.44331  Biso   1.000  H
  C62      1.0000 0.42990  0.29627  0.43149  Biso   1.000  C
  C63      1.0000 0.39701  0.37658  0.51573  Biso   1.000  C
  C64      1.0000 0.45166  0.43892  0.28768  Biso   1.000  C
  C65      1.0000 0.42371  0.55153  0.33992  Biso   1.000  C
  C66      1.0000 0.40680  0.24319  0.48712  Biso   1.000  C
  N43      1.0000 0.41921  0.27311  0.35089  Biso   1.000  N
  H63      1.0000 0.45430  0.28672  0.44058  Biso   1.000  H
  N44      1.0000 0.38826  0.29848  0.53457  Biso   1.000  N
  O21      1.0000 0.38407  0.43450  0.55021  Biso   1.000  O
  N45      1.0000 0.43373  0.37318  0.24992  Biso   1.000  N
  H64      1.0000 0.47540  0.42572  0.30180  Biso   1.000  H
  C67      1.0000 0.44895  0.50531  0.21902  Biso   1.000  C
  N46      1.0000 0.43097  0.56992  0.26108  Biso   1.000  N
  O22      1.0000 0.41107  0.59721  0.39070  Biso   1.000  O
  N47      1.0000 0.38629  0.19961  0.42791  Biso   1.000  N
  H65      1.0000 0.42051  0.20701  0.52082  Biso   1.000  H
  C68      1.0000 0.39396  0.21871  0.35162  Biso   1.000  C
  C69      1.0000 0.43941  0.29162  0.28023  Biso   1.000  C
  C70      1.0000 0.37008  0.27723  0.60802  Biso   1.000  C
  C71      1.0000 0.42297  0.38620  0.17163  Biso   1.000  C
  N48      1.0000 0.42944  0.46680  0.15641  Biso   1.000  N
  H66      1.0000 0.47151  0.52221  0.19962  Biso   1.000  H
  C72      1.0000 0.43320  0.65172  0.23429  Biso   1.000  C
  C73      1.0000 0.36844  0.12521  0.44918  Biso   1.000  C
  O23      1.0000 0.38115  0.18629  0.29022  Biso   1.000  O
  H67      1.0000 0.46340  0.28523  0.29332  Biso   1.000  H
  H68      1.0000 0.43389  0.25388  0.23750  Biso   1.000  H
  N49      1.0000 0.33662  0.24158  0.59239  Biso   1.000  N
  H69      1.0000 0.38381  0.23979  0.63881  Biso   1.000  H
  H70      1.0000 0.36701  0.32470  0.64087  Biso   1.000  H
  O24      1.0000 0.41049  0.33891  0.12630  Biso   1.000  O
  C74      1.0000 0.43194  0.49421  0.07272  Biso   1.000  C
  N50      1.0000 0.41199  0.66587  0.16411  Biso   1.000  N
  H71      1.0000 0.42611  0.68683  0.27798  Biso   1.000  H
  H72      1.0000 0.45680  0.66408  0.22108  Biso   1.000  H
  N51      1.0000 0.33565  0.13858  0.48870  Biso   1.000  N
  H73      1.0000 0.38289  0.09410  0.48500  Biso   1.000  H
  H74      1.0000 0.36481  0.09428  0.40028  Biso   1.000  H
  C75      1.0000 0.33220  0.15829  0.57330  Biso   1.000  C
  C76      1.0000 0.30604  0.27382  0.61820  Biso   1.000  C
  N52      1.0000 0.41184  0.56478  0.05600  Biso   1.000  N
  H75      1.0000 0.42450  0.45152  0.03709  Biso   1.000  H
  H76      1.0000 0.45570  0.50537  0.06042  Biso   1.000  H
  C77      1.0000 0.42330  0.64449  0.08248  Biso   1.000  C
  C78      1.0000 0.38957  0.72803  0.16211  Biso   1.000  C
  C79      1.0000 0.30583  0.11112  0.45512  Biso   1.000  C
  C80      1.0000 0.29412  0.14390  0.58960  Biso   1.000  C
  H77      1.0000 0.34670  0.12419  0.60730  Biso   1.000  H
  N53      1.0000 0.28128  0.22319  0.61239  Biso   1.000  N
  O25      1.0000 0.30335  0.34577  0.64063  Biso   1.000  O
  C81      1.0000 0.38974  0.56687  0.99479  Biso   1.000  C
  H78      1.0000 0.44801  0.65160  0.07557  Biso   1.000  H
  C82      1.0000 0.40258  0.70080  0.02709  Biso   1.000  C
  O26      1.0000 0.37693  0.76248  0.22162  Biso   1.000  O
  N54      1.0000 0.38350  0.74767  0.08290  Biso   1.000  N
  O27      1.0000 0.30330  0.08550  0.38689  Biso   1.000  O
  N55      1.0000 0.28092  0.11428  0.51257  Biso   1.000  N
  H79      1.0000 0.29069  0.10503  0.63317  Biso   1.000  H
  C83      1.0000 0.25000  0.23191  0.66063  Biso   1.000  C
  O28      1.0000 0.37762  0.51093  0.95897  Biso   1.000  O
  N56      1.0000 0.38302  0.64641  0.97830  Biso   1.000  N
  H80      1.0000 0.41760  0.73412  0.99370  Biso   1.000  H
  C84      1.0000 0.36798  0.82422  0.06018  Biso   1.000  C
  C85      1.0000 0.25000  0.06520  0.51070  Biso   1.000  C
  N57      1.0000 0.21872  0.22319  0.61239  Biso   1.000  N
  H81      1.0000 0.25000  0.28409  0.68620  Biso   1.000  H
  H82      1.0000 0.25000  0.19202  0.70329  Biso   1.000  H
  C86      1.0000 0.36803  0.67232  0.90279  Biso   1.000  C
  N58      1.0000 0.33481  0.81460  0.01830  Biso   1.000  N
  H83      1.0000 0.36460  0.85610  0.10860  Biso   1.000  H
  H84      1.0000 0.38361  0.85300  0.02503  Biso   1.000  H
  N59      1.0000 0.21908  0.11428  0.51257  Biso   1.000  N
  H85      1.0000 0.25000  0.03302  0.46191  Biso   1.000  H
  H86      1.0000 0.25000  0.02932  0.55688  Biso   1.000  H
  C87      1.0000 0.20588  0.14390  0.58960  Biso   1.000  C
  C88      1.0000 0.19396  0.27382  0.61820  Biso   1.000  C
  N60      1.0000 0.33517  0.71400  0.91497  Biso   1.000  N
  H87      1.0000 0.38381  0.70791  0.87540  Biso   1.000  H
  H88      1.0000 0.36440  0.62628  0.86819  Biso   1.000  H
  C89      1.0000 0.33274  0.79753  0.93528  Biso   1.000  C
  C90      1.0000 0.30529  0.84547  0.05291  Biso   1.000  C
  C91      1.0000 0.19417  0.11112  0.45512  Biso   1.000  C
  H89      1.0000 0.20931  0.10503  0.63317  Biso   1.000  H
  C92      1.0000 0.16780  0.15829  0.57330  Biso   1.000  C
  N61      1.0000 0.16338  0.24158  0.59239  Biso   1.000  N
  O29      1.0000 0.19665  0.34577  0.64063  Biso   1.000  O
  C93      1.0000 0.30499  0.68098  0.88231  Biso   1.000  C
  C94      1.0000 0.29419  0.82010  0.91643  Biso   1.000  C
  H90      1.0000 0.34880  0.82989  0.90358  Biso   1.000  H
  O30      1.0000 0.30143  0.86781  0.11933  Biso   1.000  O
  N62      1.0000 0.28077  0.84231  0.98952  Biso   1.000  N
  O31      1.0000 0.19670  0.08550  0.38689  Biso   1.000  O
  N63      1.0000 0.16435  0.13858  0.48870  Biso   1.000  N
  H91      1.0000 0.15330  0.12419  0.60730  Biso   1.000  H
  C95      1.0000 0.12992  0.27723  0.60802  Biso   1.000  C
  O32      1.0000 0.30174  0.61781  0.85661  Biso   1.000  O
  N64      1.0000 0.28082  0.74212  0.88661  Biso   1.000  N
  H92      1.0000 0.29230  0.86237  0.87558  Biso   1.000  H
  C96      1.0000 0.25000  0.89151  0.99921  Biso   1.000  C
  C97      1.0000 0.13156  0.12521  0.44918  Biso   1.000  C
  N65      1.0000 0.11174  0.29848  0.53457  Biso   1.000  N
  H93      1.0000 0.11619  0.23979  0.63881  Biso   1.000  H
  H94      1.0000 0.13299  0.32470  0.64087  Biso   1.000  H
  C98      1.0000 0.25000  0.73919  0.83789  Biso   1.000  C
  H95      1.0000 0.25000  0.91599  0.05242  Biso   1.000  H
  N66      1.0000 0.21923  0.84231  0.98952  Biso   1.000  N
  H96      1.0000 0.25000  0.93372  0.95891  Biso   1.000  H
  N67      1.0000 0.11371  0.19961  0.42791  Biso   1.000  N
  H97      1.0000 0.11711  0.09410  0.48500  Biso   1.000  H
  H98      1.0000 0.13519  0.09428  0.40028  Biso   1.000  H
  C99      1.0000 0.09320  0.24319  0.48712  Biso   1.000  C
  C100     1.0000 0.10299  0.37658  0.51573  Biso   1.000  C
  N68      1.0000 0.21918  0.74212  0.88661  Biso   1.000  N
  H99      1.0000 0.25000  0.78397  0.80050  Biso   1.000  H
  H100     1.0000 0.25000  0.69047  0.80607  Biso   1.000  H
  C101     1.0000 0.20581  0.82010  0.91643  Biso   1.000  C
  C102     1.0000 0.19471  0.84547  0.05291  Biso   1.000  C
  C103     1.0000 0.10604  0.21871  0.35162  Biso   1.000  C
  C104     1.0000 0.07010  0.29627  0.43149  Biso   1.000  C
  H101     1.0000 0.07949  0.20701  0.52082  Biso   1.000  H
  N69      1.0000 0.08056  0.37581  0.45670  Biso   1.000  N
  O33      1.0000 0.11593  0.43450  0.55021  Biso   1.000  O
  C105     1.0000 0.19501  0.68098  0.88231  Biso   1.000  C
  C106     1.0000 0.16726  0.79753  0.93528  Biso   1.000  C
  H102     1.0000 0.20770  0.86237  0.87558  Biso   1.000  H
  N70      1.0000 0.16519  0.81460  0.01830  Biso   1.000  N
  O34      1.0000 0.19857  0.86781  0.11933  Biso   1.000  O
  O35      1.0000 0.11885  0.18629  0.29022  Biso   1.000  O
  N71      1.0000 0.08079  0.27311  0.35089  Biso   1.000  N
  H103     1.0000 0.04570  0.28672  0.44058  Biso   1.000  H
  C107     1.0000 0.06110  0.44602  0.43640  Biso   1.000  C
  N72      1.0000 0.16483  0.71400  0.91497  Biso   1.000  N
  O36      1.0000 0.19826  0.61781  0.85661  Biso   1.000  O
  H104     1.0000 0.15120  0.82989  0.90358  Biso   1.000  H
  C108     1.0000 0.13202  0.82422  0.06018  Biso   1.000  C
  C109     1.0000 0.06059  0.29162  0.28023  Biso   1.000  C
  N73      1.0000 0.06683  0.47361  0.35392  Biso   1.000  N
  H105     1.0000 0.06701  0.48848  0.47379  Biso   1.000  H
  H106     1.0000 0.03691  0.43438  0.44331  Biso   1.000  H
  C110     1.0000 0.13197  0.67232  0.90279  Biso   1.000  C
  N74      1.0000 0.11650  0.74767  0.08290  Biso   1.000  N
  H107     1.0000 0.13540  0.85610  0.10860  Biso   1.000  H
  H108     1.0000 0.11639  0.85300  0.02503  Biso   1.000  H
  N75      1.0000 0.06627  0.37318  0.24992  Biso   1.000  N
  H109     1.0000 0.03660  0.28523  0.29332  Biso   1.000  H
  H110     1.0000 0.06611  0.25388  0.23750  Biso   1.000  H
  C111     1.0000 0.04834  0.43892  0.28768  Biso   1.000  C
  C112     1.0000 0.07629  0.55153  0.33992  Biso   1.000  C
  N76      1.0000 0.11698  0.64641  0.97830  Biso   1.000  N
  H111     1.0000 0.11619  0.70791  0.87540  Biso   1.000  H
  H112     1.0000 0.13560  0.62628  0.86819  Biso   1.000  H
  C113     1.0000 0.11043  0.72803  0.16211  Biso   1.000  C
  C114     1.0000 0.09742  0.70080  0.02709  Biso   1.000  C
  C115     1.0000 0.07703  0.38620  0.17163  Biso   1.000  C
  H113     1.0000 0.02460  0.42572  0.30180  Biso   1.000  H
  C116     1.0000 0.05105  0.50531  0.21902  Biso   1.000  C
  N77      1.0000 0.06903  0.56992  0.26108  Biso   1.000  N
  O37      1.0000 0.08893  0.59721  0.39070  Biso   1.000  O
  C117     1.0000 0.11026  0.56687  0.99479  Biso   1.000  C
  N78      1.0000 0.08801  0.66587  0.16411  Biso   1.000  N
  O38      1.0000 0.12307  0.76248  0.22162  Biso   1.000  O
  C118     1.0000 0.07670  0.64449  0.08248  Biso   1.000  C
  H114     1.0000 0.08240  0.73412  0.99370  Biso   1.000  H
  O39      1.0000 0.08951  0.33891  0.12630  Biso   1.000  O
  N79      1.0000 0.07056  0.46680  0.15641  Biso   1.000  N
  H115     1.0000 0.02849  0.52221  0.19962  Biso   1.000  H
  C119     1.0000 0.06680  0.65172  0.23429  Biso   1.000  C
  N80      1.0000 0.08816  0.56478  0.05600  Biso   1.000  N
  O40      1.0000 0.12238  0.51093  0.95897  Biso   1.000  O
  H116     1.0000 0.05199  0.65160  0.07557  Biso   1.000  H
  C120     1.0000 0.06806  0.49421  0.07272  Biso   1.000  C
  H117     1.0000 0.07389  0.68683  0.27798  Biso   1.000  H
  H118     1.0000 0.04320  0.66408  0.22108  Biso   1.000  H
  H119     1.0000 0.07550  0.45152  0.03709  Biso   1.000  H
  H120     1.0000 0.04430  0.50537  0.06042  Biso   1.000  H
  C121     1.0000 0.59463  0.25872  0.47482  Biso   1.000  C
  C122     1.0000 0.57389  0.20229  0.41913  Biso   1.000  C
  N81      1.0000 0.61552  0.20438  0.52330  Biso   1.000  N
  N82      1.0000 0.61611  0.30517  0.41513  Biso   1.000  N
  H121     1.0000 0.58000  0.29323  0.50803  Biso   1.000  H
  N83      1.0000 0.58596  0.12551  0.44282  Biso   1.000  N
  N84      1.0000 0.58361  0.22588  0.33919  Biso   1.000  N
  H122     1.0000 0.54931  0.20779  0.42791  Biso   1.000  H
  C123     1.0000 0.60916  0.13070  0.50609  Biso   1.000  C
  C124     1.0000 0.63197  0.23161  0.59681  Biso   1.000  C
  C125     1.0000 0.60770  0.28702  0.33901  Biso   1.000  C
  C126     1.0000 0.63130  0.37951  0.43713  Biso   1.000  C
  C127     1.0000 0.56560  0.05213  0.42670  Biso   1.000  C
  C128     1.0000 0.56320  0.20528  0.26629  Biso   1.000  C
  O41      1.0000 0.62202  0.07070  0.54057  Biso   1.000  O
  N85      1.0000 0.66512  0.26863  0.58251  Biso   1.000  N
  H123     1.0000 0.63491  0.18653  0.63299  Biso   1.000  H
  H124     1.0000 0.61721  0.26982  0.62360  Biso   1.000  H
  O42      1.0000 0.62013  0.31598  0.27859  Biso   1.000  O
  N86      1.0000 0.66427  0.37079  0.47427  Biso   1.000  N
  H125     1.0000 0.61619  0.40721  0.47427  Biso   1.000  H
  H126     1.0000 0.63361  0.41229  0.38889  Biso   1.000  H
  N87      1.0000 0.56849  0.02167  0.34459  Biso   1.000  N
  H127     1.0000 0.57299  0.01069  0.46397  Biso   1.000  H
  H128     1.0000 0.54179  0.06329  0.43791  Biso   1.000  H
  N88      1.0000 0.56806  0.12628  0.23962  Biso   1.000  N
  H129     1.0000 0.53921  0.21328  0.27829  Biso   1.000  H
  H130     1.0000 0.56941  0.24152  0.22277  Biso   1.000  H
  C129     1.0000 0.69419  0.24212  0.61251  Biso   1.000  C
  C130     1.0000 0.66749  0.35419  0.56287  Biso   1.000  C
  C131     1.0000 0.69381  0.39611  0.44391  Biso   1.000  C
  C132     1.0000 0.54977  0.06132  0.27877  Biso   1.000  C
  C133     1.0000 0.57632  0.94572  0.32768  Biso   1.000  C
  C134     1.0000 0.57409  0.10777  0.15848  Biso   1.000  C
  O43      1.0000 0.69747  0.17178  0.64051  Biso   1.000  O
  N89      1.0000 0.71880  0.29830  0.60802  Biso   1.000  N
  C135     1.0000 0.70601  0.37240  0.57833  Biso   1.000  C
  H131     1.0000 0.65220  0.38721  0.59602  Biso   1.000  H
  O44      1.0000 0.69775  0.41742  0.36980  Biso   1.000  O
  N90      1.0000 0.71821  0.39252  0.49512  Biso   1.000  N
  H132     1.0000 0.52701  0.07840  0.29671  Biso   1.000  H
  C136     1.0000 0.54734  0.99612  0.21441  Biso   1.000  C
  N91      1.0000 0.56601  0.93002  0.24950  Biso   1.000  N
  O45      1.0000 0.58910  0.89790  0.37537  Biso   1.000  O
  N92      1.0000 0.56376  0.03069  0.14351  Biso   1.000  N
  O46      1.0000 0.58601  0.15381  0.11090  Biso   1.000  O
  C137     1.0000 0.75000  0.29221  0.65481  Biso   1.000  C
  H133     1.0000 0.70941  0.41629  0.61669  Biso   1.000  H
  C138     1.0000 0.75000  0.43540  0.48888  Biso   1.000  C
  H134     1.0000 0.52350  0.98161  0.20320  Biso   1.000  H
  C139     1.0000 0.56230  0.84900  0.21908  Biso   1.000  C
  C140     1.0000 0.55847  0.00197  0.06218  Biso   1.000  C
  N93      1.0000 0.78120  0.29830  0.60802  Biso   1.000  N
  H135     1.0000 0.75000  0.24128  0.68299  Biso   1.000  H
  H136     1.0000 0.75000  0.33401  0.69547  Biso   1.000  H
  N94      1.0000 0.78179  0.39252  0.49512  Biso   1.000  N
  H137     1.0000 0.75000  0.47618  0.53057  Biso   1.000  H
  H138     1.0000 0.75000  0.46292  0.43713  Biso   1.000  H
  N95      1.0000 0.58166  0.83049  0.15011  Biso   1.000  N
  H139     1.0000 0.56859  0.81222  0.26198  Biso   1.000  H
  H140     1.0000 0.53839  0.83992  0.20678  Biso   1.000  H
  H141     1.0000 0.56361  0.04442  0.02412  Biso   1.000  H
  N96      1.0000 0.57967  0.93331  0.04430  Biso   1.000  N
  H142     1.0000 0.53460  0.98758  0.05539  Biso   1.000  H
  C141     1.0000 0.80581  0.24212  0.61251  Biso   1.000  C
  C142     1.0000 0.79399  0.37240  0.57833  Biso   1.000  C
  C143     1.0000 0.80619  0.39611  0.44391  Biso   1.000  C
  C144     1.0000 0.57100  0.85330  0.06721  Biso   1.000  C
  C145     1.0000 0.60711  0.77382  0.14872  Biso   1.000  C
  C146     1.0000 0.60348  0.93360  0.98218  Biso   1.000  C
  O47      1.0000 0.80253  0.17178  0.64051  Biso   1.000  O
  N97      1.0000 0.83488  0.26863  0.58251  Biso   1.000  N
  H143     1.0000 0.79059  0.41629  0.61669  Biso   1.000  H
  C147     1.0000 0.83251  0.35419  0.56287  Biso   1.000  C
  O48      1.0000 0.80225  0.41742  0.36980  Biso   1.000  O
  N98      1.0000 0.83573  0.37079  0.47427  Biso   1.000  N
  H144     1.0000 0.54670  0.84243  0.05830  Biso   1.000  H
  C148     1.0000 0.59394  0.79729  0.01479  Biso   1.000  C
  O49      1.0000 0.62013  0.74451  0.20908  Biso   1.000  O
  N99      1.0000 0.61675  0.75890  0.06957  Biso   1.000  N
  O50      1.0000 0.61355  0.99522  0.94631  Biso   1.000  O
  N100     1.0000 0.61302  0.85712  0.96540  Biso   1.000  N
  C149     1.0000 0.86803  0.23161  0.59681  Biso   1.000  C
  H145     1.0000 0.84780  0.38721  0.59602  Biso   1.000  H
  C150     1.0000 0.86870  0.37951  0.43713  Biso   1.000  C
  H146     1.0000 0.58079  0.75961  0.98182  Biso   1.000  H
  C151     1.0000 0.63263  0.68402  0.04788  Biso   1.000  C
  C152     1.0000 0.63059  0.83628  0.89237  Biso   1.000  C
  N101     1.0000 0.88448  0.20438  0.52330  Biso   1.000  N
  H147     1.0000 0.86509  0.18653  0.63299  Biso   1.000  H
  H148     1.0000 0.88279  0.26982  0.62360  Biso   1.000  H
  N102     1.0000 0.88389  0.30517  0.41513  Biso   1.000  N
  H149     1.0000 0.88381  0.40721  0.47427  Biso   1.000  H
  H150     1.0000 0.86639  0.41229  0.38889  Biso   1.000  H
  N103     1.0000 0.66468  0.69417  0.00909  Biso   1.000  N
  H151     1.0000 0.63581  0.65232  0.09660  Biso   1.000  H
  H152     1.0000 0.61749  0.65482  0.01212  Biso   1.000  H
  N104     1.0000 0.66386  0.79950  0.90619  Biso   1.000  N
  H153     1.0000 0.63371  0.88411  0.86013  Biso   1.000  H
  H154     1.0000 0.61650  0.79968  0.86158  Biso   1.000  H
  C153     1.0000 0.89084  0.13070  0.50609  Biso   1.000  C
  C154     1.0000 0.90537  0.25872  0.47482  Biso   1.000  C
  C155     1.0000 0.89230  0.28702  0.33901  Biso   1.000  C
  C156     1.0000 0.66770  0.71692  0.92267  Biso   1.000  C
  C157     1.0000 0.69394  0.66623  0.03909  Biso   1.000  C
  C158     1.0000 0.69261  0.83520  0.88189  Biso   1.000  C
  O51      1.0000 0.87798  0.07070  0.54057  Biso   1.000  O
  N105     1.0000 0.91404  0.12551  0.44282  Biso   1.000  N
  C159     1.0000 0.92611  0.20229  0.41913  Biso   1.000  C
  H155     1.0000 0.92000  0.29323  0.50803  Biso   1.000  H
  O52      1.0000 0.87987  0.31598  0.27859  Biso   1.000  O
  N106     1.0000 0.91639  0.22588  0.33919  Biso   1.000  N
  H156     1.0000 0.65279  0.68420  0.88819  Biso   1.000  H
  C160     1.0000 0.70642  0.70110  0.90467  Biso   1.000  C
  N107     1.0000 0.71949  0.67101  0.98073  Biso   1.000  N
  O53      1.0000 0.69775  0.64139  0.10890  Biso   1.000  O
  O54      1.0000 0.69685  0.90429  0.85849  Biso   1.000  O
  N108     1.0000 0.71903  0.77830  0.88498  Biso   1.000  N
  C161     1.0000 0.93440  0.05213  0.42670  Biso   1.000  C
  H157     1.0000 0.95069  0.20779  0.42791  Biso   1.000  H
  C162     1.0000 0.93680  0.20528  0.26629  Biso   1.000  C
  H158     1.0000 0.70959  0.66300  0.86031  Biso   1.000  H
  C163     1.0000 0.75000  0.62593  0.98449  Biso   1.000  C
  C164     1.0000 0.75000  0.78732  0.83771  Biso   1.000  C
  N109     1.0000 0.93151  0.02167  0.34459  Biso   1.000  N
  H159     1.0000 0.92701  0.01069  0.46397  Biso   1.000  H
  H160     1.0000 0.95821  0.06329  0.43791  Biso   1.000  H
  N110     1.0000 0.93194  0.12628  0.23962  Biso   1.000  N
  H161     1.0000 0.96079  0.21328  0.27829  Biso   1.000  H
  H162     1.0000 0.93059  0.24152  0.22277  Biso   1.000  H
  N111     1.0000 0.78051  0.67101  0.98073  Biso   1.000  N
  H163     1.0000 0.75000  0.58777  0.94019  Biso   1.000  H
  H164     1.0000 0.75000  0.59559  0.03473  Biso   1.000  H
  N112     1.0000 0.78097  0.77830  0.88498  Biso   1.000  N
  H165     1.0000 0.75000  0.74791  0.79462  Biso   1.000  H
  H166     1.0000 0.75000  0.83968  0.81268  Biso   1.000  H
  C165     1.0000 0.95023  0.06132  0.27877  Biso   1.000  C
  C166     1.0000 0.92368  0.94572  0.32768  Biso   1.000  C
  C167     1.0000 0.92591  0.10777  0.15848  Biso   1.000  C
  C168     1.0000 0.79358  0.70110  0.90467  Biso   1.000  C
  C169     1.0000 0.80606  0.66623  0.03909  Biso   1.000  C
  C170     1.0000 0.80739  0.83520  0.88189  Biso   1.000  C
  H167     1.0000 0.97299  0.07840  0.29671  Biso   1.000  H
  C171     1.0000 0.95266  0.99612  0.21441  Biso   1.000  C
  N113     1.0000 0.93399  0.93002  0.24950  Biso   1.000  N
  O55      1.0000 0.91090  0.89790  0.37537  Biso   1.000  O
  N114     1.0000 0.93624  0.03069  0.14351  Biso   1.000  N
  O56      1.0000 0.91399  0.15381  0.11090  Biso   1.000  O
  C172     1.0000 0.83230  0.71692  0.92267  Biso   1.000  C
  H168     1.0000 0.79041  0.66300  0.86031  Biso   1.000  H
  O57      1.0000 0.80225  0.64139  0.10890  Biso   1.000  O
  N115     1.0000 0.83532  0.69417  0.00909  Biso   1.000  N
  O58      1.0000 0.80315  0.90429  0.85849  Biso   1.000  O
  N116     1.0000 0.83614  0.79950  0.90619  Biso   1.000  N
  H169     1.0000 0.97650  0.98161  0.20320  Biso   1.000  H
  C173     1.0000 0.93770  0.84900  0.21908  Biso   1.000  C
  C174     1.0000 0.94153  0.00197  0.06218  Biso   1.000  C
  H170     1.0000 0.84721  0.68420  0.88819  Biso   1.000  H
  C175     1.0000 0.86737  0.68402  0.04788  Biso   1.000  C
  C176     1.0000 0.86941  0.83628  0.89237  Biso   1.000  C
  N117     1.0000 0.91834  0.83049  0.15011  Biso   1.000  N
  H171     1.0000 0.93141  0.81222  0.26198  Biso   1.000  H
  H172     1.0000 0.96161  0.83992  0.20678  Biso   1.000  H
  N118     1.0000 0.92033  0.93331  0.04430  Biso   1.000  N
  H173     1.0000 0.93639  0.04442  0.02412  Biso   1.000  H
  H174     1.0000 0.96540  0.98758  0.05539  Biso   1.000  H
  N119     1.0000 0.88325  0.75890  0.06957  Biso   1.000  N
  H175     1.0000 0.86419  0.65232  0.09660  Biso   1.000  H
  H176     1.0000 0.88251  0.65482  0.01212  Biso   1.000  H
  N120     1.0000 0.88698  0.85712  0.96540  Biso   1.000  N
  H177     1.0000 0.86629  0.88411  0.86013  Biso   1.000  H
  H178     1.0000 0.88350  0.79968  0.86158  Biso   1.000  H
  C177     1.0000 0.89289  0.77382  0.14872  Biso   1.000  C
  C178     1.0000 0.92900  0.85330  0.06721  Biso   1.000  C
  C179     1.0000 0.89652  0.93360  0.98218  Biso   1.000  C
  C180     1.0000 0.90606  0.79729  0.01479  Biso   1.000  C
  O59      1.0000 0.87987  0.74451  0.20908  Biso   1.000  O
  H179     1.0000 0.95330  0.84243  0.05830  Biso   1.000  H
  O60      1.0000 0.88645  0.99522  0.94631  Biso   1.000  O
  H180     1.0000 0.91921  0.75961  0.98182  Biso   1.000  H
  C181     1.0000 0.40537  0.74128  0.52518  Biso   1.000  C
  N121     1.0000 0.38389  0.69483  0.58487  Biso   1.000  N
  N122     1.0000 0.38448  0.79562  0.47670  Biso   1.000  N
  C182     1.0000 0.42611  0.79771  0.58087  Biso   1.000  C
  H181     1.0000 0.42000  0.70677  0.49197  Biso   1.000  H
  C183     1.0000 0.36870  0.62049  0.56287  Biso   1.000  C
  C184     1.0000 0.39230  0.71298  0.66099  Biso   1.000  C
  C185     1.0000 0.36803  0.76839  0.40319  Biso   1.000  C
  C186     1.0000 0.39084  0.86930  0.49391  Biso   1.000  C
  N123     1.0000 0.41639  0.77412  0.66081  Biso   1.000  N
  N124     1.0000 0.41404  0.87449  0.55718  Biso   1.000  N
  H182     1.0000 0.45069  0.79221  0.57209  Biso   1.000  H
  N125     1.0000 0.33573  0.62921  0.52573  Biso   1.000  N
  H183     1.0000 0.38381  0.59279  0.52573  Biso   1.000  H
  H184     1.0000 0.36639  0.58771  0.61111  Biso   1.000  H
  O61      1.0000 0.37987  0.68402  0.72141  Biso   1.000  O
  N126     1.0000 0.33488  0.73137  0.41749  Biso   1.000  N
  H185     1.0000 0.36509  0.81347  0.36701  Biso   1.000  H
  H186     1.0000 0.38279  0.73018  0.37640  Biso   1.000  H
  O62      1.0000 0.37798  0.92930  0.45943  Biso   1.000  O
  C187     1.0000 0.43680  0.79472  0.73371  Biso   1.000  C
  C188     1.0000 0.43440  0.94787  0.57330  Biso   1.000  C
  C189     1.0000 0.30619  0.60389  0.55609  Biso   1.000  C
  C190     1.0000 0.33251  0.64581  0.43713  Biso   1.000  C
  C191     1.0000 0.30581  0.75788  0.38749  Biso   1.000  C
  N127     1.0000 0.43194  0.87372  0.76038  Biso   1.000  N
  H187     1.0000 0.46079  0.78672  0.72171  Biso   1.000  H
  H188     1.0000 0.43059  0.75848  0.77723  Biso   1.000  H
  N128     1.0000 0.43151  0.97833  0.65541  Biso   1.000  N
  H189     1.0000 0.42701  0.98931  0.53603  Biso   1.000  H
  H190     1.0000 0.45821  0.93671  0.56209  Biso   1.000  H
  N129     1.0000 0.28179  0.60748  0.50488  Biso   1.000  N
  O63      1.0000 0.30225  0.58258  0.63020  Biso   1.000  O
  C192     1.0000 0.29399  0.62760  0.42167  Biso   1.000  C
  H191     1.0000 0.34780  0.61279  0.40398  Biso   1.000  H
  N130     1.0000 0.28120  0.70170  0.39198  Biso   1.000  N
  O64      1.0000 0.30253  0.82822  0.35949  Biso   1.000  O
  C193     1.0000 0.42591  0.89223  0.84152  Biso   1.000  C
  C194     1.0000 0.45023  0.93868  0.72123  Biso   1.000  C
  C195     1.0000 0.42368  0.05428  0.67232  Biso   1.000  C
  C196     1.0000 0.25000  0.56460  0.51112  Biso   1.000  C
  H192     1.0000 0.29059  0.58371  0.38331  Biso   1.000  H
  C197     1.0000 0.25000  0.70779  0.34519  Biso   1.000  C
  O65      1.0000 0.41399  0.84619  0.88910  Biso   1.000  O
  N131     1.0000 0.43624  0.96931  0.85649  Biso   1.000  N
  H193     1.0000 0.47299  0.92160  0.70329  Biso   1.000  H
  C198     1.0000 0.45266  0.00388  0.78559  Biso   1.000  C
  O66      1.0000 0.41090  0.10210  0.62463  Biso   1.000  O
  N132     1.0000 0.43399  0.06998  0.75050  Biso   1.000  N
  N133     1.0000 0.21821  0.60748  0.50488  Biso   1.000  N
  H194     1.0000 0.25000  0.52382  0.46943  Biso   1.000  H
  H195     1.0000 0.25000  0.53708  0.56287  Biso   1.000  H
  N134     1.0000 0.21880  0.70170  0.39198  Biso   1.000  N
  H196     1.0000 0.25000  0.75872  0.31701  Biso   1.000  H
  H197     1.0000 0.25000  0.66599  0.30453  Biso   1.000  H
  C199     1.0000 0.44153  0.99803  0.93782  Biso   1.000  C
  H198     1.0000 0.47650  0.01839  0.79680  Biso   1.000  H
  C200     1.0000 0.43770  0.15100  0.78092  Biso   1.000  C
  C201     1.0000 0.20601  0.62760  0.42167  Biso   1.000  C
  C202     1.0000 0.19381  0.60389  0.55609  Biso   1.000  C
  C203     1.0000 0.19419  0.75788  0.38749  Biso   1.000  C
  H199     1.0000 0.43639  0.95558  0.97588  Biso   1.000  H
  N135     1.0000 0.42033  0.06669  0.95570  Biso   1.000  N
  H200     1.0000 0.46540  0.01242  0.94461  Biso   1.000  H
  N136     1.0000 0.41834  0.16951  0.84989  Biso   1.000  N
  H201     1.0000 0.43141  0.18778  0.73802  Biso   1.000  H
  H202     1.0000 0.46161  0.16008  0.79322  Biso   1.000  H
  H203     1.0000 0.20941  0.58371  0.38331  Biso   1.000  H
  C204     1.0000 0.16749  0.64581  0.43713  Biso   1.000  C
  O67      1.0000 0.19775  0.58258  0.63020  Biso   1.000  O
  N137     1.0000 0.16427  0.62921  0.52573  Biso   1.000  N
  N138     1.0000 0.16512  0.73137  0.41749  Biso   1.000  N
  O68      1.0000 0.19747  0.82822  0.35949  Biso   1.000  O
  C205     1.0000 0.42900  0.14670  0.93279  Biso   1.000  C
  C206     1.0000 0.39652  0.06640  0.01782  Biso   1.000  C
  C207     1.0000 0.39289  0.22618  0.85128  Biso   1.000  C
  H204     1.0000 0.15220  0.61279  0.40398  Biso   1.000  H
  C208     1.0000 0.13130  0.62049  0.56287  Biso   1.000  C
  C209     1.0000 0.13197  0.76839  0.40319  Biso   1.000  C
  H205     1.0000 0.45330  0.15757  0.94170  Biso   1.000  H
  C210     1.0000 0.40606  0.20271  0.98521  Biso   1.000  C
  O69      1.0000 0.38645  0.00478  0.05369  Biso   1.000  O
  N139     1.0000 0.38698  0.14288  0.03460  Biso   1.000  N
  O70      1.0000 0.37987  0.25549  0.79092  Biso   1.000  O
  N140     1.0000 0.38325  0.24110  0.93043  Biso   1.000  N
  N141     1.0000 0.11611  0.69483  0.58487  Biso   1.000  N
  H206     1.0000 0.11619  0.59279  0.52573  Biso   1.000  H
  H207     1.0000 0.13361  0.58771  0.61111  Biso   1.000  H
  N142     1.0000 0.11552  0.79562  0.47670  Biso   1.000  N
  H208     1.0000 0.13491  0.81347  0.36701  Biso   1.000  H
  H209     1.0000 0.11721  0.73018  0.37640  Biso   1.000  H
  H210     1.0000 0.41921  0.24039  0.01818  Biso   1.000  H
  C211     1.0000 0.36941  0.16372  0.10763  Biso   1.000  C
  C212     1.0000 0.36737  0.31598  0.95212  Biso   1.000  C
  C213     1.0000 0.10770  0.71298  0.66099  Biso   1.000  C
  C214     1.0000 0.09463  0.74128  0.52518  Biso   1.000  C
  C215     1.0000 0.10916  0.86930  0.49391  Biso   1.000  C
  N143     1.0000 0.33614  0.20050  0.09381  Biso   1.000  N
  H211     1.0000 0.36629  0.11589  0.13987  Biso   1.000  H
  H212     1.0000 0.38350  0.20032  0.13842  Biso   1.000  H
  N144     1.0000 0.33532  0.30583  0.99091  Biso   1.000  N
  H213     1.0000 0.36419  0.34768  0.90340  Biso   1.000  H
  H214     1.0000 0.38251  0.34518  0.98788  Biso   1.000  H
  O71      1.0000 0.12013  0.68402  0.72141  Biso   1.000  O
  N145     1.0000 0.08361  0.77412  0.66081  Biso   1.000  N
  C216     1.0000 0.07389  0.79771  0.58087  Biso   1.000  C
  H215     1.0000 0.08000  0.70677  0.49197  Biso   1.000  H
  O72      1.0000 0.12202  0.92930  0.45943  Biso   1.000  O
  N146     1.0000 0.08596  0.87449  0.55718  Biso   1.000  N
  C217     1.0000 0.33230  0.28308  0.07733  Biso   1.000  C
  C218     1.0000 0.30739  0.16480  0.11811  Biso   1.000  C
  C219     1.0000 0.30606  0.33377  0.96091  Biso   1.000  C
  C220     1.0000 0.06320  0.79472  0.73371  Biso   1.000  C
  H216     1.0000 0.04931  0.79221  0.57209  Biso   1.000  H
  C221     1.0000 0.06560  0.94787  0.57330  Biso   1.000  C
  H217     1.0000 0.34721  0.31580  0.11181  Biso   1.000  H
  C222     1.0000 0.29358  0.29890  0.09533  Biso   1.000  C
  O73      1.0000 0.30315  0.09571  0.14151  Biso   1.000  O
  N147     1.0000 0.28097  0.22170  0.11502  Biso   1.000  N
  O74      1.0000 0.30225  0.35861  0.89110  Biso   1.000  O
  N148     1.0000 0.28051  0.32899  0.01927  Biso   1.000  N
  N149     1.0000 0.06806  0.87372  0.76038  Biso   1.000  N
  H218     1.0000 0.03921  0.78672  0.72171  Biso   1.000  H
  H219     1.0000 0.06941  0.75848  0.77723  Biso   1.000  H
  N150     1.0000 0.06849  0.97833  0.65541  Biso   1.000  N
  H220     1.0000 0.07299  0.98931  0.53603  Biso   1.000  H
  H221     1.0000 0.04179  0.93671  0.56209  Biso   1.000  H
  H222     1.0000 0.29041  0.33700  0.13969  Biso   1.000  H
  C223     1.0000 0.25000  0.21268  0.16229  Biso   1.000  C
  C224     1.0000 0.25000  0.37407  0.01551  Biso   1.000  C
  C225     1.0000 0.07409  0.89223  0.84152  Biso   1.000  C
  C226     1.0000 0.04977  0.93868  0.72123  Biso   1.000  C
  C227     1.0000 0.07632  0.05428  0.67232  Biso   1.000  C
  N151     1.0000 0.21903  0.22170  0.11502  Biso   1.000  N
  H223     1.0000 0.25000  0.25209  0.20538  Biso   1.000  H
  H224     1.0000 0.25000  0.16032  0.18732  Biso   1.000  H
  N152     1.0000 0.21949  0.32899  0.01927  Biso   1.000  N
  H225     1.0000 0.25000  0.40441  0.96527  Biso   1.000  H
  H226     1.0000 0.25000  0.41223  0.05981  Biso   1.000  H
  O75      1.0000 0.08601  0.84619  0.88910  Biso   1.000  O
  N153     1.0000 0.06376  0.96931  0.85649  Biso   1.000  N
  H227     1.0000 0.02701  0.92160  0.70329  Biso   1.000  H
  C228     1.0000 0.04734  0.00388  0.78559  Biso   1.000  C
  O76      1.0000 0.08910  0.10210  0.62463  Biso   1.000  O
  N154     1.0000 0.06601  0.06998  0.75050  Biso   1.000  N
  C229     1.0000 0.19261  0.16480  0.11811  Biso   1.000  C
  C230     1.0000 0.20642  0.29890  0.09533  Biso   1.000  C
  C231     1.0000 0.19394  0.33377  0.96091  Biso   1.000  C
  C232     1.0000 0.05847  0.99803  0.93782  Biso   1.000  C
  H228     1.0000 0.02350  0.01839  0.79680  Biso   1.000  H
  C233     1.0000 0.06230  0.15100  0.78092  Biso   1.000  C
  N155     1.0000 0.16386  0.20050  0.09381  Biso   1.000  N
  O77      1.0000 0.19685  0.09571  0.14151  Biso   1.000  O
  C234     1.0000 0.16770  0.28308  0.07733  Biso   1.000  C
  H229     1.0000 0.20959  0.33700  0.13969  Biso   1.000  H
  N156     1.0000 0.16468  0.30583  0.99091  Biso   1.000  N
  O78      1.0000 0.19775  0.35861  0.89110  Biso   1.000  O
  H230     1.0000 0.06361  0.95558  0.97588  Biso   1.000  H
  N157     1.0000 0.07967  0.06669  0.95570  Biso   1.000  N
  H231     1.0000 0.03460  0.01242  0.94461  Biso   1.000  H
  N158     1.0000 0.08166  0.16951  0.84989  Biso   1.000  N
  H232     1.0000 0.06859  0.18778  0.73802  Biso   1.000  H
  H233     1.0000 0.03839  0.16008  0.79322  Biso   1.000  H
  C235     1.0000 0.13059  0.16372  0.10763  Biso   1.000  C
  H234     1.0000 0.15279  0.31580  0.11181  Biso   1.000  H
  C236     1.0000 0.13263  0.31598  0.95212  Biso   1.000  C
  C237     1.0000 0.07100  0.14670  0.93279  Biso   1.000  C
  C238     1.0000 0.10348  0.06640  0.01782  Biso   1.000  C
  C239     1.0000 0.10711  0.22618  0.85128  Biso   1.000  C
  N159     1.0000 0.11302  0.14288  0.03460  Biso   1.000  N
  H235     1.0000 0.13371  0.11589  0.13987  Biso   1.000  H
  H236     1.0000 0.11650  0.20032  0.13842  Biso   1.000  H
  N160     1.0000 0.11675  0.24110  0.93043  Biso   1.000  N
  H237     1.0000 0.13581  0.34768  0.90340  Biso   1.000  H
  H238     1.0000 0.11749  0.34518  0.98788  Biso   1.000  H
  H239     1.0000 0.04670  0.15757  0.94170  Biso   1.000  H
  C240     1.0000 0.09394  0.20271  0.98521  Biso   1.000  C
  O79      1.0000 0.11355  0.00478  0.05369  Biso   1.000  O
  O80      1.0000 0.12013  0.25549  0.79092  Biso   1.000  O
  H240     1.0000 0.08079  0.24039  0.01818  Biso   1.000  H
