data_image0
_cell_length_a       36.554
_cell_length_b       15.575
_cell_length_c       12.457
_cell_angle_alpha    90
_cell_angle_beta     90
_cell_angle_gamma    90

_symmetry_space_group_name_H-M    "P 1"
_symmetry_int_tables_number       1

loop_
  _symmetry_equiv_pos_as_xyz
  'x, y, z'

loop_
  _atom_site_label
  _atom_site_occupancy
  _atom_site_fract_x
  _atom_site_fract_y
  _atom_site_fract_z
  _atom_site_thermal_displace_type
  _atom_site_B_iso_or_equiv
  _atom_site_type_symbol
  C1       1.0000 0.52000  0.42343  0.59364  Biso   1.000  C
  C2       1.0000 0.55611  0.41714  0.56635  Biso   1.000  C
  H1       1.0000 0.50200  0.42382  0.53841  Biso   1.000  H
  C3       1.0000 0.50889  0.42934  0.69985  Biso   1.000  C
  C4       1.0000 0.56711  0.41124  0.44971  Biso   1.000  C
  C5       1.0000 0.58169  0.41573  0.64831  Biso   1.000  C
  C6       1.0000 0.53551  0.42620  0.78012  Biso   1.000  C
  H2       1.0000 0.48380  0.43544  0.71759  Biso   1.000  H
  C7       1.0000 0.58470  0.32738  0.41647  Biso   1.000  C
  H3       1.0000 0.58440  0.45843  0.43397  Biso   1.000  H
  H4       1.0000 0.54511  0.42042  0.40491  Biso   1.000  H
  O1       1.0000 0.61815  0.40790  0.61708  Biso   1.000  O
  C8       1.0000 0.57211  0.41958  0.75620  Biso   1.000  C
  H5       1.0000 0.52820  0.42870  0.85317  Biso   1.000  H
  C9       1.0000 0.56689  0.25002  0.43221  Biso   1.000  C
  C10      1.0000 0.61941  0.32623  0.36887  Biso   1.000  C
  K1       1.0000 0.65117  0.25002  0.58618  Biso   1.000  K
  C11      1.0000 0.63979  0.48584  0.62623  Biso   1.000  C
  C12      1.0000 0.60040  0.41124  0.84418  Biso   1.000  C
  O2       1.0000 0.53089  0.25002  0.46512  Biso   1.000  O
  C13      1.0000 0.58470  0.17258  0.41647  Biso   1.000  C
  H6       1.0000 0.63161  0.37868  0.35362  Biso   1.000  H
  C14      1.0000 0.63580  0.25002  0.34455  Biso   1.000  C
  O3       1.0000 0.61815  0.09213  0.61708  Biso   1.000  O
  O4       1.0000 0.69191  0.40751  0.58064  Biso   1.000  O
  O5       1.0000 0.69191  0.09252  0.58064  Biso   1.000  O
  O6       1.0000 0.72558  0.25002  0.52549  Biso   1.000  O
  C15      1.0000 0.67741  0.25002  0.81978  Biso   1.000  C
  C16      1.0000 0.67131  0.48000  0.55270  Biso   1.000  C
  H7       1.0000 0.64841  0.49284  0.70097  Biso   1.000  H
  H8       1.0000 0.62461  0.53631  0.60745  Biso   1.000  H
  C17      1.0000 0.62141  0.32828  0.84499  Biso   1.000  C
  H9       1.0000 0.61810  0.45913  0.83712  Biso   1.000  H
  H10      1.0000 0.58801  0.41772  0.91435  Biso   1.000  H
  C18      1.0000 0.50670  0.25002  0.37208  Biso   1.000  C
  C19      1.0000 0.56711  0.08880  0.44971  Biso   1.000  C
  C20      1.0000 0.61941  0.17380  0.36887  Biso   1.000  C
  H11      1.0000 0.65900  0.25002  0.30987  Biso   1.000  H
  C21      1.0000 0.58169  0.08430  0.64831  Biso   1.000  C
  C22      1.0000 0.63979  0.01419  0.62623  Biso   1.000  C
  C23      1.0000 0.72460  0.40404  0.51891  Biso   1.000  C
  C24      1.0000 0.67131  0.02003  0.55270  Biso   1.000  C
  C25      1.0000 0.72460  0.09599  0.51891  Biso   1.000  C
  C26      1.0000 0.74610  0.32411  0.55342  Biso   1.000  C
  C27      1.0000 0.74610  0.17592  0.55342  Biso   1.000  C
  C28      1.0000 0.65859  0.32642  0.82612  Biso   1.000  C
  C29      1.0000 0.65859  0.17361  0.82612  Biso   1.000  C
  H12      1.0000 0.70321  0.25002  0.81111  Biso   1.000  H
  H13      1.0000 0.66269  0.47499  0.47764  Biso   1.000  H
  H14      1.0000 0.68660  0.53233  0.55872  Biso   1.000  H
  C30      1.0000 0.60360  0.25002  0.86032  Biso   1.000  C
  C31      1.0000 0.46950  0.20340  0.41142  Biso   1.000  C
  C32      1.0000 0.46950  0.29663  0.41142  Biso   1.000  C
  H15      1.0000 0.51819  0.22170  0.31252  Biso   1.000  H
  H16      1.0000 0.51819  0.27833  0.31252  Biso   1.000  H
  H17      1.0000 0.50041  0.30748  0.35137  Biso   1.000  H
  H18      1.0000 0.50041  0.19249  0.35137  Biso   1.000  H
  C33      1.0000 0.55611  0.08289  0.56635  Biso   1.000  C
  H19      1.0000 0.58440  0.04161  0.43397  Biso   1.000  H
  H20      1.0000 0.54511  0.07961  0.40491  Biso   1.000  H
  H21      1.0000 0.63161  0.12128  0.35362  Biso   1.000  H
  C34      1.0000 0.57211  0.08039  0.75620  Biso   1.000  C
  H22      1.0000 0.64841  0.00719  0.70097  Biso   1.000  H
  H23      1.0000 0.62461  0.96372  0.60745  Biso   1.000  H
  H24      1.0000 0.73940  0.45624  0.53143  Biso   1.000  H
  H25      1.0000 0.71861  0.40064  0.44152  Biso   1.000  H
  H26      1.0000 0.66269  0.02498  0.47764  Biso   1.000  H
  H27      1.0000 0.68660  0.96770  0.55872  Biso   1.000  H
  H28      1.0000 0.73940  0.04379  0.53143  Biso   1.000  H
  H29      1.0000 0.71861  0.09939  0.44152  Biso   1.000  H
  H30      1.0000 0.77009  0.32289  0.51682  Biso   1.000  H
  H31      1.0000 0.75040  0.32539  0.63177  Biso   1.000  H
  H32      1.0000 0.77009  0.17708  0.51682  Biso   1.000  H
  H33      1.0000 0.75040  0.17457  0.63177  Biso   1.000  H
  H34      1.0000 0.67150  0.37894  0.81721  Biso   1.000  H
  C35      1.0000 0.62141  0.17169  0.84499  Biso   1.000  C
  H35      1.0000 0.67150  0.12109  0.81721  Biso   1.000  H
  O7       1.0000 0.56752  0.25002  0.89098  Biso   1.000  O
  O8       1.0000 0.45420  0.25002  0.46544  Biso   1.000  O
  H36      1.0000 0.45379  0.18684  0.35297  Biso   1.000  H
  H37      1.0000 0.47579  0.15390  0.45348  Biso   1.000  H
  H38      1.0000 0.45379  0.31319  0.35297  Biso   1.000  H
  H39      1.0000 0.47579  0.34613  0.45348  Biso   1.000  H
  C36      1.0000 0.52000  0.07660  0.59364  Biso   1.000  C
  C37      1.0000 0.60040  0.08880  0.84418  Biso   1.000  C
  C38      1.0000 0.53551  0.07377  0.78012  Biso   1.000  C
  C39      1.0000 0.56500  0.25002  0.00417  Biso   1.000  C
  C40      1.0000 0.41949  0.25002  0.50462  Biso   1.000  C
  H40      1.0000 0.50200  0.07621  0.53841  Biso   1.000  H
  C41      1.0000 0.50889  0.07069  0.69985  Biso   1.000  C
  H41      1.0000 0.61810  0.04090  0.83712  Biso   1.000  H
  H42      1.0000 0.58801  0.08231  0.91435  Biso   1.000  H
  H43      1.0000 0.52820  0.07133  0.85317  Biso   1.000  H
  C42      1.0000 0.52749  0.30761  0.04600  Biso   1.000  C
  C43      1.0000 0.52749  0.19242  0.04600  Biso   1.000  C
  H44      1.0000 0.58601  0.27852  0.03388  Biso   1.000  H
  H45      1.0000 0.58601  0.22151  0.03388  Biso   1.000  H
  H46      1.0000 0.56341  0.19294  0.03291  Biso   1.000  H
  H47      1.0000 0.56341  0.30709  0.03291  Biso   1.000  H
  C44      1.0000 0.40198  0.32571  0.52509  Biso   1.000  C
  C45      1.0000 0.40198  0.17432  0.52509  Biso   1.000  C
  H48      1.0000 0.48380  0.06459  0.71759  Biso   1.000  H
  O9       1.0000 0.50900  0.25002  0.07594  Biso   1.000  O
  H49      1.0000 0.51639  0.33490  0.98403  Biso   1.000  H
  H50      1.0000 0.53280  0.35050  0.10018  Biso   1.000  H
  H51      1.0000 0.51639  0.16514  0.98403  Biso   1.000  H
  H52      1.0000 0.53280  0.14953  0.10018  Biso   1.000  H
  C46      1.0000 0.36658  0.32482  0.56474  Biso   1.000  C
  H53      1.0000 0.41399  0.37881  0.51208  Biso   1.000  H
  C47      1.0000 0.36658  0.17522  0.56474  Biso   1.000  C
  H54      1.0000 0.41399  0.12122  0.51208  Biso   1.000  H
  C48      1.0000 0.47229  0.25002  0.10532  Biso   1.000  C
  C49      1.0000 0.34751  0.25002  0.58513  Biso   1.000  C
  H55      1.0000 0.35490  0.37823  0.57863  Biso   1.000  H
  H56      1.0000 0.35490  0.12180  0.57863  Biso   1.000  H
  C50      1.0000 0.45358  0.32591  0.11752  Biso   1.000  C
  C51      1.0000 0.45358  0.17413  0.11752  Biso   1.000  C
  C52      1.0000 0.30741  0.25002  0.62110  Biso   1.000  C
  C53      1.0000 0.41662  0.32520  0.13767  Biso   1.000  C
  H57      1.0000 0.46619  0.37900  0.11199  Biso   1.000  H
  C54      1.0000 0.41662  0.17483  0.13767  Biso   1.000  C
  H58      1.0000 0.46619  0.12103  0.11199  Biso   1.000  H
  C55      1.0000 0.28301  0.25002  0.51979  Biso   1.000  C
  C56      1.0000 0.29909  0.17002  0.68315  Biso   1.000  C
  C57      1.0000 0.29909  0.33002  0.68315  Biso   1.000  C
  C58      1.0000 0.39700  0.25002  0.14683  Biso   1.000  C
  H59      1.0000 0.40409  0.37830  0.14570  Biso   1.000  H
  H60      1.0000 0.40409  0.12173  0.14570  Biso   1.000  H
  H61      1.0000 0.25770  0.25002  0.54082  Biso   1.000  H
  H62      1.0000 0.28801  0.19968  0.47780  Biso   1.000  H
  H63      1.0000 0.28801  0.30029  0.47780  Biso   1.000  H
  N1       1.0000 0.32068  0.14459  0.76768  Biso   1.000  N
  C59      1.0000 0.27472  0.10510  0.66613  Biso   1.000  C
  N2       1.0000 0.32068  0.35544  0.76768  Biso   1.000  N
  C60      1.0000 0.27472  0.39493  0.66613  Biso   1.000  C
  C61      1.0000 0.35561  0.25002  0.16633  Biso   1.000  C
  H64      1.0000 0.33859  0.17528  0.79497  Biso   1.000  H
  C62      1.0000 0.31042  0.06453  0.80413  Biso   1.000  C
  H65      1.0000 0.25631  0.10401  0.61235  Biso   1.000  H
  C63      1.0000 0.28161  0.03961  0.74271  Biso   1.000  C
  H66      1.0000 0.33859  0.32469  0.79497  Biso   1.000  H
  C64      1.0000 0.31042  0.43551  0.80413  Biso   1.000  C
  H67      1.0000 0.25631  0.39602  0.61235  Biso   1.000  H
  C65      1.0000 0.28161  0.46042  0.74271  Biso   1.000  C
  C66      1.0000 0.33764  0.16970  0.12178  Biso   1.000  C
  C67      1.0000 0.33764  0.33034  0.12178  Biso   1.000  C
  C68      1.0000 0.34921  0.25002  0.28803  Biso   1.000  C
  C69      1.0000 0.33129  0.01958  0.89275  Biso   1.000  C
  H68      1.0000 0.26829  0.98742  0.74994  Biso   1.000  H
  C70      1.0000 0.33129  0.48039  0.89275  Biso   1.000  C
  H69      1.0000 0.26829  0.51262  0.74994  Biso   1.000  H
  N3       1.0000 0.34420  0.14254  0.01742  Biso   1.000  N
  C71      1.0000 0.31548  0.11069  0.16754  Biso   1.000  C
  N4       1.0000 0.34420  0.35750  0.01742  Biso   1.000  N
  C72      1.0000 0.31548  0.38934  0.16754  Biso   1.000  C
  H70      1.0000 0.32341  0.25002  0.30264  Biso   1.000  H
  H71      1.0000 0.36021  0.19968  0.31894  Biso   1.000  H
  H72      1.0000 0.36021  0.30029  0.31894  Biso   1.000  H
  C73      1.0000 0.32705  0.06652  0.99992  Biso   1.000  C
  C74      1.0000 0.37211  0.01438  0.86209  Biso   1.000  C
  C75      1.0000 0.31540  0.92815  0.90455  Biso   1.000  C
  C76      1.0000 0.32705  0.43352  0.99992  Biso   1.000  C
  C77      1.0000 0.31540  0.57194  0.90455  Biso   1.000  C
  C78      1.0000 0.37211  0.48559  0.86209  Biso   1.000  C
  H73      1.0000 0.35750  0.17034  0.96982  Biso   1.000  H
  C79      1.0000 0.30905  0.04469  0.09103  Biso   1.000  C
  H74      1.0000 0.30590  0.11287  0.23834  Biso   1.000  H
  H75      1.0000 0.35750  0.32970  0.96982  Biso   1.000  H
  C80      1.0000 0.30905  0.45535  0.09103  Biso   1.000  C
  H76      1.0000 0.30590  0.38709  0.23834  Biso   1.000  H
  H77      1.0000 0.38190  0.07249  0.85350  Biso   1.000  H
  H78      1.0000 0.37471  0.98286  0.79449  Biso   1.000  H
  H79      1.0000 0.38559  0.98446  0.91892  Biso   1.000  H
  H80      1.0000 0.29020  0.93156  0.93112  Biso   1.000  H
  H81      1.0000 0.33039  0.89535  0.95553  Biso   1.000  H
  H82      1.0000 0.31570  0.89933  0.83463  Biso   1.000  H
  H83      1.0000 0.29020  0.56854  0.93112  Biso   1.000  H
  H84      1.0000 0.33039  0.60475  0.95553  Biso   1.000  H
  H85      1.0000 0.31570  0.60071  0.83463  Biso   1.000  H
  H86      1.0000 0.37471  0.51724  0.79449  Biso   1.000  H
  H87      1.0000 0.38559  0.51563  0.91892  Biso   1.000  H
  H88      1.0000 0.38190  0.42754  0.85350  Biso   1.000  H
  H89      1.0000 0.29469  0.99454  0.10179  Biso   1.000  H
  H90      1.0000 0.29469  0.50549  0.10179  Biso   1.000  H
  C81      1.0000 0.48000  0.57663  0.40644  Biso   1.000  C
  C82      1.0000 0.44389  0.58292  0.43373  Biso   1.000  C
  C83      1.0000 0.49111  0.57072  0.30023  Biso   1.000  C
  H91      1.0000 0.49800  0.57624  0.46159  Biso   1.000  H
  C84      1.0000 0.41831  0.58433  0.35169  Biso   1.000  C
  C85      1.0000 0.43289  0.58883  0.55029  Biso   1.000  C
  C86      1.0000 0.46449  0.57380  0.21988  Biso   1.000  C
  H92      1.0000 0.51620  0.56462  0.28241  Biso   1.000  H
  O10      1.0000 0.38185  0.59210  0.38292  Biso   1.000  O
  C87      1.0000 0.42789  0.58042  0.24380  Biso   1.000  C
  C88      1.0000 0.41530  0.67262  0.58353  Biso   1.000  C
  H93      1.0000 0.41560  0.54164  0.56603  Biso   1.000  H
  H94      1.0000 0.45489  0.57965  0.59509  Biso   1.000  H
  H95      1.0000 0.47180  0.57130  0.14683  Biso   1.000  H
  C89      1.0000 0.36021  0.51422  0.37385  Biso   1.000  C
  K2       1.0000 0.34883  0.75005  0.41382  Biso   1.000  K
  C90      1.0000 0.39960  0.58883  0.15582  Biso   1.000  C
  C91      1.0000 0.38059  0.67384  0.63113  Biso   1.000  C
  C92      1.0000 0.43311  0.75005  0.56779  Biso   1.000  C
  C93      1.0000 0.32869  0.52000  0.44730  Biso   1.000  C
  H96      1.0000 0.35159  0.50722  0.29903  Biso   1.000  H
  H97      1.0000 0.37539  0.46369  0.39263  Biso   1.000  H
  O11      1.0000 0.30809  0.59249  0.41944  Biso   1.000  O
  O12      1.0000 0.38185  0.90793  0.38292  Biso   1.000  O
  O13      1.0000 0.30809  0.90754  0.41944  Biso   1.000  O
  O14      1.0000 0.27442  0.75005  0.47451  Biso   1.000  O
  C94      1.0000 0.32259  0.75005  0.18022  Biso   1.000  C
  C95      1.0000 0.36420  0.75005  0.65554  Biso   1.000  C
  C96      1.0000 0.37859  0.67172  0.15501  Biso   1.000  C
  H98      1.0000 0.38190  0.54093  0.16288  Biso   1.000  H
  H99      1.0000 0.41199  0.58234  0.08573  Biso   1.000  H
  H100     1.0000 0.36839  0.62132  0.64638  Biso   1.000  H
  C97      1.0000 0.41530  0.82742  0.58353  Biso   1.000  C
  O15      1.0000 0.46911  0.75005  0.53488  Biso   1.000  O
  H101     1.0000 0.33731  0.52501  0.52244  Biso   1.000  H
  H102     1.0000 0.31340  0.46774  0.44128  Biso   1.000  H
  C98      1.0000 0.27540  0.59602  0.48109  Biso   1.000  C
  C99      1.0000 0.41831  0.91570  0.35169  Biso   1.000  C
  C100     1.0000 0.36021  0.98581  0.37385  Biso   1.000  C
  C101     1.0000 0.32869  0.98003  0.44730  Biso   1.000  C
  C102     1.0000 0.27540  0.90401  0.48109  Biso   1.000  C
  C103     1.0000 0.25390  0.67589  0.44658  Biso   1.000  C
  C104     1.0000 0.25390  0.82414  0.44658  Biso   1.000  C
  C105     1.0000 0.34141  0.82645  0.17388  Biso   1.000  C
  C106     1.0000 0.34141  0.67364  0.17388  Biso   1.000  C
  H103     1.0000 0.29679  0.75005  0.18889  Biso   1.000  H
  C107     1.0000 0.38059  0.82620  0.63113  Biso   1.000  C
  H104     1.0000 0.34100  0.75005  0.69013  Biso   1.000  H
  C108     1.0000 0.39640  0.75005  0.13968  Biso   1.000  C
  C109     1.0000 0.43289  0.91120  0.55029  Biso   1.000  C
  C110     1.0000 0.49330  0.75005  0.62792  Biso   1.000  C
  H105     1.0000 0.26060  0.54382  0.46857  Biso   1.000  H
  H106     1.0000 0.28139  0.59942  0.55848  Biso   1.000  H
  C111     1.0000 0.42789  0.91961  0.24380  Biso   1.000  C
  C112     1.0000 0.44389  0.91711  0.43373  Biso   1.000  C
  H107     1.0000 0.35159  0.99281  0.29903  Biso   1.000  H
  H108     1.0000 0.37539  0.03628  0.39263  Biso   1.000  H
  H109     1.0000 0.33731  0.97502  0.52244  Biso   1.000  H
  H110     1.0000 0.31340  0.03230  0.44128  Biso   1.000  H
  H111     1.0000 0.26060  0.95621  0.46857  Biso   1.000  H
  H112     1.0000 0.28139  0.90061  0.55848  Biso   1.000  H
  H113     1.0000 0.22991  0.67711  0.48318  Biso   1.000  H
  H114     1.0000 0.24960  0.67461  0.36823  Biso   1.000  H
  H115     1.0000 0.22991  0.82292  0.48318  Biso   1.000  H
  H116     1.0000 0.24960  0.82543  0.36823  Biso   1.000  H
  C113     1.0000 0.37859  0.82831  0.15501  Biso   1.000  C
  H117     1.0000 0.32850  0.87891  0.18279  Biso   1.000  H
  H118     1.0000 0.32850  0.62112  0.18279  Biso   1.000  H
  H119     1.0000 0.36839  0.87872  0.64638  Biso   1.000  H
  O16      1.0000 0.43248  0.75005  0.10902  Biso   1.000  O
  H120     1.0000 0.41560  0.95846  0.56603  Biso   1.000  H
  H121     1.0000 0.45489  0.92045  0.59509  Biso   1.000  H
  C114     1.0000 0.53050  0.70343  0.58858  Biso   1.000  C
  C115     1.0000 0.53050  0.79660  0.58858  Biso   1.000  C
  H122     1.0000 0.48181  0.72173  0.68748  Biso   1.000  H
  H123     1.0000 0.48181  0.77830  0.68748  Biso   1.000  H
  H124     1.0000 0.49959  0.80751  0.64863  Biso   1.000  H
  H125     1.0000 0.49959  0.69252  0.64863  Biso   1.000  H
  C116     1.0000 0.39960  0.91120  0.15582  Biso   1.000  C
  C117     1.0000 0.46449  0.92623  0.21988  Biso   1.000  C
  C118     1.0000 0.48000  0.92340  0.40644  Biso   1.000  C
  C119     1.0000 0.43500  0.75005  0.99583  Biso   1.000  C
  O17      1.0000 0.54580  0.75005  0.53464  Biso   1.000  O
  H126     1.0000 0.54621  0.68681  0.64703  Biso   1.000  H
  H127     1.0000 0.52421  0.65393  0.54652  Biso   1.000  H
  H128     1.0000 0.54621  0.81323  0.64703  Biso   1.000  H
  H129     1.0000 0.52421  0.84610  0.54652  Biso   1.000  H
  H130     1.0000 0.38190  0.95910  0.16288  Biso   1.000  H
  H131     1.0000 0.41199  0.91775  0.08573  Biso   1.000  H
  C120     1.0000 0.49111  0.92931  0.30023  Biso   1.000  C
  H132     1.0000 0.47180  0.92873  0.14683  Biso   1.000  H
  H133     1.0000 0.49800  0.92385  0.46159  Biso   1.000  H
  C121     1.0000 0.47251  0.80764  0.95400  Biso   1.000  C
  C122     1.0000 0.47251  0.69239  0.95400  Biso   1.000  C
  H134     1.0000 0.41399  0.77856  0.96612  Biso   1.000  H
  H135     1.0000 0.41399  0.72154  0.96612  Biso   1.000  H
  H136     1.0000 0.43659  0.69291  0.96709  Biso   1.000  H
  H137     1.0000 0.43659  0.80713  0.96709  Biso   1.000  H
  C123     1.0000 0.58051  0.75005  0.49538  Biso   1.000  C
  H138     1.0000 0.51620  0.93541  0.28241  Biso   1.000  H
  H139     1.0000 0.48361  0.83493  0.01597  Biso   1.000  H
  O18      1.0000 0.49100  0.75005  0.92414  Biso   1.000  O
  H140     1.0000 0.46720  0.85053  0.89982  Biso   1.000  H
  H141     1.0000 0.48361  0.66510  0.01597  Biso   1.000  H
  H142     1.0000 0.46720  0.64950  0.89982  Biso   1.000  H
  C124     1.0000 0.59802  0.82575  0.47491  Biso   1.000  C
  C125     1.0000 0.59802  0.67435  0.47491  Biso   1.000  C
  C126     1.0000 0.52771  0.75005  0.89468  Biso   1.000  C
  H143     1.0000 0.58601  0.87884  0.48792  Biso   1.000  H
  C127     1.0000 0.63342  0.82485  0.43534  Biso   1.000  C
  H144     1.0000 0.58601  0.62125  0.48792  Biso   1.000  H
  C128     1.0000 0.63342  0.67525  0.43534  Biso   1.000  C
  C129     1.0000 0.54642  0.82594  0.88248  Biso   1.000  C
  C130     1.0000 0.54642  0.67409  0.88248  Biso   1.000  C
  H145     1.0000 0.64510  0.87820  0.42137  Biso   1.000  H
  C131     1.0000 0.65249  0.75005  0.41487  Biso   1.000  C
  H146     1.0000 0.64510  0.62183  0.42137  Biso   1.000  H
  C132     1.0000 0.58338  0.82523  0.86233  Biso   1.000  C
  H147     1.0000 0.53381  0.87904  0.88801  Biso   1.000  H
  C133     1.0000 0.58338  0.67480  0.86233  Biso   1.000  C
  H148     1.0000 0.53381  0.62100  0.88801  Biso   1.000  H
  C134     1.0000 0.69259  0.75005  0.37890  Biso   1.000  C
  C135     1.0000 0.60300  0.75005  0.85317  Biso   1.000  C
  H149     1.0000 0.59591  0.87833  0.85430  Biso   1.000  H
  H150     1.0000 0.59591  0.62170  0.85430  Biso   1.000  H
  C136     1.0000 0.70091  0.67005  0.31693  Biso   1.000  C
  C137     1.0000 0.70091  0.83005  0.31693  Biso   1.000  C
  C138     1.0000 0.71699  0.75005  0.48021  Biso   1.000  C
  C139     1.0000 0.64439  0.75005  0.83375  Biso   1.000  C
  N5       1.0000 0.67932  0.64462  0.23232  Biso   1.000  N
  C140     1.0000 0.72528  0.60514  0.33387  Biso   1.000  C
  N6       1.0000 0.67932  0.85541  0.23232  Biso   1.000  N
  C141     1.0000 0.72528  0.89496  0.33387  Biso   1.000  C
  H151     1.0000 0.74230  0.75005  0.45918  Biso   1.000  H
  H152     1.0000 0.71199  0.69971  0.52220  Biso   1.000  H
  H153     1.0000 0.71199  0.80032  0.52220  Biso   1.000  H
  C142     1.0000 0.66236  0.66973  0.87822  Biso   1.000  C
  C143     1.0000 0.66236  0.83030  0.87822  Biso   1.000  C
  C144     1.0000 0.65079  0.75005  0.71205  Biso   1.000  C
  H154     1.0000 0.66141  0.67531  0.20503  Biso   1.000  H
  C145     1.0000 0.68958  0.56449  0.19587  Biso   1.000  C
  H155     1.0000 0.74369  0.60404  0.38773  Biso   1.000  H
  C146     1.0000 0.71839  0.53965  0.25729  Biso   1.000  C
  H156     1.0000 0.66141  0.82472  0.20503  Biso   1.000  H
  C147     1.0000 0.68958  0.93554  0.19587  Biso   1.000  C
  H157     1.0000 0.74369  0.89605  0.38773  Biso   1.000  H
  C148     1.0000 0.71839  0.96045  0.25729  Biso   1.000  C
  N7       1.0000 0.65580  0.64250  0.98258  Biso   1.000  N
  C149     1.0000 0.68452  0.61072  0.83254  Biso   1.000  C
  N8       1.0000 0.65580  0.85753  0.98258  Biso   1.000  N
  C150     1.0000 0.68452  0.88931  0.83254  Biso   1.000  C
  H158     1.0000 0.67659  0.75005  0.69744  Biso   1.000  H
  H159     1.0000 0.63979  0.69971  0.68114  Biso   1.000  H
  H160     1.0000 0.63979  0.80032  0.68114  Biso   1.000  H
  C151     1.0000 0.66871  0.51961  0.10733  Biso   1.000  C
  H161     1.0000 0.73171  0.48738  0.25014  Biso   1.000  H
  C152     1.0000 0.66871  0.98042  0.10733  Biso   1.000  C
  H162     1.0000 0.73171  0.01258  0.25014  Biso   1.000  H
  H163     1.0000 0.64250  0.67030  0.03018  Biso   1.000  H
  C153     1.0000 0.67295  0.56655  0.00008  Biso   1.000  C
  C154     1.0000 0.69095  0.54472  0.90905  Biso   1.000  C
  H164     1.0000 0.69410  0.61291  0.76174  Biso   1.000  H
  H165     1.0000 0.64250  0.82973  0.03018  Biso   1.000  H
  C155     1.0000 0.67295  0.93355  0.00008  Biso   1.000  C
  C156     1.0000 0.69095  0.95531  0.90905  Biso   1.000  C
  H166     1.0000 0.69410  0.88713  0.76174  Biso   1.000  H
  C157     1.0000 0.68460  0.42812  0.09553  Biso   1.000  C
  C158     1.0000 0.62789  0.51441  0.13791  Biso   1.000  C
  C159     1.0000 0.62789  0.98562  0.13791  Biso   1.000  C
  C160     1.0000 0.68460  0.07191  0.09553  Biso   1.000  C
  H167     1.0000 0.70531  0.49451  0.89821  Biso   1.000  H
  H168     1.0000 0.70531  0.00552  0.89821  Biso   1.000  H
  H169     1.0000 0.70980  0.43152  0.06888  Biso   1.000  H
  H170     1.0000 0.66961  0.39531  0.04447  Biso   1.000  H
  H171     1.0000 0.68430  0.39929  0.16537  Biso   1.000  H
  H172     1.0000 0.62529  0.48283  0.20551  Biso   1.000  H
  H173     1.0000 0.61441  0.48443  0.08108  Biso   1.000  H
  H174     1.0000 0.61810  0.57252  0.14650  Biso   1.000  H
  H175     1.0000 0.61810  0.92751  0.14650  Biso   1.000  H
  H176     1.0000 0.62529  0.01721  0.20551  Biso   1.000  H
  H177     1.0000 0.61441  0.01560  0.08108  Biso   1.000  H
  H178     1.0000 0.70980  0.06851  0.06888  Biso   1.000  H
  H179     1.0000 0.66961  0.10472  0.04447  Biso   1.000  H
  H180     1.0000 0.68430  0.10067  0.16537  Biso   1.000  H
  C161     1.0000 0.78161  0.46042  0.75733  Biso   1.000  C
  C162     1.0000 0.77472  0.39493  0.83391  Biso   1.000  C
  C163     1.0000 0.81042  0.43551  0.69591  Biso   1.000  C
  H181     1.0000 0.76829  0.51262  0.75010  Biso   1.000  H
  C164     1.0000 0.79909  0.33002  0.81689  Biso   1.000  C
  H182     1.0000 0.75631  0.39602  0.88769  Biso   1.000  H
  N9       1.0000 0.82068  0.35544  0.73228  Biso   1.000  N
  C165     1.0000 0.83129  0.48039  0.60729  Biso   1.000  C
  C166     1.0000 0.80741  0.25002  0.87894  Biso   1.000  C
  H183     1.0000 0.83859  0.32469  0.70499  Biso   1.000  H
  C167     1.0000 0.82705  0.43352  0.50012  Biso   1.000  C
  C168     1.0000 0.81540  0.57194  0.59549  Biso   1.000  C
  C169     1.0000 0.87211  0.48559  0.63787  Biso   1.000  C
  C170     1.0000 0.79909  0.17002  0.81689  Biso   1.000  C
  C171     1.0000 0.78301  0.25002  0.98025  Biso   1.000  C
  C172     1.0000 0.84751  0.25002  0.91491  Biso   1.000  C
  N10      1.0000 0.84420  0.35750  0.48262  Biso   1.000  N
  C173     1.0000 0.80905  0.45535  0.40901  Biso   1.000  C
  H184     1.0000 0.79020  0.56854  0.56892  Biso   1.000  H
  H185     1.0000 0.83039  0.60475  0.54451  Biso   1.000  H
  H186     1.0000 0.81570  0.60071  0.66541  Biso   1.000  H
  H187     1.0000 0.87471  0.51724  0.70555  Biso   1.000  H
  H188     1.0000 0.88559  0.51563  0.58112  Biso   1.000  H
  H189     1.0000 0.88190  0.42754  0.64654  Biso   1.000  H
  C174     1.0000 0.77472  0.10510  0.83391  Biso   1.000  C
  N11      1.0000 0.82068  0.14459  0.73228  Biso   1.000  N
  H190     1.0000 0.75770  0.25002  0.95922  Biso   1.000  H
  H191     1.0000 0.78801  0.30029  0.02224  Biso   1.000  H
  H192     1.0000 0.78801  0.19968  0.02224  Biso   1.000  H
  C175     1.0000 0.86658  0.17522  0.93530  Biso   1.000  C
  C176     1.0000 0.86658  0.32482  0.93530  Biso   1.000  C
  C177     1.0000 0.83764  0.33034  0.37818  Biso   1.000  C
  H193     1.0000 0.85750  0.32970  0.53022  Biso   1.000  H
  H194     1.0000 0.79469  0.50549  0.39817  Biso   1.000  H
  C178     1.0000 0.81548  0.38934  0.33250  Biso   1.000  C
  H195     1.0000 0.75631  0.10401  0.88769  Biso   1.000  H
  C179     1.0000 0.78161  0.03961  0.75733  Biso   1.000  C
  C180     1.0000 0.81042  0.06453  0.69591  Biso   1.000  C
  H196     1.0000 0.83859  0.17528  0.70499  Biso   1.000  H
  C181     1.0000 0.90198  0.17432  0.97495  Biso   1.000  C
  H197     1.0000 0.85490  0.12180  0.92141  Biso   1.000  H
  C182     1.0000 0.90198  0.32571  0.97495  Biso   1.000  C
  H198     1.0000 0.85490  0.37823  0.92141  Biso   1.000  H
  C183     1.0000 0.85561  0.25002  0.33371  Biso   1.000  C
  H199     1.0000 0.80590  0.38709  0.26170  Biso   1.000  H
  H200     1.0000 0.76829  0.98742  0.75010  Biso   1.000  H
  C184     1.0000 0.83129  0.01958  0.60729  Biso   1.000  C
  C185     1.0000 0.91949  0.25002  0.99542  Biso   1.000  C
  H201     1.0000 0.91399  0.12122  0.98788  Biso   1.000  H
  H202     1.0000 0.91399  0.37881  0.98788  Biso   1.000  H
  C186     1.0000 0.83764  0.16970  0.37818  Biso   1.000  C
  C187     1.0000 0.84921  0.25002  0.21201  Biso   1.000  C
  C188     1.0000 0.89700  0.25002  0.35322  Biso   1.000  C
  C189     1.0000 0.82705  0.06652  0.50012  Biso   1.000  C
  C190     1.0000 0.87211  0.01438  0.63787  Biso   1.000  C
  C191     1.0000 0.81540  0.92815  0.59549  Biso   1.000  C
  O19      1.0000 0.95420  0.25002  0.03460  Biso   1.000  O
  N12      1.0000 0.84420  0.14254  0.48262  Biso   1.000  N
  C192     1.0000 0.81548  0.11069  0.33250  Biso   1.000  C
  H203     1.0000 0.82341  0.25002  0.19740  Biso   1.000  H
  H204     1.0000 0.86021  0.30029  0.18110  Biso   1.000  H
  H205     1.0000 0.86021  0.19968  0.18110  Biso   1.000  H
  C193     1.0000 0.91662  0.17483  0.36229  Biso   1.000  C
  C194     1.0000 0.91662  0.32520  0.36229  Biso   1.000  C
  C195     1.0000 0.80905  0.04469  0.40901  Biso   1.000  C
  H206     1.0000 0.88190  0.07249  0.64654  Biso   1.000  H
  H207     1.0000 0.87471  0.98286  0.70555  Biso   1.000  H
  H208     1.0000 0.88559  0.98446  0.58112  Biso   1.000  H
  H209     1.0000 0.79020  0.93156  0.56892  Biso   1.000  H
  H210     1.0000 0.83039  0.89535  0.54451  Biso   1.000  H
  H211     1.0000 0.81570  0.89933  0.66541  Biso   1.000  H
  C196     1.0000 0.96950  0.29663  0.08862  Biso   1.000  C
  C197     1.0000 0.96950  0.20340  0.08862  Biso   1.000  C
  H212     1.0000 0.85750  0.17034  0.53022  Biso   1.000  H
  H213     1.0000 0.80590  0.11287  0.26170  Biso   1.000  H
  H214     1.0000 0.90409  0.12173  0.35434  Biso   1.000  H
  C198     1.0000 0.95358  0.17413  0.38252  Biso   1.000  C
  H215     1.0000 0.90409  0.37830  0.35434  Biso   1.000  H
  C199     1.0000 0.95358  0.32591  0.38252  Biso   1.000  C
  H216     1.0000 0.79469  0.99454  0.39817  Biso   1.000  H
  H217     1.0000 0.95379  0.31319  0.14699  Biso   1.000  H
  H218     1.0000 0.97579  0.34613  0.04648  Biso   1.000  H
  C200     1.0000 0.00670  0.25002  0.12788  Biso   1.000  C
  H219     1.0000 0.95379  0.18684  0.14699  Biso   1.000  H
  H220     1.0000 0.97579  0.15390  0.04648  Biso   1.000  H
  H221     1.0000 0.96619  0.12103  0.38797  Biso   1.000  H
  C201     1.0000 0.97229  0.25002  0.39472  Biso   1.000  C
  H222     1.0000 0.96619  0.37900  0.38797  Biso   1.000  H
  O20      1.0000 0.03089  0.25002  0.03492  Biso   1.000  O
  H223     1.0000 0.01819  0.27833  0.18753  Biso   1.000  H
  H224     1.0000 0.01819  0.22170  0.18753  Biso   1.000  H
  H225     1.0000 0.00041  0.19249  0.14859  Biso   1.000  H
  H226     1.0000 0.00041  0.30748  0.14859  Biso   1.000  H
  O21      1.0000 0.00900  0.25002  0.42410  Biso   1.000  O
  C202     1.0000 0.06689  0.25002  0.06783  Biso   1.000  C
  C203     1.0000 0.02749  0.19242  0.45404  Biso   1.000  C
  C204     1.0000 0.02749  0.30761  0.45404  Biso   1.000  C
  C205     1.0000 0.08470  0.17258  0.08349  Biso   1.000  C
  C206     1.0000 0.08470  0.32738  0.08349  Biso   1.000  C
  H227     1.0000 0.03280  0.14953  0.39978  Biso   1.000  H
  H228     1.0000 0.01639  0.16514  0.51602  Biso   1.000  H
  C207     1.0000 0.06500  0.25002  0.49579  Biso   1.000  C
  H229     1.0000 0.03280  0.35050  0.39978  Biso   1.000  H
  H230     1.0000 0.01639  0.33490  0.51602  Biso   1.000  H
  C208     1.0000 0.06711  0.08880  0.05033  Biso   1.000  C
  C209     1.0000 0.11941  0.17380  0.13109  Biso   1.000  C
  C210     1.0000 0.06711  0.41124  0.05033  Biso   1.000  C
  C211     1.0000 0.11941  0.32623  0.13109  Biso   1.000  C
  O22      1.0000 0.06752  0.25002  0.60897  Biso   1.000  O
  H231     1.0000 0.08601  0.22151  0.46608  Biso   1.000  H
  H232     1.0000 0.08601  0.27852  0.46608  Biso   1.000  H
  H233     1.0000 0.06341  0.30709  0.46713  Biso   1.000  H
  H234     1.0000 0.06341  0.19294  0.46713  Biso   1.000  H
  C212     1.0000 0.05611  0.08289  0.93369  Biso   1.000  C
  H235     1.0000 0.08440  0.04161  0.06599  Biso   1.000  H
  H236     1.0000 0.04511  0.07961  0.09513  Biso   1.000  H
  H237     1.0000 0.13161  0.12128  0.14642  Biso   1.000  H
  C213     1.0000 0.13580  0.25002  0.15549  Biso   1.000  C
  C214     1.0000 0.05611  0.41714  0.93369  Biso   1.000  C
  H238     1.0000 0.08440  0.45843  0.06599  Biso   1.000  H
  H239     1.0000 0.04511  0.42042  0.09513  Biso   1.000  H
  H240     1.0000 0.13161  0.37868  0.14642  Biso   1.000  H
  C215     1.0000 0.10360  0.25002  0.63972  Biso   1.000  C
  C216     1.0000 0.08169  0.08430  0.85173  Biso   1.000  C
  C217     1.0000 0.02000  0.07660  0.90640  Biso   1.000  C
  K3       1.0000 0.15117  0.25002  0.91386  Biso   1.000  K
  H241     1.0000 0.15900  0.25002  0.19009  Biso   1.000  H
  C218     1.0000 0.08169  0.41573  0.85173  Biso   1.000  C
  C219     1.0000 0.02000  0.42343  0.90640  Biso   1.000  C
  C220     1.0000 0.12141  0.17169  0.65497  Biso   1.000  C
  C221     1.0000 0.12141  0.32828  0.65497  Biso   1.000  C
  O23      1.0000 0.11815  0.09213  0.88288  Biso   1.000  O
  C222     1.0000 0.07211  0.08039  0.74384  Biso   1.000  C
  H242     1.0000 0.00200  0.07621  0.96163  Biso   1.000  H
  C223     1.0000 0.00889  0.07069  0.80019  Biso   1.000  C
  O24      1.0000 0.11815  0.40790  0.88288  Biso   1.000  O
  O25      1.0000 0.19191  0.09252  0.91940  Biso   1.000  O
  O26      1.0000 0.19191  0.40751  0.91940  Biso   1.000  O
  O27      1.0000 0.22558  0.25002  0.97455  Biso   1.000  O
  C224     1.0000 0.17741  0.25002  0.68018  Biso   1.000  C
  C225     1.0000 0.07211  0.41958  0.74384  Biso   1.000  C
  H243     1.0000 0.00200  0.42382  0.96163  Biso   1.000  H
  C226     1.0000 0.00889  0.42934  0.80019  Biso   1.000  C
  C227     1.0000 0.10040  0.08880  0.65578  Biso   1.000  C
  C228     1.0000 0.15859  0.17361  0.67392  Biso   1.000  C
  C229     1.0000 0.15859  0.32642  0.67392  Biso   1.000  C
  C230     1.0000 0.10040  0.41124  0.65578  Biso   1.000  C
  C231     1.0000 0.13979  0.01419  0.87381  Biso   1.000  C
  C232     1.0000 0.03551  0.07377  0.71992  Biso   1.000  C
  H244     1.0000 0.98380  0.06459  0.78245  Biso   1.000  H
  C233     1.0000 0.13979  0.48584  0.87381  Biso   1.000  C
  C234     1.0000 0.17131  0.02003  0.94734  Biso   1.000  C
  C235     1.0000 0.22460  0.09599  0.98114  Biso   1.000  C
  C236     1.0000 0.17131  0.48000  0.94734  Biso   1.000  C
  C237     1.0000 0.22460  0.40404  0.98114  Biso   1.000  C
  C238     1.0000 0.24610  0.17592  0.94662  Biso   1.000  C
  C239     1.0000 0.24610  0.32411  0.94662  Biso   1.000  C
  H245     1.0000 0.20321  0.25002  0.68893  Biso   1.000  H
  C240     1.0000 0.03551  0.42620  0.71992  Biso   1.000  C
  H246     1.0000 0.98380  0.43544  0.78245  Biso   1.000  H
  H247     1.0000 0.11810  0.04090  0.66292  Biso   1.000  H
  H248     1.0000 0.08801  0.08231  0.58569  Biso   1.000  H
  H249     1.0000 0.17150  0.12109  0.68283  Biso   1.000  H
  H250     1.0000 0.17150  0.37894  0.68283  Biso   1.000  H
  H251     1.0000 0.11810  0.45913  0.66292  Biso   1.000  H
  H252     1.0000 0.08801  0.41772  0.58569  Biso   1.000  H
  H253     1.0000 0.12461  0.96372  0.89259  Biso   1.000  H
  H254     1.0000 0.14841  0.00719  0.79899  Biso   1.000  H
  H255     1.0000 0.02820  0.07133  0.64678  Biso   1.000  H
  H256     1.0000 0.14841  0.49284  0.79899  Biso   1.000  H
  H257     1.0000 0.12461  0.53631  0.89259  Biso   1.000  H
  H258     1.0000 0.18660  0.96770  0.94132  Biso   1.000  H
  H259     1.0000 0.16269  0.02498  0.02240  Biso   1.000  H
  H260     1.0000 0.23940  0.04379  0.96861  Biso   1.000  H
  H261     1.0000 0.21861  0.09939  0.05852  Biso   1.000  H
  H262     1.0000 0.18660  0.53233  0.94132  Biso   1.000  H
  H263     1.0000 0.16269  0.47499  0.02240  Biso   1.000  H
  H264     1.0000 0.23940  0.45624  0.96861  Biso   1.000  H
  H265     1.0000 0.21861  0.40064  0.05852  Biso   1.000  H
  H266     1.0000 0.27009  0.17708  0.98322  Biso   1.000  H
  H267     1.0000 0.25040  0.17457  0.86819  Biso   1.000  H
  H268     1.0000 0.27009  0.32289  0.98322  Biso   1.000  H
  H269     1.0000 0.25040  0.32539  0.86819  Biso   1.000  H
  H270     1.0000 0.02820  0.42870  0.64678  Biso   1.000  H
  C241     1.0000 0.21839  0.53965  0.24267  Biso   1.000  C
  C242     1.0000 0.18958  0.56449  0.30409  Biso   1.000  C
  C243     1.0000 0.22528  0.60514  0.16609  Biso   1.000  C
  H271     1.0000 0.23171  0.48738  0.24990  Biso   1.000  H
  C244     1.0000 0.16871  0.51961  0.39271  Biso   1.000  C
  N13      1.0000 0.17932  0.64462  0.26772  Biso   1.000  N
  C245     1.0000 0.20091  0.67005  0.18311  Biso   1.000  C
  H272     1.0000 0.24369  0.60404  0.11231  Biso   1.000  H
  C246     1.0000 0.18460  0.42812  0.40451  Biso   1.000  C
  C247     1.0000 0.17295  0.56655  0.49988  Biso   1.000  C
  C248     1.0000 0.12789  0.51441  0.36213  Biso   1.000  C
  H273     1.0000 0.16141  0.67531  0.29501  Biso   1.000  H
  C249     1.0000 0.19259  0.75005  0.12114  Biso   1.000  C
  H274     1.0000 0.20980  0.43152  0.43108  Biso   1.000  H
  H275     1.0000 0.16961  0.39531  0.45549  Biso   1.000  H
  H276     1.0000 0.18430  0.39929  0.33459  Biso   1.000  H
  N14      1.0000 0.15580  0.64250  0.51738  Biso   1.000  N
  C250     1.0000 0.19095  0.54472  0.59099  Biso   1.000  C
  H277     1.0000 0.12529  0.48283  0.29453  Biso   1.000  H
  H278     1.0000 0.11441  0.48443  0.41888  Biso   1.000  H
  H279     1.0000 0.11810  0.57252  0.35354  Biso   1.000  H
  C251     1.0000 0.20091  0.83005  0.18311  Biso   1.000  C
  C252     1.0000 0.21699  0.75005  0.01983  Biso   1.000  C
  C253     1.0000 0.15249  0.75005  0.08509  Biso   1.000  C
  H280     1.0000 0.14250  0.67030  0.46978  Biso   1.000  H
  C254     1.0000 0.16236  0.66973  0.62182  Biso   1.000  C
  H281     1.0000 0.20531  0.49451  0.60183  Biso   1.000  H
  C255     1.0000 0.18452  0.61072  0.66750  Biso   1.000  C
  N15      1.0000 0.17932  0.85541  0.26772  Biso   1.000  N
  C256     1.0000 0.22528  0.89496  0.16609  Biso   1.000  C
  H282     1.0000 0.24230  0.75005  0.04078  Biso   1.000  H
  H283     1.0000 0.21199  0.80032  0.97784  Biso   1.000  H
  H284     1.0000 0.21199  0.69971  0.97784  Biso   1.000  H
  C257     1.0000 0.13342  0.67525  0.06470  Biso   1.000  C
  C258     1.0000 0.13342  0.82485  0.06470  Biso   1.000  C
  C259     1.0000 0.14439  0.75005  0.66629  Biso   1.000  C
  H285     1.0000 0.19410  0.61291  0.73830  Biso   1.000  H
  H286     1.0000 0.16141  0.82472  0.29501  Biso   1.000  H
  C260     1.0000 0.18958  0.93554  0.30409  Biso   1.000  C
  H287     1.0000 0.24369  0.89605  0.11231  Biso   1.000  H
  C261     1.0000 0.21839  0.96045  0.24267  Biso   1.000  C
  C262     1.0000 0.09802  0.67435  0.02513  Biso   1.000  C
  H288     1.0000 0.14510  0.62183  0.07859  Biso   1.000  H
  C263     1.0000 0.09802  0.82575  0.02513  Biso   1.000  C
  H289     1.0000 0.14510  0.87820  0.07859  Biso   1.000  H
  C264     1.0000 0.16236  0.83030  0.62182  Biso   1.000  C
  C265     1.0000 0.15079  0.75005  0.78799  Biso   1.000  C
  C266     1.0000 0.10300  0.75005  0.64678  Biso   1.000  C
  C267     1.0000 0.16871  0.98042  0.39271  Biso   1.000  C
  H290     1.0000 0.23171  0.01258  0.24990  Biso   1.000  H
  C268     1.0000 0.08051  0.75005  0.00458  Biso   1.000  C
  H291     1.0000 0.08601  0.62125  0.01212  Biso   1.000  H
  H292     1.0000 0.08601  0.87884  0.01212  Biso   1.000  H
  N16      1.0000 0.15580  0.85753  0.51738  Biso   1.000  N
  C269     1.0000 0.18452  0.88931  0.66750  Biso   1.000  C
  H293     1.0000 0.17659  0.75005  0.80260  Biso   1.000  H
  H294     1.0000 0.13979  0.80032  0.81890  Biso   1.000  H
  H295     1.0000 0.13979  0.69971  0.81890  Biso   1.000  H
  C270     1.0000 0.08338  0.67480  0.63771  Biso   1.000  C
  C271     1.0000 0.08338  0.82523  0.63771  Biso   1.000  C
  C272     1.0000 0.17295  0.93355  0.49988  Biso   1.000  C
  C273     1.0000 0.12789  0.98562  0.36213  Biso   1.000  C
  C274     1.0000 0.18460  0.07191  0.40451  Biso   1.000  C
  O28      1.0000 0.04580  0.75005  0.96540  Biso   1.000  O
  H296     1.0000 0.14250  0.82973  0.46978  Biso   1.000  H
  C275     1.0000 0.19095  0.95531  0.59099  Biso   1.000  C
  H297     1.0000 0.19410  0.88713  0.73830  Biso   1.000  H
  H298     1.0000 0.09591  0.62170  0.64574  Biso   1.000  H
  C276     1.0000 0.04642  0.67409  0.61748  Biso   1.000  C
  H299     1.0000 0.09591  0.87833  0.64574  Biso   1.000  H
  C277     1.0000 0.04642  0.82594  0.61748  Biso   1.000  C
  H300     1.0000 0.11810  0.92751  0.35354  Biso   1.000  H
  H301     1.0000 0.12529  0.01721  0.29453  Biso   1.000  H
  H302     1.0000 0.11441  0.01560  0.41888  Biso   1.000  H
  H303     1.0000 0.20980  0.06851  0.43108  Biso   1.000  H
  H304     1.0000 0.16961  0.10472  0.45549  Biso   1.000  H
  H305     1.0000 0.18430  0.10067  0.33459  Biso   1.000  H
  C278     1.0000 0.03050  0.79660  0.91138  Biso   1.000  C
  C279     1.0000 0.03050  0.70343  0.91138  Biso   1.000  C
  H306     1.0000 0.20531  0.00552  0.60183  Biso   1.000  H
  H307     1.0000 0.03381  0.62100  0.61203  Biso   1.000  H
  C280     1.0000 0.02771  0.75005  0.60528  Biso   1.000  C
  H308     1.0000 0.03381  0.87904  0.61203  Biso   1.000  H
  C281     1.0000 0.99330  0.75005  0.87212  Biso   1.000  C
  H309     1.0000 0.04621  0.81323  0.85301  Biso   1.000  H
  H310     1.0000 0.02421  0.84610  0.95352  Biso   1.000  H
  H311     1.0000 0.04621  0.68681  0.85301  Biso   1.000  H
  H312     1.0000 0.02421  0.65393  0.95352  Biso   1.000  H
  O29      1.0000 0.99100  0.75005  0.57590  Biso   1.000  O
  O30      1.0000 0.96911  0.75005  0.96508  Biso   1.000  O
  H313     1.0000 0.98181  0.77830  0.81247  Biso   1.000  H
  H314     1.0000 0.98181  0.72173  0.81247  Biso   1.000  H
  H315     1.0000 0.99959  0.69252  0.85141  Biso   1.000  H
  H316     1.0000 0.99959  0.80751  0.85141  Biso   1.000  H
  C282     1.0000 0.97251  0.69239  0.54604  Biso   1.000  C
  C283     1.0000 0.97251  0.80764  0.54604  Biso   1.000  C
  C284     1.0000 0.93311  0.75005  0.93225  Biso   1.000  C
  H317     1.0000 0.96720  0.64950  0.60022  Biso   1.000  H
  H318     1.0000 0.98361  0.66510  0.48398  Biso   1.000  H
  C285     1.0000 0.93500  0.75005  0.50421  Biso   1.000  C
  H319     1.0000 0.96720  0.85053  0.60022  Biso   1.000  H
  H320     1.0000 0.98361  0.83493  0.48398  Biso   1.000  H
  C286     1.0000 0.91530  0.67262  0.91651  Biso   1.000  C
  C287     1.0000 0.91530  0.82742  0.91651  Biso   1.000  C
  O31      1.0000 0.93248  0.75005  0.39103  Biso   1.000  O
  H321     1.0000 0.91399  0.72154  0.53392  Biso   1.000  H
  H322     1.0000 0.91399  0.77856  0.53392  Biso   1.000  H
  H323     1.0000 0.93659  0.80713  0.53287  Biso   1.000  H
  H324     1.0000 0.93659  0.69291  0.53287  Biso   1.000  H
  C288     1.0000 0.93289  0.58883  0.94975  Biso   1.000  C
  C289     1.0000 0.88059  0.67384  0.86891  Biso   1.000  C
  C290     1.0000 0.93289  0.91120  0.94975  Biso   1.000  C
  C291     1.0000 0.88059  0.82620  0.86891  Biso   1.000  C
  C292     1.0000 0.89640  0.75005  0.36028  Biso   1.000  C
  H325     1.0000 0.91560  0.54164  0.93401  Biso   1.000  H
  H326     1.0000 0.95489  0.57965  0.90495  Biso   1.000  H
  C293     1.0000 0.94389  0.58292  0.06631  Biso   1.000  C
  H327     1.0000 0.86839  0.62132  0.85358  Biso   1.000  H
  C294     1.0000 0.86420  0.75005  0.84451  Biso   1.000  C
  H328     1.0000 0.91560  0.95846  0.93401  Biso   1.000  H
  H329     1.0000 0.95489  0.92045  0.90495  Biso   1.000  H
  C295     1.0000 0.94389  0.91711  0.06631  Biso   1.000  C
  H330     1.0000 0.86839  0.87872  0.85358  Biso   1.000  H
  C296     1.0000 0.87859  0.67172  0.34503  Biso   1.000  C
  C297     1.0000 0.87859  0.82831  0.34503  Biso   1.000  C
  C298     1.0000 0.91831  0.58433  0.14827  Biso   1.000  C
  C299     1.0000 0.98000  0.57663  0.09360  Biso   1.000  C
  H331     1.0000 0.84100  0.75005  0.80991  Biso   1.000  H
  K4       1.0000 0.84883  0.75005  0.08614  Biso   1.000  K
  C300     1.0000 0.91831  0.91570  0.14827  Biso   1.000  C
  C301     1.0000 0.98000  0.92340  0.09360  Biso   1.000  C
  C302     1.0000 0.84141  0.67364  0.32608  Biso   1.000  C
  C303     1.0000 0.89960  0.58883  0.34422  Biso   1.000  C
  C304     1.0000 0.84141  0.82645  0.32608  Biso   1.000  C
  C305     1.0000 0.89960  0.91120  0.34422  Biso   1.000  C
  C306     1.0000 0.92789  0.58042  0.25624  Biso   1.000  C
  O32      1.0000 0.88185  0.59210  0.11712  Biso   1.000  O
  H332     1.0000 0.99800  0.57624  0.03837  Biso   1.000  H
  C307     1.0000 0.99111  0.57072  0.19981  Biso   1.000  C
  C308     1.0000 0.82259  0.75005  0.31982  Biso   1.000  C
  O33      1.0000 0.88185  0.90793  0.11712  Biso   1.000  O
  O34      1.0000 0.80809  0.59249  0.08060  Biso   1.000  O
  O35      1.0000 0.80809  0.90754  0.08060  Biso   1.000  O
  O36      1.0000 0.77442  0.75005  0.02553  Biso   1.000  O
  C309     1.0000 0.92789  0.91961  0.25624  Biso   1.000  C
  H333     1.0000 0.99800  0.92385  0.03837  Biso   1.000  H
  C310     1.0000 0.99111  0.92931  0.19981  Biso   1.000  C
  H334     1.0000 0.82850  0.62112  0.31717  Biso   1.000  H
  H335     1.0000 0.88190  0.54093  0.33708  Biso   1.000  H
  H336     1.0000 0.91199  0.58234  0.41431  Biso   1.000  H
  H337     1.0000 0.82850  0.87891  0.31717  Biso   1.000  H
  H338     1.0000 0.88190  0.95910  0.33708  Biso   1.000  H
  H339     1.0000 0.91199  0.91775  0.41431  Biso   1.000  H
  C311     1.0000 0.96449  0.57380  0.28008  Biso   1.000  C
  C312     1.0000 0.86021  0.51422  0.12619  Biso   1.000  C
  H340     1.0000 0.01620  0.56462  0.21763  Biso   1.000  H
  H341     1.0000 0.79679  0.75005  0.31107  Biso   1.000  H
  C313     1.0000 0.86021  0.98581  0.12619  Biso   1.000  C
  C314     1.0000 0.82869  0.52000  0.05266  Biso   1.000  C
  C315     1.0000 0.77540  0.59602  0.01886  Biso   1.000  C
  C316     1.0000 0.82869  0.98003  0.05266  Biso   1.000  C
  C317     1.0000 0.77540  0.90401  0.01886  Biso   1.000  C
  C318     1.0000 0.75390  0.67589  0.05338  Biso   1.000  C
  C319     1.0000 0.75390  0.82414  0.05338  Biso   1.000  C
  C320     1.0000 0.96449  0.92623  0.28008  Biso   1.000  C
  H342     1.0000 0.01620  0.93541  0.21763  Biso   1.000  H
  H343     1.0000 0.97180  0.57130  0.35322  Biso   1.000  H
  H344     1.0000 0.85159  0.50722  0.20101  Biso   1.000  H
  H345     1.0000 0.87539  0.46369  0.10741  Biso   1.000  H
  H346     1.0000 0.85159  0.99281  0.20101  Biso   1.000  H
  H347     1.0000 0.87539  0.03628  0.10741  Biso   1.000  H
  H348     1.0000 0.83731  0.52501  0.97760  Biso   1.000  H
  H349     1.0000 0.81340  0.46774  0.05868  Biso   1.000  H
  H350     1.0000 0.78139  0.59942  0.94148  Biso   1.000  H
  H351     1.0000 0.76060  0.54382  0.03139  Biso   1.000  H
  H352     1.0000 0.83731  0.97502  0.97760  Biso   1.000  H
  H353     1.0000 0.81340  0.03230  0.05868  Biso   1.000  H
  H354     1.0000 0.78139  0.90061  0.94148  Biso   1.000  H
  H355     1.0000 0.76060  0.95621  0.03139  Biso   1.000  H
  H356     1.0000 0.72991  0.67711  0.01678  Biso   1.000  H
  H357     1.0000 0.74960  0.67461  0.13181  Biso   1.000  H
  H358     1.0000 0.72991  0.82292  0.01678  Biso   1.000  H
  H359     1.0000 0.74960  0.82543  0.13181  Biso   1.000  H
  H360     1.0000 0.97180  0.92873  0.35322  Biso   1.000  H
  Ne1      1.0000 0.49038  0.25001  0.74219  Biso   1.000  Ne
  He1      1.0000 0.45009  0.09237  0.88936  Biso   1.000  He
  He2      1.0000 0.44771  0.38292  0.87708  Biso   1.000  He
  He3      1.0000 0.42478  0.51348  0.63958  Biso   1.000  He
  He4      1.0000 0.42550  0.11501  0.73384  Biso   1.000  He
  Ar1      1.0000 0.45808  0.24896  0.81606  Biso   1.000  Ar
  Ne2      1.0000 0.00962  0.75003  0.24218  Biso   1.000  Ne
  He5      1.0000 0.04844  0.91669  0.39412  Biso   1.000  He
  He6      1.0000 0.05009  0.59342  0.38879  Biso   1.000  He
  He7      1.0000 0.07493  0.88923  0.23150  Biso   1.000  He
  He8      1.0000 0.07466  0.61348  0.23299  Biso   1.000  He
  Ar2      1.0000 0.04302  0.75226  0.31600  Biso   1.000  Ar
  Ne3      1.0000 0.50962  0.75003  0.25783  Biso   1.000  Ne
  He9      1.0000 0.57520  0.48635  0.36058  Biso   1.000  He
  He10     1.0000 0.57711  0.92686  0.29477  Biso   1.000  He
  He11     1.0000 0.54997  0.59274  0.11083  Biso   1.000  He
  He12     1.0000 0.54852  0.91622  0.10611  Biso   1.000  He
  Ar3      1.0000 0.54303  0.74999  0.18552  Biso   1.000  Ar
  Ne4      1.0000 0.99038  0.25001  0.75783  Biso   1.000  Ne
  He13     1.0000 0.92460  0.51121  0.85890  Biso   1.000  He
  He14     1.0000 0.92558  0.11580  0.76576  Biso   1.000  He
  He15     1.0000 0.96561  0.51899  0.54800  Biso   1.000  He
  He16     1.0000 0.95010  0.09232  0.61065  Biso   1.000  He
  Ar4      1.0000 0.95696  0.24897  0.68486  Biso   1.000  Ar
