data_image0
_cell_length_a       20.693
_cell_length_b       26.342
_cell_length_c       28.811
_cell_angle_alpha    90
_cell_angle_beta     90
_cell_angle_gamma    90

_symmetry_space_group_name_H-M    "P 1"
_symmetry_int_tables_number       1

loop_
  _symmetry_equiv_pos_as_xyz
  'x, y, z'

loop_
  _atom_site_label
  _atom_site_occupancy
  _atom_site_fract_x
  _atom_site_fract_y
  _atom_site_fract_z
  _atom_site_thermal_displace_type
  _atom_site_B_iso_or_equiv
  _atom_site_type_symbol
  C1       1.0000 0.51090  0.53379  0.58190  Biso   1.000  C
  C2       1.0000 0.54999  0.58280  0.58599  Biso   1.000  C
  H1       1.0000 0.51960  0.51219  0.60890  Biso   1.000  H
  H2       1.0000 0.46470  0.54199  0.58079  Biso   1.000  H
  H3       1.0000 0.52322  0.51591  0.55350  Biso   1.000  H
  C3       1.0000 0.52380  0.61389  0.62688  Biso   1.000  C
  C4       1.0000 0.62021  0.56951  0.59009  Biso   1.000  C
  C5       1.0000 0.54081  0.61362  0.54011  Biso   1.000  C
  N1       1.0000 0.54009  0.66441  0.63351  Biso   1.000  N
  C6       1.0000 0.47818  0.60280  0.65968  Biso   1.000  C
  N2       1.0000 0.66820  0.60591  0.59509  Biso   1.000  N
  C7       1.0000 0.65191  0.52392  0.58648  Biso   1.000  C
  H4       1.0000 0.56232  0.64661  0.54299  Biso   1.000  H
  H5       1.0000 0.55990  0.59472  0.51411  Biso   1.000  H
  H6       1.0000 0.49461  0.61871  0.53431  Biso   1.000  H
  H7       1.0000 0.56908  0.68119  0.61719  Biso   1.000  H
  C8       1.0000 0.50481  0.68389  0.66870  Biso   1.000  C
  C9       1.0000 0.46678  0.64619  0.68588  Biso   1.000  C
  H8       1.0000 0.45759  0.57080  0.66377  Biso   1.000  H
  H9       1.0000 0.66129  0.63879  0.59790  Biso   1.000  H
  C10      1.0000 0.72889  0.58280  0.59481  Biso   1.000  C
  H10      1.0000 0.63190  0.49169  0.58238  Biso   1.000  H
  C11      1.0000 0.71879  0.53250  0.58977  Biso   1.000  C
  C12      1.0000 0.51109  0.73939  0.68370  Biso   1.000  C
  H11      1.0000 0.43778  0.64900  0.71139  Biso   1.000  H
  C13      1.0000 0.79051  0.61449  0.60060  Biso   1.000  C
  H12      1.0000 0.75141  0.50721  0.58870  Biso   1.000  H
  C14      1.0000 0.57469  0.75002  0.70928  Biso   1.000  C
  C15      1.0000 0.45571  0.75260  0.71740  Biso   1.000  C
  C16      1.0000 0.50640  0.77659  0.64250  Biso   1.000  C
  C17      1.0000 0.79442  0.64190  0.64600  Biso   1.000  C
  C18      1.0000 0.84768  0.57642  0.59689  Biso   1.000  C
  C19      1.0000 0.79911  0.65519  0.56180  Biso   1.000  C
  N3       1.0000 0.63350  0.74801  0.68679  Biso   1.000  N
  C20      1.0000 0.58629  0.76509  0.75371  Biso   1.000  C
  H13      1.0000 0.45900  0.73142  0.74531  Biso   1.000  H
  H14      1.0000 0.45861  0.78851  0.72618  Biso   1.000  H
  H15      1.0000 0.41410  0.74641  0.70220  Biso   1.000  H
  C21      1.0000 0.53052  0.82549  0.64569  Biso   1.000  C
  C22      1.0000 0.47311  0.76422  0.60258  Biso   1.000  C
  N4       1.0000 0.75750  0.68541  0.65208  Biso   1.000  N
  C23      1.0000 0.83782  0.64171  0.68078  Biso   1.000  C
  H16      1.0000 0.84430  0.55110  0.62171  Biso   1.000  H
  H17      1.0000 0.84628  0.55930  0.56669  Biso   1.000  H
  H18      1.0000 0.88871  0.59479  0.59988  Biso   1.000  H
  C24      1.0000 0.76441  0.65352  0.52008  Biso   1.000  C
  C25      1.0000 0.84028  0.69520  0.56819  Biso   1.000  C
  H19      1.0000 0.63930  0.73852  0.65780  Biso   1.000  H
  C26      1.0000 0.68158  0.76289  0.71639  Biso   1.000  C
  C27      1.0000 0.65389  0.77310  0.75818  Biso   1.000  C
  H20      1.0000 0.55492  0.76949  0.77738  Biso   1.000  H
  C28      1.0000 0.52298  0.86022  0.60991  Biso   1.000  C
  H21      1.0000 0.55260  0.83562  0.67301  Biso   1.000  H
  H22      1.0000 0.45440  0.73142  0.59970  Biso   1.000  H
  C29      1.0000 0.46629  0.79929  0.56600  Biso   1.000  C
  H23      1.0000 0.72488  0.69459  0.63431  Biso   1.000  H
  C30      1.0000 0.77901  0.71190  0.68960  Biso   1.000  C
  H24      1.0000 0.86962  0.61632  0.68588  Biso   1.000  H
  C31      1.0000 0.82849  0.68472  0.70820  Biso   1.000  C
  H25      1.0000 0.73532  0.62630  0.51439  Biso   1.000  H
  C32      1.0000 0.77229  0.69080  0.48728  Biso   1.000  C
  C33      1.0000 0.84951  0.73320  0.53650  Biso   1.000  C
  H26      1.0000 0.86401  0.69672  0.59640  Biso   1.000  H
  C34      1.0000 0.75132  0.76441  0.70119  Biso   1.000  C
  H27      1.0000 0.67578  0.78362  0.78550  Biso   1.000  H
  C35      1.0000 0.49249  0.84720  0.57020  Biso   1.000  C
  H28      1.0000 0.53960  0.89359  0.61338  Biso   1.000  H
  H29      1.0000 0.44382  0.78999  0.53851  Biso   1.000  H
  H30      1.0000 0.85251  0.69349  0.73510  Biso   1.000  H
  H31      1.0000 0.74822  0.68951  0.45930  Biso   1.000  H
  C36      1.0000 0.81540  0.73092  0.49478  Biso   1.000  C
  H32      1.0000 0.87832  0.76042  0.54271  Biso   1.000  H
  C37      1.0000 0.75629  0.79819  0.65701  Biso   1.000  C
  C38      1.0000 0.79331  0.78772  0.73958  Biso   1.000  C
  O1       1.0000 0.48838  0.88482  0.53688  Biso   1.000  O
  O2       1.0000 0.82100  0.76691  0.45923  Biso   1.000  O
  H33      1.0000 0.72918  0.78392  0.63240  Biso   1.000  H
  H34      1.0000 0.74160  0.83270  0.66429  Biso   1.000  H
  H35      1.0000 0.80129  0.79941  0.64649  Biso   1.000  H
  H36      1.0000 0.78901  0.76760  0.76801  Biso   1.000  H
  H37      1.0000 0.83859  0.78791  0.72969  Biso   1.000  H
  H38      1.0000 0.77910  0.82260  0.74558  Biso   1.000  H
  C39      1.0000 0.46030  0.87252  0.49290  Biso   1.000  C
  C40      1.0000 0.85270  0.81182  0.47079  Biso   1.000  C
  C41      1.0000 0.50631  0.84341  0.46080  Biso   1.000  C
  H39      1.0000 0.42111  0.85180  0.49811  Biso   1.000  H
  H40      1.0000 0.44691  0.90430  0.47739  Biso   1.000  H
  H41      1.0000 0.82888  0.82932  0.49599  Biso   1.000  H
  H42      1.0000 0.89668  0.80412  0.48218  Biso   1.000  H
  C42      1.0000 0.85700  0.84640  0.42848  Biso   1.000  C
  O3       1.0000 0.56058  0.87302  0.44452  Biso   1.000  O
  H43      1.0000 0.48161  0.83122  0.43358  Biso   1.000  H
  H44      1.0000 0.52279  0.81330  0.47749  Biso   1.000  H
  O4       1.0000 0.79418  0.86831  0.41901  Biso   1.000  O
  H45      1.0000 0.87179  0.82670  0.40131  Biso   1.000  H
  H46      1.0000 0.88871  0.87381  0.43438  Biso   1.000  H
  C43      1.0000 0.54502  0.91022  0.41359  Biso   1.000  C
  C44      1.0000 0.80051  0.90430  0.38451  Biso   1.000  C
  C45      1.0000 0.54782  0.96132  0.42848  Biso   1.000  C
  C46      1.0000 0.52858  0.89822  0.36691  Biso   1.000  C
  C47      1.0000 0.79428  0.88869  0.33779  Biso   1.000  C
  C48      1.0000 0.81269  0.95509  0.39641  Biso   1.000  C
  C49      1.0000 0.57150  0.97430  0.47760  Biso   1.000  C
  C50      1.0000 0.52540  0.99852  0.39891  Biso   1.000  C
  C51      1.0000 0.50732  0.93812  0.33900  Biso   1.000  C
  C52      1.0000 0.53240  0.84530  0.34688  Biso   1.000  C
  Cs1      1.0000 0.66573  0.97605  0.33636  Biso   1.000  Cs
  C53      1.0000 0.80892  0.92419  0.30318  Biso   1.000  C
  C54      1.0000 0.77572  0.83452  0.32418  Biso   1.000  C
  C55      1.0000 0.82830  0.98831  0.35990  Biso   1.000  C
  C56      1.0000 0.81400  0.97289  0.44601  Biso   1.000  C
  C57      1.0000 0.63988  0.95892  0.49019  Biso   1.000  C
  H47      1.0000 0.54168  0.95820  0.50009  Biso   1.000  H
  H48      1.0000 0.56768  0.01150  0.48180  Biso   1.000  H
  C58      1.0000 0.50418  0.98770  0.35500  Biso   1.000  C
  H49      1.0000 0.52462  0.03280  0.40929  Biso   1.000  H
  H50      1.0000 0.49452  0.93110  0.30801  Biso   1.000  H
  H51      1.0000 0.49780  0.82442  0.36090  Biso   1.000  H
  H52      1.0000 0.52390  0.84720  0.31311  Biso   1.000  H
  C59      1.0000 0.59721  0.81862  0.35438  Biso   1.000  C
  O5       1.0000 0.61852  0.95141  0.24081  Biso   1.000  O
  O6       1.0000 0.65210  0.87541  0.30235  Biso   1.000  O
  C60      1.0000 0.82651  0.97289  0.31311  Biso   1.000  C
  O7       1.0000 0.68762  0.01059  0.42900  Biso   1.000  O
  O8       1.0000 0.64070  0.08431  0.36628  Biso   1.000  O
  O9       1.0000 0.62620  0.05702  0.27011  Biso   1.000  O
  H53      1.0000 0.80650  0.91390  0.27170  Biso   1.000  H
  C61      1.0000 0.71348  0.81429  0.34511  Biso   1.000  C
  H54      1.0000 0.81139  0.81159  0.33331  Biso   1.000  H
  H55      1.0000 0.77190  0.83300  0.28989  Biso   1.000  H
  H56      1.0000 0.84048  0.02221  0.36698  Biso   1.000  H
  H57      1.0000 0.85382  0.95961  0.46069  Biso   1.000  H
  C62      1.0000 0.75692  0.95809  0.47638  Biso   1.000  C
  H58      1.0000 0.81728  0.01040  0.44601  Biso   1.000  H
  C63      1.0000 0.69371  0.97601  0.46621  Biso   1.000  C
  C64      1.0000 0.64998  0.92582  0.52709  Biso   1.000  C
  H59      1.0000 0.48751  0.01389  0.33571  Biso   1.000  H
  C65      1.0000 0.65389  0.83479  0.33348  Biso   1.000  C
  C66      1.0000 0.60020  0.77610  0.38298  Biso   1.000  C
  C67      1.0000 0.62301  0.99419  0.21068  Biso   1.000  C
  C68      1.0000 0.64698  0.90570  0.22439  Biso   1.000  C
  C69      1.0000 0.63601  0.86440  0.25518  Biso   1.000  C
  H60      1.0000 0.83719  0.99601  0.28899  Biso   1.000  H
  C70      1.0000 0.67709  0.06199  0.44299  Biso   1.000  C
  C71      1.0000 0.68110  0.09711  0.40280  Biso   1.000  C
  C72      1.0000 0.63848  0.11939  0.32970  Biso   1.000  C
  C73      1.0000 0.59948  0.10041  0.29100  Biso   1.000  C
  C74      1.0000 0.59368  0.03929  0.23120  Biso   1.000  C
  C75      1.0000 0.71488  0.77310  0.37468  Biso   1.000  C
  C76      1.0000 0.76499  0.92651  0.51289  Biso   1.000  C
  H61      1.0000 0.61412  0.91371  0.54438  Biso   1.000  H
  C77      1.0000 0.71222  0.91030  0.53879  Biso   1.000  C
  C78      1.0000 0.65761  0.75389  0.39291  Biso   1.000  C
  H62      1.0000 0.56159  0.76262  0.39579  Biso   1.000  H
  H63      1.0000 0.60098  0.98630  0.18101  Biso   1.000  H
  H64      1.0000 0.66902  0.00110  0.20381  Biso   1.000  H
  H65      1.0000 0.69410  0.91079  0.22068  Biso   1.000  H
  H66      1.0000 0.62881  0.89739  0.19361  Biso   1.000  H
  H67      1.0000 0.58991  0.85460  0.25348  Biso   1.000  H
  H68      1.0000 0.66191  0.83490  0.24470  Biso   1.000  H
  H69      1.0000 0.63389  0.06492  0.45750  Biso   1.000  H
  H70      1.0000 0.70981  0.07171  0.46638  Biso   1.000  H
  H71      1.0000 0.72628  0.09760  0.39138  Biso   1.000  H
  H72      1.0000 0.67032  0.13180  0.41338  Biso   1.000  H
  H73      1.0000 0.62002  0.15170  0.34109  Biso   1.000  H
  H74      1.0000 0.68298  0.12619  0.31870  Biso   1.000  H
  H75      1.0000 0.59532  0.12751  0.26729  Biso   1.000  H
  H76      1.0000 0.55560  0.09229  0.30238  Biso   1.000  H
  H77      1.0000 0.54859  0.03139  0.23991  Biso   1.000  H
  H78      1.0000 0.59262  0.06659  0.20759  Biso   1.000  H
  H79      1.0000 0.75499  0.75780  0.38260  Biso   1.000  H
  H80      1.0000 0.80718  0.91519  0.52088  Biso   1.000  H
  H81      1.0000 0.71860  0.88862  0.56468  Biso   1.000  H
  H82      1.0000 0.65868  0.72489  0.41248  Biso   1.000  H
  C79      1.0000 0.48910  0.46621  0.41810  Biso   1.000  C
  C80      1.0000 0.45001  0.41720  0.41401  Biso   1.000  C
  H83      1.0000 0.48040  0.48781  0.39110  Biso   1.000  H
  H84      1.0000 0.53530  0.45801  0.41918  Biso   1.000  H
  H85      1.0000 0.47678  0.48409  0.44650  Biso   1.000  H
  C81      1.0000 0.37979  0.43049  0.40988  Biso   1.000  C
  C82      1.0000 0.47620  0.38611  0.37309  Biso   1.000  C
  C83      1.0000 0.45919  0.38642  0.45989  Biso   1.000  C
  N5       1.0000 0.33180  0.39409  0.40488  Biso   1.000  N
  C84      1.0000 0.34809  0.47612  0.41349  Biso   1.000  C
  N6       1.0000 0.45991  0.33559  0.36649  Biso   1.000  N
  C85      1.0000 0.52182  0.39720  0.34029  Biso   1.000  C
  H86      1.0000 0.43768  0.35339  0.45698  Biso   1.000  H
  H87      1.0000 0.44010  0.40528  0.48589  Biso   1.000  H
  H88      1.0000 0.50539  0.38129  0.46569  Biso   1.000  H
  C86      1.0000 0.27111  0.41720  0.40519  Biso   1.000  C
  H89      1.0000 0.33871  0.36121  0.40210  Biso   1.000  H
  C87      1.0000 0.28121  0.46750  0.41019  Biso   1.000  C
  H90      1.0000 0.36810  0.50831  0.41758  Biso   1.000  H
  C88      1.0000 0.49519  0.31611  0.33130  Biso   1.000  C
  H91      1.0000 0.43092  0.31881  0.38281  Biso   1.000  H
  C89      1.0000 0.53322  0.35381  0.31408  Biso   1.000  C
  H92      1.0000 0.54241  0.42920  0.33619  Biso   1.000  H
  C90      1.0000 0.20949  0.38551  0.39940  Biso   1.000  C
  H93      1.0000 0.24859  0.49279  0.41130  Biso   1.000  H
  C91      1.0000 0.48891  0.26061  0.31630  Biso   1.000  C
  H94      1.0000 0.56222  0.35100  0.28861  Biso   1.000  H
  C92      1.0000 0.20558  0.35810  0.35400  Biso   1.000  C
  C93      1.0000 0.15232  0.42362  0.40311  Biso   1.000  C
  C94      1.0000 0.20089  0.34481  0.43820  Biso   1.000  C
  C95      1.0000 0.42531  0.25002  0.29069  Biso   1.000  C
  C96      1.0000 0.54429  0.24740  0.28260  Biso   1.000  C
  C97      1.0000 0.49360  0.22341  0.35750  Biso   1.000  C
  N7       1.0000 0.24250  0.31459  0.34789  Biso   1.000  N
  C98      1.0000 0.16218  0.35829  0.31918  Biso   1.000  C
  H95      1.0000 0.15570  0.44890  0.37829  Biso   1.000  H
  H96      1.0000 0.15372  0.44070  0.43331  Biso   1.000  H
  H97      1.0000 0.11129  0.40521  0.40009  Biso   1.000  H
  C99      1.0000 0.23559  0.34652  0.47989  Biso   1.000  C
  C100     1.0000 0.15972  0.30480  0.43178  Biso   1.000  C
  N8       1.0000 0.36650  0.25199  0.31318  Biso   1.000  N
  C101     1.0000 0.41371  0.23491  0.24629  Biso   1.000  C
  H98      1.0000 0.54100  0.26862  0.25469  Biso   1.000  H
  H99      1.0000 0.54139  0.21149  0.27378  Biso   1.000  H
  H100     1.0000 0.58590  0.25359  0.29780  Biso   1.000  H
  C102     1.0000 0.46948  0.17451  0.35431  Biso   1.000  C
  C103     1.0000 0.52689  0.23578  0.39738  Biso   1.000  C
  C104     1.0000 0.22099  0.28810  0.31040  Biso   1.000  C
  H101     1.0000 0.27512  0.30541  0.36569  Biso   1.000  H
  C105     1.0000 0.17151  0.31531  0.29180  Biso   1.000  C
  H102     1.0000 0.13038  0.38372  0.31408  Biso   1.000  H
  H103     1.0000 0.26468  0.37370  0.48558  Biso   1.000  H
  C106     1.0000 0.22771  0.30920  0.51269  Biso   1.000  C
  C107     1.0000 0.15049  0.26680  0.46350  Biso   1.000  C
  H104     1.0000 0.13599  0.30332  0.40360  Biso   1.000  H
  C108     1.0000 0.31842  0.23711  0.28361  Biso   1.000  C
  H105     1.0000 0.36070  0.26148  0.34220  Biso   1.000  H
  C109     1.0000 0.34611  0.22690  0.24178  Biso   1.000  C
  H106     1.0000 0.44508  0.23051  0.22259  Biso   1.000  H
  C110     1.0000 0.47702  0.13981  0.39009  Biso   1.000  C
  H107     1.0000 0.44740  0.16441  0.32699  Biso   1.000  H
  H108     1.0000 0.54560  0.26862  0.40030  Biso   1.000  H
  C111     1.0000 0.53371  0.20071  0.43400  Biso   1.000  C
  C112     1.0000 0.24868  0.23559  0.29881  Biso   1.000  C
  H109     1.0000 0.14749  0.30651  0.26490  Biso   1.000  H
  H110     1.0000 0.25178  0.31049  0.54070  Biso   1.000  H
  C113     1.0000 0.18460  0.26911  0.50519  Biso   1.000  C
  H111     1.0000 0.12168  0.23962  0.45729  Biso   1.000  H
  H112     1.0000 0.32422  0.21638  0.21450  Biso   1.000  H
  C114     1.0000 0.50751  0.15280  0.42980  Biso   1.000  C
  H113     1.0000 0.46040  0.10641  0.38659  Biso   1.000  H
  H114     1.0000 0.55618  0.21001  0.46149  Biso   1.000  H
  C115     1.0000 0.24371  0.20181  0.34299  Biso   1.000  C
  C116     1.0000 0.20669  0.21228  0.26039  Biso   1.000  C
  O10      1.0000 0.17900  0.23309  0.54073  Biso   1.000  O
  O11      1.0000 0.51162  0.11522  0.46312  Biso   1.000  O
  H115     1.0000 0.27082  0.21612  0.36760  Biso   1.000  H
  H116     1.0000 0.25840  0.16730  0.33571  Biso   1.000  H
  H117     1.0000 0.19871  0.20059  0.35351  Biso   1.000  H
  H118     1.0000 0.21099  0.23240  0.23199  Biso   1.000  H
  H119     1.0000 0.16141  0.21209  0.27031  Biso   1.000  H
  H120     1.0000 0.22090  0.17740  0.25438  Biso   1.000  H
  C117     1.0000 0.14730  0.18822  0.52921  Biso   1.000  C
  C118     1.0000 0.53970  0.12751  0.50710  Biso   1.000  C
  H121     1.0000 0.17112  0.17072  0.50401  Biso   1.000  H
  H122     1.0000 0.10332  0.19588  0.51779  Biso   1.000  H
  C119     1.0000 0.14300  0.15360  0.57148  Biso   1.000  C
  C120     1.0000 0.49369  0.15659  0.53920  Biso   1.000  C
  H123     1.0000 0.57889  0.14820  0.50189  Biso   1.000  H
  H124     1.0000 0.55309  0.09570  0.52258  Biso   1.000  H
  O12      1.0000 0.20582  0.13169  0.58096  Biso   1.000  O
  H125     1.0000 0.12821  0.17330  0.59869  Biso   1.000  H
  H126     1.0000 0.11129  0.12619  0.56558  Biso   1.000  H
  O13      1.0000 0.43942  0.12698  0.55548  Biso   1.000  O
  H127     1.0000 0.51839  0.16882  0.56638  Biso   1.000  H
  H128     1.0000 0.47721  0.18670  0.52251  Biso   1.000  H
  C121     1.0000 0.19949  0.09570  0.61549  Biso   1.000  C
  C122     1.0000 0.45498  0.08982  0.58641  Biso   1.000  C
  C123     1.0000 0.20572  0.11131  0.66218  Biso   1.000  C
  C124     1.0000 0.18731  0.04491  0.60359  Biso   1.000  C
  C125     1.0000 0.45218  0.03868  0.57148  Biso   1.000  C
  C126     1.0000 0.47142  0.10181  0.63309  Biso   1.000  C
  Cs2      1.0000 0.33427  0.02395  0.66360  Biso   1.000  Cs
  C127     1.0000 0.19108  0.07581  0.69678  Biso   1.000  C
  C128     1.0000 0.22428  0.16552  0.67578  Biso   1.000  C
  C129     1.0000 0.17170  0.01169  0.64010  Biso   1.000  C
  C130     1.0000 0.18600  0.02711  0.55399  Biso   1.000  C
  C131     1.0000 0.42850  0.02570  0.52240  Biso   1.000  C
  C132     1.0000 0.47460  0.00152  0.60109  Biso   1.000  C
  C133     1.0000 0.49268  0.06192  0.66100  Biso   1.000  C
  C134     1.0000 0.46760  0.15470  0.65308  Biso   1.000  C
  O14      1.0000 0.38148  0.04859  0.75919  Biso   1.000  O
  O15      1.0000 0.34790  0.12459  0.69762  Biso   1.000  O
  C135     1.0000 0.17349  0.02711  0.68689  Biso   1.000  C
  C136     1.0000 0.49582  0.01230  0.64500  Biso   1.000  C
  O16      1.0000 0.31238  0.98941  0.57100  Biso   1.000  O
  O17      1.0000 0.35930  0.91572  0.63368  Biso   1.000  O
  O18      1.0000 0.37380  0.94302  0.72989  Biso   1.000  O
  H129     1.0000 0.19350  0.08610  0.72830  Biso   1.000  H
  C137     1.0000 0.28652  0.18571  0.65489  Biso   1.000  C
  H130     1.0000 0.18861  0.18841  0.66669  Biso   1.000  H
  H131     1.0000 0.22810  0.16700  0.71008  Biso   1.000  H
  H132     1.0000 0.15952  0.97779  0.63299  Biso   1.000  H
  H133     1.0000 0.14618  0.04039  0.53931  Biso   1.000  H
  C138     1.0000 0.24308  0.04191  0.52358  Biso   1.000  C
  H134     1.0000 0.18272  0.98960  0.55399  Biso   1.000  H
  C139     1.0000 0.36012  0.04111  0.50981  Biso   1.000  C
  H135     1.0000 0.45832  0.04180  0.49988  Biso   1.000  H
  H136     1.0000 0.43232  0.98850  0.51820  Biso   1.000  H
  H137     1.0000 0.47538  0.96720  0.59068  Biso   1.000  H
  H138     1.0000 0.50548  0.06890  0.69199  Biso   1.000  H
  H139     1.0000 0.50220  0.17561  0.63910  Biso   1.000  H
  H140     1.0000 0.47610  0.15280  0.68689  Biso   1.000  H
  C140     1.0000 0.40279  0.18138  0.64559  Biso   1.000  C
  C141     1.0000 0.37699  0.00581  0.78928  Biso   1.000  C
  C142     1.0000 0.35302  0.09430  0.77561  Biso   1.000  C
  C143     1.0000 0.34611  0.16521  0.66648  Biso   1.000  C
  C144     1.0000 0.36399  0.13560  0.74478  Biso   1.000  C
  H141     1.0000 0.16281  0.00399  0.71098  Biso   1.000  H
  H142     1.0000 0.51249  0.98611  0.66429  Biso   1.000  H
  C145     1.0000 0.30629  0.02399  0.53379  Biso   1.000  C
  C146     1.0000 0.32291  0.93801  0.55701  Biso   1.000  C
  C147     1.0000 0.31890  0.90289  0.59720  Biso   1.000  C
  C148     1.0000 0.36152  0.88061  0.67030  Biso   1.000  C
  C149     1.0000 0.40052  0.89959  0.70900  Biso   1.000  C
  C150     1.0000 0.40632  0.96071  0.76880  Biso   1.000  C
  C151     1.0000 0.28512  0.22690  0.62528  Biso   1.000  C
  C152     1.0000 0.23501  0.07349  0.48711  Biso   1.000  C
  C153     1.0000 0.35002  0.07422  0.47291  Biso   1.000  C
  C154     1.0000 0.39980  0.22390  0.61699  Biso   1.000  C
  H143     1.0000 0.39902  0.01370  0.81899  Biso   1.000  H
  H144     1.0000 0.33098  0.99890  0.79619  Biso   1.000  H
  H145     1.0000 0.30590  0.08921  0.77929  Biso   1.000  H
  H146     1.0000 0.37119  0.10261  0.80639  Biso   1.000  H
  H147     1.0000 0.41009  0.14540  0.74649  Biso   1.000  H
  H148     1.0000 0.33809  0.16510  0.75530  Biso   1.000  H
  H149     1.0000 0.36611  0.93512  0.54250  Biso   1.000  H
  H150     1.0000 0.29019  0.92829  0.53358  Biso   1.000  H
  H151     1.0000 0.27372  0.90240  0.60859  Biso   1.000  H
  H152     1.0000 0.32968  0.86820  0.58658  Biso   1.000  H
  H153     1.0000 0.37998  0.84830  0.65888  Biso   1.000  H
  H154     1.0000 0.31702  0.87381  0.68130  Biso   1.000  H
  H155     1.0000 0.40468  0.87252  0.73271  Biso   1.000  H
  H156     1.0000 0.44440  0.90771  0.69758  Biso   1.000  H
  H157     1.0000 0.45141  0.96861  0.76009  Biso   1.000  H
  H158     1.0000 0.40738  0.93341  0.79241  Biso   1.000  H
  H159     1.0000 0.24501  0.24220  0.61740  Biso   1.000  H
  C155     1.0000 0.34239  0.24611  0.60709  Biso   1.000  C
  C156     1.0000 0.28778  0.08970  0.46118  Biso   1.000  C
  H160     1.0000 0.19282  0.08481  0.47909  Biso   1.000  H
  H161     1.0000 0.38588  0.08629  0.45559  Biso   1.000  H
  H162     1.0000 0.43841  0.23742  0.60418  Biso   1.000  H
  H163     1.0000 0.34132  0.27511  0.58748  Biso   1.000  H
  H164     1.0000 0.28140  0.11142  0.43529  Biso   1.000  H
  C157     1.0000 0.68598  0.47289  0.44601  Biso   1.000  C
  C158     1.0000 0.68729  0.45509  0.39641  Biso   1.000  C
  H165     1.0000 0.64621  0.45961  0.46069  Biso   1.000  H
  H166     1.0000 0.68269  0.51040  0.44601  Biso   1.000  H
  C159     1.0000 0.74310  0.45809  0.47638  Biso   1.000  C
  C160     1.0000 0.69951  0.40430  0.38451  Biso   1.000  C
  C161     1.0000 0.67168  0.48831  0.35990  Biso   1.000  C
  C162     1.0000 0.80631  0.47601  0.46621  Biso   1.000  C
  C163     1.0000 0.73498  0.42651  0.51289  Biso   1.000  C
  O19      1.0000 0.70579  0.36831  0.41901  Biso   1.000  O
  C164     1.0000 0.70570  0.38869  0.33779  Biso   1.000  C
  Cs3      1.0000 0.83429  0.47605  0.33636  Biso   1.000  Cs
  C165     1.0000 0.67351  0.47289  0.31311  Biso   1.000  C
  H167     1.0000 0.65950  0.52221  0.36698  Biso   1.000  H
  O20      1.0000 0.81240  0.51059  0.42900  Biso   1.000  O
  C166     1.0000 0.86010  0.45889  0.49019  Biso   1.000  C
  C167     1.0000 0.78780  0.41030  0.53879  Biso   1.000  C
  H168     1.0000 0.69279  0.41519  0.52088  Biso   1.000  H
  C168     1.0000 0.64302  0.34640  0.42848  Biso   1.000  C
  C169     1.0000 0.69110  0.42419  0.30318  Biso   1.000  C
  C170     1.0000 0.72430  0.33448  0.32418  Biso   1.000  C
  O21      1.0000 0.85928  0.58431  0.36628  Biso   1.000  O
  O22      1.0000 0.87382  0.55702  0.27011  Biso   1.000  O
  O23      1.0000 0.88151  0.45141  0.24081  Biso   1.000  O
  O24      1.0000 0.84792  0.37541  0.30235  Biso   1.000  O
  C171     1.0000 0.99270  0.43812  0.33900  Biso   1.000  C
  C172     1.0000 0.99580  0.48770  0.35500  Biso   1.000  C
  C173     1.0000 0.97458  0.49852  0.39891  Biso   1.000  C
  H169     1.0000 0.66278  0.49601  0.28899  Biso   1.000  H
  C174     1.0000 0.82289  0.56199  0.44299  Biso   1.000  C
  C175     1.0000 0.92848  0.47430  0.47760  Biso   1.000  C
  C176     1.0000 0.85000  0.42582  0.52709  Biso   1.000  C
  H170     1.0000 0.78142  0.38862  0.56468  Biso   1.000  H
  C177     1.0000 0.64732  0.31178  0.47079  Biso   1.000  C
  H171     1.0000 0.62818  0.32670  0.40131  Biso   1.000  H
  H172     1.0000 0.61132  0.37381  0.43438  Biso   1.000  H
  H173     1.0000 0.69352  0.41390  0.27170  Biso   1.000  H
  C178     1.0000 0.78650  0.31429  0.34511  Biso   1.000  C
  H174     1.0000 0.68859  0.31159  0.33331  Biso   1.000  H
  H175     1.0000 0.72812  0.33300  0.28989  Biso   1.000  H
  C179     1.0000 0.81888  0.59711  0.40280  Biso   1.000  C
  C180     1.0000 0.86150  0.61939  0.32970  Biso   1.000  C
  C181     1.0000 0.90050  0.60041  0.29100  Biso   1.000  C
  C182     1.0000 0.90630  0.53929  0.23120  Biso   1.000  C
  C183     1.0000 0.87701  0.49419  0.21068  Biso   1.000  C
  C184     1.0000 0.85299  0.40570  0.22439  Biso   1.000  C
  C185     1.0000 0.84608  0.33479  0.33348  Biso   1.000  C
  C186     1.0000 0.86401  0.36440  0.25518  Biso   1.000  C
  C187     1.0000 0.97139  0.39819  0.36691  Biso   1.000  C
  H176     1.0000 0.00551  0.43110  0.30801  Biso   1.000  H
  H177     1.0000 0.01252  0.51389  0.33571  Biso   1.000  H
  C188     1.0000 0.95221  0.46132  0.42848  Biso   1.000  C
  H178     1.0000 0.97540  0.53280  0.40929  Biso   1.000  H
  H179     1.0000 0.86609  0.56492  0.45750  Biso   1.000  H
  H180     1.0000 0.79022  0.57171  0.46638  Biso   1.000  H
  H181     1.0000 0.95830  0.45820  0.50009  Biso   1.000  H
  H182     1.0000 0.93230  0.51150  0.48180  Biso   1.000  H
  H183     1.0000 0.88590  0.41371  0.54438  Biso   1.000  H
  O25      1.0000 0.67902  0.26691  0.45923  Biso   1.000  O
  H184     1.0000 0.67110  0.32928  0.49599  Biso   1.000  H
  H185     1.0000 0.60330  0.30412  0.48218  Biso   1.000  H
  C189     1.0000 0.78510  0.27310  0.37468  Biso   1.000  C
  H186     1.0000 0.77369  0.59760  0.39138  Biso   1.000  H
  H187     1.0000 0.82970  0.63180  0.41338  Biso   1.000  H
  H188     1.0000 0.88001  0.65170  0.34109  Biso   1.000  H
  H189     1.0000 0.81699  0.62619  0.31870  Biso   1.000  H
  H190     1.0000 0.90470  0.62751  0.26729  Biso   1.000  H
  H191     1.0000 0.94438  0.59229  0.30238  Biso   1.000  H
  H192     1.0000 0.95138  0.53139  0.23991  Biso   1.000  H
  H193     1.0000 0.90741  0.56659  0.20759  Biso   1.000  H
  H194     1.0000 0.83101  0.50110  0.20381  Biso   1.000  H
  H195     1.0000 0.89900  0.48630  0.18101  Biso   1.000  H
  H196     1.0000 0.80588  0.41079  0.22068  Biso   1.000  H
  H197     1.0000 0.87121  0.39739  0.19361  Biso   1.000  H
  C190     1.0000 0.90282  0.31862  0.35438  Biso   1.000  C
  H198     1.0000 0.91011  0.35460  0.25348  Biso   1.000  H
  H199     1.0000 0.83811  0.33490  0.24470  Biso   1.000  H
  C191     1.0000 0.95501  0.41022  0.41359  Biso   1.000  C
  C192     1.0000 0.96762  0.34530  0.34688  Biso   1.000  C
  C193     1.0000 0.68458  0.23089  0.49478  Biso   1.000  C
  H200     1.0000 0.74499  0.25780  0.38260  Biso   1.000  H
  C194     1.0000 0.84241  0.25389  0.39291  Biso   1.000  C
  C195     1.0000 0.89982  0.27610  0.38298  Biso   1.000  C
  O26      1.0000 0.93940  0.37302  0.44452  Biso   1.000  O
  H201     1.0000 0.97608  0.34720  0.31311  Biso   1.000  H
  H202     1.0000 0.00222  0.32439  0.36090  Biso   1.000  H
  C196     1.0000 0.72769  0.19080  0.48728  Biso   1.000  C
  C197     1.0000 0.65051  0.23320  0.53650  Biso   1.000  C
  H203     1.0000 0.84130  0.22489  0.41248  Biso   1.000  H
  H204     1.0000 0.93838  0.26258  0.39579  Biso   1.000  H
  C198     1.0000 0.99372  0.34341  0.46080  Biso   1.000  C
  C199     1.0000 0.73561  0.15352  0.52008  Biso   1.000  C
  H205     1.0000 0.75180  0.18951  0.45930  Biso   1.000  H
  H206     1.0000 0.62171  0.26042  0.54271  Biso   1.000  H
  C200     1.0000 0.65969  0.19520  0.56819  Biso   1.000  C
  H207     1.0000 0.97719  0.31330  0.47749  Biso   1.000  H
  H208     1.0000 0.01841  0.33122  0.43358  Biso   1.000  H
  C201     1.0000 0.03972  0.37249  0.49290  Biso   1.000  C
  C202     1.0000 0.70091  0.15519  0.56180  Biso   1.000  C
  H209     1.0000 0.76470  0.12630  0.51439  Biso   1.000  H
  H210     1.0000 0.63601  0.19672  0.59640  Biso   1.000  H
  O27      1.0000 0.01160  0.38478  0.53688  Biso   1.000  O
  H211     1.0000 0.07892  0.35180  0.49811  Biso   1.000  H
  H212     1.0000 0.05311  0.40430  0.47739  Biso   1.000  H
  C203     1.0000 0.70952  0.11449  0.60060  Biso   1.000  C
  C204     1.0000 0.00749  0.34720  0.57020  Biso   1.000  C
  C205     1.0000 0.77108  0.08280  0.59481  Biso   1.000  C
  C206     1.0000 0.70560  0.14190  0.64600  Biso   1.000  C
  C207     1.0000 0.65230  0.07642  0.59689  Biso   1.000  C
  C208     1.0000 0.97700  0.36019  0.60991  Biso   1.000  C
  C209     1.0000 0.03368  0.29929  0.56600  Biso   1.000  C
  N9       1.0000 0.83178  0.10591  0.59509  Biso   1.000  N
  C210     1.0000 0.78118  0.03250  0.58977  Biso   1.000  C
  N10      1.0000 0.74252  0.18541  0.65208  Biso   1.000  N
  C211     1.0000 0.66220  0.14171  0.68078  Biso   1.000  C
  H213     1.0000 0.65568  0.05110  0.62171  Biso   1.000  H
  H214     1.0000 0.65370  0.05930  0.56669  Biso   1.000  H
  H215     1.0000 0.61132  0.09479  0.59988  Biso   1.000  H
  H216     1.0000 0.96042  0.39359  0.61338  Biso   1.000  H
  C212     1.0000 0.96951  0.32549  0.64569  Biso   1.000  C
  C213     1.0000 0.02692  0.26422  0.60258  Biso   1.000  C
  H217     1.0000 0.05620  0.28999  0.53851  Biso   1.000  H
  H218     1.0000 0.83869  0.13879  0.59790  Biso   1.000  H
  C214     1.0000 0.87981  0.06951  0.59009  Biso   1.000  C
  C215     1.0000 0.84811  0.02392  0.58648  Biso   1.000  C
  H219     1.0000 0.74861  0.00721  0.58870  Biso   1.000  H
  H220     1.0000 0.77509  0.19459  0.63431  Biso   1.000  H
  C216     1.0000 0.72102  0.21190  0.68960  Biso   1.000  C
  H221     1.0000 0.63041  0.11632  0.68588  Biso   1.000  H
  C217     1.0000 0.67148  0.18469  0.70820  Biso   1.000  C
  H222     1.0000 0.94742  0.33559  0.67301  Biso   1.000  H
  C218     1.0000 0.99362  0.27659  0.64250  Biso   1.000  C
  H223     1.0000 0.04562  0.23142  0.59970  Biso   1.000  H
  C219     1.0000 0.94998  0.08280  0.58599  Biso   1.000  C
  H224     1.0000 0.86812  0.99172  0.58238  Biso   1.000  H
  C220     1.0000 0.74871  0.26441  0.70119  Biso   1.000  C
  H225     1.0000 0.64751  0.19349  0.73510  Biso   1.000  H
  C221     1.0000 0.98889  0.23939  0.68370  Biso   1.000  C
  C222     1.0000 0.97622  0.11389  0.62688  Biso   1.000  C
  C223     1.0000 0.98908  0.03379  0.58190  Biso   1.000  C
  C224     1.0000 0.95921  0.11358  0.54011  Biso   1.000  C
  C225     1.0000 0.81839  0.26289  0.71639  Biso   1.000  C
  C226     1.0000 0.74368  0.29819  0.65701  Biso   1.000  C
  C227     1.0000 0.70671  0.28772  0.73958  Biso   1.000  C
  C228     1.0000 0.99522  0.18389  0.66870  Biso   1.000  C
  C229     1.0000 0.92529  0.25002  0.70928  Biso   1.000  C
  C230     1.0000 0.04431  0.25260  0.71740  Biso   1.000  C
  N11      1.0000 0.95989  0.16441  0.63351  Biso   1.000  N
  C231     1.0000 0.02179  0.10280  0.65968  Biso   1.000  C
  H226     1.0000 0.98038  0.01219  0.60890  Biso   1.000  H
  H227     1.0000 0.97680  0.01591  0.55350  Biso   1.000  H
  H228     1.0000 0.03528  0.04199  0.58079  Biso   1.000  H
  H229     1.0000 0.93771  0.14661  0.54299  Biso   1.000  H
  H230     1.0000 0.94008  0.09472  0.51411  Biso   1.000  H
  H231     1.0000 0.00541  0.11871  0.53431  Biso   1.000  H
  N12      1.0000 0.86648  0.24801  0.68679  Biso   1.000  N
  C232     1.0000 0.84608  0.27310  0.75818  Biso   1.000  C
  H232     1.0000 0.77079  0.28392  0.63240  Biso   1.000  H
  H233     1.0000 0.75842  0.33270  0.66429  Biso   1.000  H
  H234     1.0000 0.69869  0.29941  0.64649  Biso   1.000  H
  H235     1.0000 0.71101  0.26760  0.76801  Biso   1.000  H
  H236     1.0000 0.66138  0.28791  0.72969  Biso   1.000  H
  H237     1.0000 0.72092  0.32260  0.74558  Biso   1.000  H
  C233     1.0000 0.03320  0.14619  0.68588  Biso   1.000  C
  C234     1.0000 0.91369  0.26509  0.75371  Biso   1.000  C
  H238     1.0000 0.04098  0.23142  0.74531  Biso   1.000  H
  H239     1.0000 0.04141  0.28851  0.72618  Biso   1.000  H
  H240     1.0000 0.08592  0.24641  0.70220  Biso   1.000  H
  H241     1.0000 0.93089  0.18119  0.61719  Biso   1.000  H
  H242     1.0000 0.04238  0.07080  0.66377  Biso   1.000  H
  H243     1.0000 0.86068  0.23852  0.65780  Biso   1.000  H
  H244     1.0000 0.82419  0.28362  0.78550  Biso   1.000  H
  H245     1.0000 0.06219  0.14900  0.71139  Biso   1.000  H
  H246     1.0000 0.94510  0.26949  0.77738  Biso   1.000  H
  C235     1.0000 0.31402  0.52711  0.55399  Biso   1.000  C
  C236     1.0000 0.25690  0.54191  0.52358  Biso   1.000  C
  C237     1.0000 0.31271  0.54491  0.60359  Biso   1.000  C
  H247     1.0000 0.35379  0.54039  0.53931  Biso   1.000  H
  H248     1.0000 0.31731  0.48960  0.55399  Biso   1.000  H
  C238     1.0000 0.19369  0.52399  0.53379  Biso   1.000  C
  C239     1.0000 0.26502  0.57349  0.48711  Biso   1.000  C
  C240     1.0000 0.32832  0.51169  0.64010  Biso   1.000  C
  C241     1.0000 0.30049  0.59570  0.61549  Biso   1.000  C
  O28      1.0000 0.18760  0.48941  0.57100  Biso   1.000  O
  C242     1.0000 0.13990  0.54111  0.50981  Biso   1.000  C
  C243     1.0000 0.21220  0.58970  0.46118  Biso   1.000  C
  H249     1.0000 0.30721  0.58481  0.47909  Biso   1.000  H
  Cs4      1.0000 0.16571  0.52395  0.66360  Biso   1.000  Cs
  C244     1.0000 0.32649  0.52711  0.68689  Biso   1.000  C
  H250     1.0000 0.34050  0.47779  0.63299  Biso   1.000  H
  C245     1.0000 0.29430  0.61131  0.66218  Biso   1.000  C
  O29      1.0000 0.29421  0.63169  0.58096  Biso   1.000  O
  C246     1.0000 0.17711  0.43801  0.55701  Biso   1.000  C
  C247     1.0000 0.15000  0.57422  0.47291  Biso   1.000  C
  C248     1.0000 0.07152  0.52570  0.52240  Biso   1.000  C
  H251     1.0000 0.21858  0.61142  0.43529  Biso   1.000  H
  O30      1.0000 0.14072  0.41569  0.63368  Biso   1.000  O
  O31      1.0000 0.12618  0.44302  0.72989  Biso   1.000  O
  O32      1.0000 0.11849  0.54859  0.75919  Biso   1.000  O
  O33      1.0000 0.15208  0.62459  0.69762  Biso   1.000  O
  C249     1.0000 0.30890  0.57581  0.69678  Biso   1.000  C
  C250     1.0000 0.00730  0.56192  0.66100  Biso   1.000  C
  C251     1.0000 0.00420  0.51230  0.64500  Biso   1.000  C
  C252     1.0000 0.02542  0.50152  0.60109  Biso   1.000  C
  H252     1.0000 0.33722  0.50399  0.71098  Biso   1.000  H
  C253     1.0000 0.27570  0.66552  0.67578  Biso   1.000  C
  C254     1.0000 0.35698  0.65360  0.57148  Biso   1.000  C
  H253     1.0000 0.13391  0.43508  0.54250  Biso   1.000  H
  H254     1.0000 0.20978  0.42829  0.53358  Biso   1.000  H
  C255     1.0000 0.18112  0.40289  0.59720  Biso   1.000  C
  H255     1.0000 0.11410  0.58629  0.45559  Biso   1.000  H
  C256     1.0000 0.04779  0.53872  0.57148  Biso   1.000  C
  H256     1.0000 0.04170  0.54180  0.49988  Biso   1.000  H
  H257     1.0000 0.06770  0.48850  0.51820  Biso   1.000  H
  C257     1.0000 0.13850  0.38061  0.67030  Biso   1.000  C
  C258     1.0000 0.09950  0.39959  0.70900  Biso   1.000  C
  C259     1.0000 0.09370  0.46071  0.76880  Biso   1.000  C
  C260     1.0000 0.12299  0.50581  0.78928  Biso   1.000  C
  C261     1.0000 0.14701  0.59430  0.77561  Biso   1.000  C
  C262     1.0000 0.15392  0.66521  0.66648  Biso   1.000  C
  C263     1.0000 0.13599  0.63560  0.74478  Biso   1.000  C
  H258     1.0000 0.30648  0.58610  0.72830  Biso   1.000  H
  C264     1.0000 0.02861  0.60181  0.63309  Biso   1.000  C
  H259     1.0000 0.99449  0.56890  0.69199  Biso   1.000  H
  H260     1.0000 0.98748  0.48611  0.66429  Biso   1.000  H
  H261     1.0000 0.02460  0.46720  0.59068  Biso   1.000  H
  C265     1.0000 0.21350  0.68571  0.65489  Biso   1.000  C
  H262     1.0000 0.31141  0.68841  0.66669  Biso   1.000  H
  H263     1.0000 0.27188  0.66700  0.71008  Biso   1.000  H
  C266     1.0000 0.35268  0.68822  0.52921  Biso   1.000  C
  H264     1.0000 0.37182  0.67330  0.59869  Biso   1.000  H
  H265     1.0000 0.38868  0.62619  0.56558  Biso   1.000  H
  H266     1.0000 0.22631  0.40240  0.60859  Biso   1.000  H
  H267     1.0000 0.17030  0.36820  0.58658  Biso   1.000  H
  C267     1.0000 0.04499  0.58982  0.58641  Biso   1.000  C
  H268     1.0000 0.11999  0.34830  0.65888  Biso   1.000  H
  H269     1.0000 0.18301  0.37381  0.68130  Biso   1.000  H
  H270     1.0000 0.09530  0.37249  0.73271  Biso   1.000  H
  H271     1.0000 0.05562  0.40771  0.69758  Biso   1.000  H
  H272     1.0000 0.04862  0.46861  0.76009  Biso   1.000  H
  H273     1.0000 0.09259  0.43341  0.79241  Biso   1.000  H
  H274     1.0000 0.16899  0.49890  0.79619  Biso   1.000  H
  H275     1.0000 0.10100  0.51370  0.81899  Biso   1.000  H
  H276     1.0000 0.19412  0.58921  0.77929  Biso   1.000  H
  H277     1.0000 0.12879  0.60261  0.80639  Biso   1.000  H
  C268     1.0000 0.09718  0.68142  0.64559  Biso   1.000  C
  H278     1.0000 0.08989  0.64540  0.74649  Biso   1.000  H
  H279     1.0000 0.16189  0.66510  0.75530  Biso   1.000  H
  C269     1.0000 0.03238  0.65470  0.65308  Biso   1.000  C
  C270     1.0000 0.21490  0.72690  0.62528  Biso   1.000  C
  O34      1.0000 0.32098  0.73309  0.54073  Biso   1.000  O
  H280     1.0000 0.32890  0.67072  0.50401  Biso   1.000  H
  H281     1.0000 0.39670  0.69592  0.51779  Biso   1.000  H
  O35      1.0000 0.06060  0.62702  0.55548  Biso   1.000  O
  C271     1.0000 0.10018  0.72390  0.61699  Biso   1.000  C
  H282     1.0000 0.02392  0.65280  0.68689  Biso   1.000  H
  H283     1.0000 0.99778  0.67561  0.63910  Biso   1.000  H
  C272     1.0000 0.15759  0.74611  0.60709  Biso   1.000  C
  H284     1.0000 0.25501  0.74220  0.61740  Biso   1.000  H
  C273     1.0000 0.31542  0.76911  0.50519  Biso   1.000  C
  C274     1.0000 0.00628  0.65659  0.53920  Biso   1.000  C
  H285     1.0000 0.06162  0.73742  0.60418  Biso   1.000  H
  H286     1.0000 0.15870  0.77511  0.58748  Biso   1.000  H
  C275     1.0000 0.27231  0.80920  0.51269  Biso   1.000  C
  C276     1.0000 0.34949  0.76680  0.46350  Biso   1.000  C
  H287     1.0000 0.02281  0.68670  0.52251  Biso   1.000  H
  H288     1.0000 0.98159  0.66882  0.56638  Biso   1.000  H
  C277     1.0000 0.96028  0.62751  0.50710  Biso   1.000  C
  C278     1.0000 0.26439  0.84652  0.47989  Biso   1.000  C
  H289     1.0000 0.24820  0.81049  0.54070  Biso   1.000  H
  H290     1.0000 0.37829  0.73962  0.45729  Biso   1.000  H
  C279     1.0000 0.34031  0.80480  0.43178  Biso   1.000  C
  O36      1.0000 0.98840  0.61522  0.46312  Biso   1.000  O
  H291     1.0000 0.92108  0.64820  0.50189  Biso   1.000  H
  H292     1.0000 0.94689  0.59570  0.52258  Biso   1.000  H
  C280     1.0000 0.29909  0.84481  0.43820  Biso   1.000  C
  H293     1.0000 0.23530  0.87370  0.48558  Biso   1.000  H
  H294     1.0000 0.36399  0.80332  0.40360  Biso   1.000  H
  C281     1.0000 0.99251  0.65280  0.42980  Biso   1.000  C
  C282     1.0000 0.29048  0.88551  0.39940  Biso   1.000  C
  C283     1.0000 0.02300  0.63981  0.39009  Biso   1.000  C
  C284     1.0000 0.96632  0.70071  0.43400  Biso   1.000  C
  C285     1.0000 0.22892  0.91720  0.40519  Biso   1.000  C
  C286     1.0000 0.29440  0.85810  0.35400  Biso   1.000  C
  C287     1.0000 0.34770  0.92362  0.40311  Biso   1.000  C
  H295     1.0000 0.03958  0.60641  0.38659  Biso   1.000  H
  C288     1.0000 0.03049  0.67451  0.35431  Biso   1.000  C
  C289     1.0000 0.97308  0.73582  0.39738  Biso   1.000  C
  H296     1.0000 0.94380  0.71001  0.46149  Biso   1.000  H
  N13      1.0000 0.16822  0.89412  0.40488  Biso   1.000  N
  C290     1.0000 0.21882  0.96750  0.41019  Biso   1.000  C
  N14      1.0000 0.25748  0.81459  0.34789  Biso   1.000  N
  C291     1.0000 0.33780  0.85833  0.31918  Biso   1.000  C
  H297     1.0000 0.34432  0.94890  0.37829  Biso   1.000  H
  H298     1.0000 0.34630  0.94070  0.43331  Biso   1.000  H
  H299     1.0000 0.38868  0.90521  0.40009  Biso   1.000  H
  H300     1.0000 0.05258  0.66441  0.32699  Biso   1.000  H
  C292     1.0000 0.00638  0.72341  0.35750  Biso   1.000  C
  H301     1.0000 0.95438  0.76862  0.40030  Biso   1.000  H
  H302     1.0000 0.16131  0.86121  0.40210  Biso   1.000  H
  C293     1.0000 0.12019  0.93049  0.40988  Biso   1.000  C
  C294     1.0000 0.15189  0.97612  0.41349  Biso   1.000  C
  H303     1.0000 0.25139  0.99283  0.41130  Biso   1.000  H
  H304     1.0000 0.22491  0.80541  0.36569  Biso   1.000  H
  C295     1.0000 0.27898  0.78810  0.31040  Biso   1.000  C
  H305     1.0000 0.36959  0.88372  0.31408  Biso   1.000  H
  C296     1.0000 0.32852  0.81531  0.29180  Biso   1.000  C
  C297     1.0000 0.01111  0.76061  0.31630  Biso   1.000  C
  C298     1.0000 0.05002  0.91720  0.41401  Biso   1.000  C
  H306     1.0000 0.13188  0.00831  0.41758  Biso   1.000  H
  C299     1.0000 0.25129  0.73559  0.29881  Biso   1.000  C
  H307     1.0000 0.35249  0.80651  0.26490  Biso   1.000  H
  C300     1.0000 0.00478  0.81611  0.33130  Biso   1.000  C
  C301     1.0000 0.07471  0.75002  0.29069  Biso   1.000  C
  C302     1.0000 0.95569  0.74740  0.28260  Biso   1.000  C
  C303     1.0000 0.02378  0.88611  0.37309  Biso   1.000  C
  C304     1.0000 0.01092  0.96621  0.41810  Biso   1.000  C
  C305     1.0000 0.04079  0.88642  0.45989  Biso   1.000  C
  C306     1.0000 0.18161  0.73711  0.28361  Biso   1.000  C
  C307     1.0000 0.25632  0.70181  0.34299  Biso   1.000  C
  C308     1.0000 0.29329  0.71232  0.26039  Biso   1.000  C
  N15      1.0000 0.04011  0.83562  0.36649  Biso   1.000  N
  C309     1.0000 0.96680  0.85381  0.31408  Biso   1.000  C
  N16      1.0000 0.13352  0.75199  0.31318  Biso   1.000  N
  C310     1.0000 0.08631  0.73491  0.24629  Biso   1.000  C
  H308     1.0000 0.95902  0.76862  0.25469  Biso   1.000  H
  H309     1.0000 0.95859  0.71149  0.27378  Biso   1.000  H
  H310     1.0000 0.91408  0.75359  0.29780  Biso   1.000  H
  C311     1.0000 0.97821  0.89720  0.34029  Biso   1.000  C
  H311     1.0000 0.01962  0.98781  0.39110  Biso   1.000  H
  H312     1.0000 0.02320  0.98409  0.44650  Biso   1.000  H
  H313     1.0000 0.96472  0.95801  0.41918  Biso   1.000  H
  H314     1.0000 0.06229  0.85339  0.45698  Biso   1.000  H
  H315     1.0000 0.05992  0.90532  0.48589  Biso   1.000  H
  H316     1.0000 0.99459  0.88129  0.46569  Biso   1.000  H
  C312     1.0000 0.15392  0.72690  0.24178  Biso   1.000  C
  H317     1.0000 0.22921  0.71612  0.36760  Biso   1.000  H
  H318     1.0000 0.24158  0.66730  0.33571  Biso   1.000  H
  H319     1.0000 0.30131  0.70059  0.35351  Biso   1.000  H
  H320     1.0000 0.28899  0.73240  0.23199  Biso   1.000  H
  H321     1.0000 0.33862  0.71209  0.27031  Biso   1.000  H
  H322     1.0000 0.27908  0.67740  0.25438  Biso   1.000  H
  H323     1.0000 0.06911  0.81881  0.38281  Biso   1.000  H
  H324     1.0000 0.93781  0.85100  0.28861  Biso   1.000  H
  H325     1.0000 0.13932  0.76152  0.34220  Biso   1.000  H
  H326     1.0000 0.05490  0.73051  0.22259  Biso   1.000  H
  H327     1.0000 0.95762  0.92920  0.33619  Biso   1.000  H
  H328     1.0000 0.17581  0.71642  0.21450  Biso   1.000  H
  C313     1.0000 0.62301  0.50581  0.71070  Biso   1.000  C
  C314     1.0000 0.59368  0.46071  0.73118  Biso   1.000  C
  O37      1.0000 0.61852  0.54859  0.74079  Biso   1.000  O
  H329     1.0000 0.66902  0.49890  0.70379  Biso   1.000  H
  H330     1.0000 0.60098  0.51370  0.68099  Biso   1.000  H
  O38      1.0000 0.62620  0.44302  0.77009  Biso   1.000  O
  H331     1.0000 0.54859  0.46861  0.73989  Biso   1.000  H
  H332     1.0000 0.59262  0.43341  0.70758  Biso   1.000  H
  Cs5      1.0000 0.66573  0.52395  0.83638  Biso   1.000  Cs
  C315     1.0000 0.64698  0.59430  0.72438  Biso   1.000  C
  C316     1.0000 0.59948  0.39959  0.79098  Biso   1.000  C
  O39      1.0000 0.68762  0.48941  0.92899  Biso   1.000  O
  O40      1.0000 0.64070  0.41569  0.86630  Biso   1.000  O
  O41      1.0000 0.65210  0.62459  0.80233  Biso   1.000  O
  C317     1.0000 0.79428  0.61131  0.83781  Biso   1.000  C
  C318     1.0000 0.80892  0.57581  0.80320  Biso   1.000  C
  C319     1.0000 0.82651  0.52711  0.81309  Biso   1.000  C
  C320     1.0000 0.82830  0.51169  0.85988  Biso   1.000  C
  C321     1.0000 0.50732  0.56192  0.83899  Biso   1.000  C
  C322     1.0000 0.50418  0.51230  0.85499  Biso   1.000  C
  C323     1.0000 0.52540  0.50152  0.89889  Biso   1.000  C
  C324     1.0000 0.63601  0.63560  0.75520  Biso   1.000  C
  H333     1.0000 0.69410  0.58921  0.72070  Biso   1.000  H
  H334     1.0000 0.62881  0.60261  0.69359  Biso   1.000  H
  C325     1.0000 0.63848  0.38061  0.82968  Biso   1.000  C
  H335     1.0000 0.59532  0.37249  0.76728  Biso   1.000  H
  H336     1.0000 0.55560  0.40771  0.80240  Biso   1.000  H
  C326     1.0000 0.69371  0.52399  0.96619  Biso   1.000  C
  C327     1.0000 0.67709  0.43801  0.94297  Biso   1.000  C
  C328     1.0000 0.68110  0.40289  0.90278  Biso   1.000  C
  C329     1.0000 0.65389  0.66521  0.83350  Biso   1.000  C
  C330     1.0000 0.80051  0.59570  0.88449  Biso   1.000  C
  C331     1.0000 0.77572  0.66552  0.82420  Biso   1.000  C
  H337     1.0000 0.80650  0.58610  0.77168  Biso   1.000  H
  H338     1.0000 0.83719  0.50399  0.78900  Biso   1.000  H
  H339     1.0000 0.84048  0.47779  0.86700  Biso   1.000  H
  C332     1.0000 0.81269  0.54491  0.89639  Biso   1.000  C
  C333     1.0000 0.52858  0.60181  0.86689  Biso   1.000  C
  H340     1.0000 0.49452  0.56890  0.80799  Biso   1.000  H
  H341     1.0000 0.48751  0.48611  0.83569  Biso   1.000  H
  C334     1.0000 0.54782  0.53872  0.92850  Biso   1.000  C
  H342     1.0000 0.52462  0.46720  0.90927  Biso   1.000  H
  H343     1.0000 0.58991  0.64540  0.75350  Biso   1.000  H
  H344     1.0000 0.66191  0.66510  0.74468  Biso   1.000  H
  H345     1.0000 0.62002  0.34830  0.84110  Biso   1.000  H
  H346     1.0000 0.68298  0.37381  0.81868  Biso   1.000  H
  C335     1.0000 0.75692  0.54191  0.97640  Biso   1.000  C
  C336     1.0000 0.63988  0.54111  0.99018  Biso   1.000  C
  H347     1.0000 0.63389  0.43508  0.95748  Biso   1.000  H
  H348     1.0000 0.70981  0.42829  0.96640  Biso   1.000  H
  H349     1.0000 0.72628  0.40240  0.89140  Biso   1.000  H
  H350     1.0000 0.67032  0.36820  0.91340  Biso   1.000  H
  C337     1.0000 0.59721  0.68142  0.85440  Biso   1.000  C
  C338     1.0000 0.71348  0.68571  0.84509  Biso   1.000  C
  O42      1.0000 0.79418  0.63169  0.91902  Biso   1.000  O
  H351     1.0000 0.81139  0.68841  0.83329  Biso   1.000  H
  H352     1.0000 0.77190  0.66700  0.78987  Biso   1.000  H
  C339     1.0000 0.81400  0.52711  0.94599  Biso   1.000  C
  C340     1.0000 0.54502  0.58982  0.91357  Biso   1.000  C
  C341     1.0000 0.53240  0.65470  0.84690  Biso   1.000  C
  C342     1.0000 0.57150  0.52570  0.97758  Biso   1.000  C
  C343     1.0000 0.76499  0.57349  0.01291  Biso   1.000  C
  C344     1.0000 0.64998  0.57422  0.02711  Biso   1.000  C
  C345     1.0000 0.60020  0.72390  0.88300  Biso   1.000  C
  C346     1.0000 0.71488  0.72690  0.87470  Biso   1.000  C
  C347     1.0000 0.85700  0.65360  0.92850  Biso   1.000  C
  H353     1.0000 0.85382  0.54039  0.96067  Biso   1.000  H
  H354     1.0000 0.81728  0.48960  0.94599  Biso   1.000  H
  O43      1.0000 0.56058  0.62702  0.94450  Biso   1.000  O
  H355     1.0000 0.49780  0.67561  0.86089  Biso   1.000  H
  H356     1.0000 0.52390  0.65280  0.81309  Biso   1.000  H
  H357     1.0000 0.56768  0.48850  0.98178  Biso   1.000  H
  H358     1.0000 0.54168  0.54180  0.00010  Biso   1.000  H
  C348     1.0000 0.71222  0.58970  0.03880  Biso   1.000  C
  H359     1.0000 0.80718  0.58481  0.02089  Biso   1.000  H
  H360     1.0000 0.61412  0.58629  0.04439  Biso   1.000  H
  C349     1.0000 0.65761  0.74611  0.89289  Biso   1.000  C
  H361     1.0000 0.56159  0.73742  0.89580  Biso   1.000  H
  H362     1.0000 0.75499  0.74220  0.88258  Biso   1.000  H
  C350     1.0000 0.85270  0.68822  0.97078  Biso   1.000  C
  H363     1.0000 0.87179  0.67330  0.90129  Biso   1.000  H
  H364     1.0000 0.88871  0.62619  0.93440  Biso   1.000  H
  C351     1.0000 0.50631  0.65659  0.96078  Biso   1.000  C
  H365     1.0000 0.71860  0.61142  0.06470  Biso   1.000  H
  H366     1.0000 0.65868  0.77511  0.91250  Biso   1.000  H
  O44      1.0000 0.82100  0.73309  0.95925  Biso   1.000  O
  H367     1.0000 0.82888  0.67072  0.99597  Biso   1.000  H
  H368     1.0000 0.89668  0.69592  0.98219  Biso   1.000  H
  H369     1.0000 0.48161  0.66882  0.93360  Biso   1.000  H
  H370     1.0000 0.52279  0.68670  0.97747  Biso   1.000  H
  C352     1.0000 0.46030  0.62751  0.99288  Biso   1.000  C
  C353     1.0000 0.81540  0.76911  0.99479  Biso   1.000  C
  H371     1.0000 0.42111  0.64820  0.99809  Biso   1.000  H
  H372     1.0000 0.44691  0.59570  0.97737  Biso   1.000  H
  O45      1.0000 0.48838  0.61522  0.03690  Biso   1.000  O
  C354     1.0000 0.77229  0.80920  0.98730  Biso   1.000  C
  C355     1.0000 0.84951  0.76680  0.03651  Biso   1.000  C
  C356     1.0000 0.49249  0.65280  0.07022  Biso   1.000  C
  H373     1.0000 0.74822  0.81049  0.95929  Biso   1.000  H
  C357     1.0000 0.76441  0.84652  0.02010  Biso   1.000  C
  H374     1.0000 0.87832  0.73962  0.04269  Biso   1.000  H
  C358     1.0000 0.84028  0.80480  0.06820  Biso   1.000  C
  C359     1.0000 0.52298  0.63981  0.10989  Biso   1.000  C
  C360     1.0000 0.46629  0.70071  0.06598  Biso   1.000  C
  C361     1.0000 0.79911  0.84481  0.06178  Biso   1.000  C
  H375     1.0000 0.73532  0.87370  0.01440  Biso   1.000  H
  H376     1.0000 0.86401  0.80332  0.09639  Biso   1.000  H
  H377     1.0000 0.53960  0.60641  0.11339  Biso   1.000  H
  C362     1.0000 0.53052  0.67451  0.14571  Biso   1.000  C
  C363     1.0000 0.47311  0.73582  0.10260  Biso   1.000  C
  H378     1.0000 0.44382  0.71001  0.03849  Biso   1.000  H
  C364     1.0000 0.79051  0.88551  0.10059  Biso   1.000  C
  H379     1.0000 0.55260  0.66441  0.17299  Biso   1.000  H
  C365     1.0000 0.50640  0.72341  0.14252  Biso   1.000  C
  H380     1.0000 0.45440  0.76862  0.09968  Biso   1.000  H
  C366     1.0000 0.72889  0.91720  0.09479  Biso   1.000  C
  C367     1.0000 0.79442  0.85810  0.14599  Biso   1.000  C
  C368     1.0000 0.84768  0.92362  0.09691  Biso   1.000  C
  C369     1.0000 0.51109  0.76061  0.18371  Biso   1.000  C
  N17      1.0000 0.66820  0.89412  0.09510  Biso   1.000  N
  C370     1.0000 0.71879  0.96750  0.08979  Biso   1.000  C
  N18      1.0000 0.75750  0.81459  0.15209  Biso   1.000  N
  C371     1.0000 0.83782  0.85833  0.18080  Biso   1.000  C
  H381     1.0000 0.84430  0.94890  0.12169  Biso   1.000  H
  H382     1.0000 0.84628  0.94070  0.06671  Biso   1.000  H
  H383     1.0000 0.88871  0.90521  0.09989  Biso   1.000  H
  C372     1.0000 0.50481  0.81611  0.16869  Biso   1.000  C
  C373     1.0000 0.57469  0.75002  0.20930  Biso   1.000  C
  C374     1.0000 0.45571  0.74740  0.21738  Biso   1.000  C
  H384     1.0000 0.66129  0.86121  0.09791  Biso   1.000  H
  C375     1.0000 0.62021  0.93049  0.09010  Biso   1.000  C
  C376     1.0000 0.65191  0.97612  0.08649  Biso   1.000  C
  H385     1.0000 0.75141  0.99283  0.08872  Biso   1.000  H
  H386     1.0000 0.72488  0.80541  0.13429  Biso   1.000  H
  C377     1.0000 0.77901  0.78810  0.18958  Biso   1.000  C
  H387     1.0000 0.86962  0.88372  0.18590  Biso   1.000  H
  C378     1.0000 0.82849  0.81531  0.20818  Biso   1.000  C
  N19      1.0000 0.54009  0.83562  0.13349  Biso   1.000  N
  C379     1.0000 0.46678  0.85381  0.18590  Biso   1.000  C
  N20      1.0000 0.63350  0.75199  0.18680  Biso   1.000  N
  C380     1.0000 0.58629  0.73491  0.25369  Biso   1.000  C
  H388     1.0000 0.45900  0.76862  0.24529  Biso   1.000  H
  H389     1.0000 0.45861  0.71149  0.22620  Biso   1.000  H
  H390     1.0000 0.41410  0.75359  0.20221  Biso   1.000  H
  C381     1.0000 0.54999  0.91720  0.08601  Biso   1.000  C
  H391     1.0000 0.63190  0.00831  0.08240  Biso   1.000  H
  C382     1.0000 0.75132  0.73559  0.20121  Biso   1.000  C
  H392     1.0000 0.85251  0.80651  0.23508  Biso   1.000  H
  H393     1.0000 0.56908  0.81881  0.11721  Biso   1.000  H
  C383     1.0000 0.52380  0.88611  0.12690  Biso   1.000  C
  H394     1.0000 0.43778  0.85100  0.21141  Biso   1.000  H
  C384     1.0000 0.47818  0.89720  0.15970  Biso   1.000  C
  H395     1.0000 0.63930  0.76152  0.15779  Biso   1.000  H
  C385     1.0000 0.68158  0.73711  0.21641  Biso   1.000  C
  C386     1.0000 0.65389  0.72690  0.25820  Biso   1.000  C
  H396     1.0000 0.55492  0.73051  0.27739  Biso   1.000  H
  C387     1.0000 0.51090  0.96621  0.08191  Biso   1.000  C
  C388     1.0000 0.54081  0.88642  0.04009  Biso   1.000  C
  C389     1.0000 0.75629  0.70181  0.15699  Biso   1.000  C
  C390     1.0000 0.79331  0.71232  0.23960  Biso   1.000  C
  H397     1.0000 0.45759  0.92920  0.16379  Biso   1.000  H
  H398     1.0000 0.67578  0.71642  0.28548  Biso   1.000  H
  H399     1.0000 0.51960  0.98781  0.10888  Biso   1.000  H
  H400     1.0000 0.46470  0.95801  0.08080  Biso   1.000  H
  H401     1.0000 0.52322  0.98409  0.05349  Biso   1.000  H
  H402     1.0000 0.56232  0.85339  0.04300  Biso   1.000  H
  H403     1.0000 0.55990  0.90532  0.01409  Biso   1.000  H
  H404     1.0000 0.49461  0.88129  0.03429  Biso   1.000  H
  H405     1.0000 0.72918  0.71612  0.13241  Biso   1.000  H
  H406     1.0000 0.74160  0.66730  0.16431  Biso   1.000  H
  H407     1.0000 0.80129  0.70059  0.14651  Biso   1.000  H
  H408     1.0000 0.78901  0.73240  0.26799  Biso   1.000  H
  H409     1.0000 0.83859  0.71209  0.22970  Biso   1.000  H
  H410     1.0000 0.77910  0.67740  0.24560  Biso   1.000  H
  C391     1.0000 0.37699  0.49419  0.28930  Biso   1.000  C
  O46      1.0000 0.38148  0.45141  0.25921  Biso   1.000  O
  C392     1.0000 0.40632  0.53929  0.26879  Biso   1.000  C
  H411     1.0000 0.33098  0.50110  0.29621  Biso   1.000  H
  H412     1.0000 0.39902  0.48630  0.31901  Biso   1.000  H
  Cs6      1.0000 0.33427  0.47605  0.16362  Biso   1.000  Cs
  C393     1.0000 0.35302  0.40570  0.27559  Biso   1.000  C
  O47      1.0000 0.37380  0.55702  0.22991  Biso   1.000  O
  H413     1.0000 0.45141  0.53139  0.26011  Biso   1.000  H
  H414     1.0000 0.40738  0.56659  0.29239  Biso   1.000  H
  C394     1.0000 0.20572  0.38869  0.16219  Biso   1.000  C
  C395     1.0000 0.19108  0.42419  0.19680  Biso   1.000  C
  O48      1.0000 0.31238  0.51059  0.07101  Biso   1.000  O
  O49      1.0000 0.35930  0.58431  0.13370  Biso   1.000  O
  O50      1.0000 0.34790  0.37541  0.19763  Biso   1.000  O
  C396     1.0000 0.17349  0.47289  0.18691  Biso   1.000  C
  C397     1.0000 0.17170  0.48831  0.14009  Biso   1.000  C
  C398     1.0000 0.49268  0.43812  0.16101  Biso   1.000  C
  C399     1.0000 0.49582  0.48770  0.14501  Biso   1.000  C
  C400     1.0000 0.47460  0.49852  0.10111  Biso   1.000  C
  C401     1.0000 0.36399  0.36440  0.24480  Biso   1.000  C
  H415     1.0000 0.30590  0.41079  0.27930  Biso   1.000  H
  H416     1.0000 0.37119  0.39739  0.30641  Biso   1.000  H
  C402     1.0000 0.40052  0.60041  0.20898  Biso   1.000  C
  C403     1.0000 0.22428  0.33448  0.17580  Biso   1.000  C
  C404     1.0000 0.19949  0.40430  0.11551  Biso   1.000  C
  H417     1.0000 0.19350  0.41390  0.22828  Biso   1.000  H
  C405     1.0000 0.30629  0.47601  0.03381  Biso   1.000  C
  C406     1.0000 0.32291  0.56199  0.05699  Biso   1.000  C
  C407     1.0000 0.31890  0.59711  0.09719  Biso   1.000  C
  C408     1.0000 0.36152  0.61939  0.17028  Biso   1.000  C
  C409     1.0000 0.34611  0.33479  0.16650  Biso   1.000  C
  H418     1.0000 0.16281  0.49601  0.21100  Biso   1.000  H
  C410     1.0000 0.18731  0.45509  0.10361  Biso   1.000  C
  H419     1.0000 0.15952  0.52221  0.13300  Biso   1.000  H
  C411     1.0000 0.47142  0.39819  0.13311  Biso   1.000  C
  H420     1.0000 0.50548  0.43110  0.19201  Biso   1.000  H
  H421     1.0000 0.51249  0.51389  0.16431  Biso   1.000  H
  C412     1.0000 0.45218  0.46132  0.07150  Biso   1.000  C
  H422     1.0000 0.47538  0.53280  0.09069  Biso   1.000  H
  H423     1.0000 0.41009  0.35460  0.24650  Biso   1.000  H
  H424     1.0000 0.33809  0.33490  0.25528  Biso   1.000  H
  H425     1.0000 0.40468  0.62751  0.23269  Biso   1.000  H
  H426     1.0000 0.44440  0.59229  0.19760  Biso   1.000  H
  C413     1.0000 0.28652  0.31429  0.15491  Biso   1.000  C
  H427     1.0000 0.18861  0.31159  0.16671  Biso   1.000  H
  H428     1.0000 0.22810  0.33300  0.21009  Biso   1.000  H
  O51      1.0000 0.20582  0.36831  0.08098  Biso   1.000  O
  C414     1.0000 0.24308  0.45809  0.02360  Biso   1.000  C
  C415     1.0000 0.36012  0.45889  0.00979  Biso   1.000  C
  H429     1.0000 0.36611  0.56492  0.04248  Biso   1.000  H
  H430     1.0000 0.29019  0.57171  0.03360  Biso   1.000  H
  H431     1.0000 0.27372  0.59760  0.10860  Biso   1.000  H
  H432     1.0000 0.32968  0.63180  0.08660  Biso   1.000  H
  H433     1.0000 0.37998  0.65170  0.15890  Biso   1.000  H
  H434     1.0000 0.31702  0.62619  0.18128  Biso   1.000  H
  C416     1.0000 0.40279  0.31862  0.14560  Biso   1.000  C
  C417     1.0000 0.18600  0.47289  0.05401  Biso   1.000  C
  C418     1.0000 0.46760  0.34530  0.15310  Biso   1.000  C
  C419     1.0000 0.45498  0.41022  0.08639  Biso   1.000  C
  C420     1.0000 0.42850  0.47430  0.02239  Biso   1.000  C
  C421     1.0000 0.28512  0.27310  0.12530  Biso   1.000  C
  C422     1.0000 0.14300  0.34640  0.07150  Biso   1.000  C
  C423     1.0000 0.23501  0.42651  0.98709  Biso   1.000  C
  C424     1.0000 0.35002  0.42582  0.97289  Biso   1.000  C
  C425     1.0000 0.39980  0.27610  0.11700  Biso   1.000  C
  H435     1.0000 0.14618  0.45961  0.03929  Biso   1.000  H
  H436     1.0000 0.18272  0.51040  0.05401  Biso   1.000  H
  H437     1.0000 0.50220  0.32439  0.13911  Biso   1.000  H
  H438     1.0000 0.47610  0.34720  0.18691  Biso   1.000  H
  O52      1.0000 0.43942  0.37302  0.05546  Biso   1.000  O
  H439     1.0000 0.43232  0.51150  0.01819  Biso   1.000  H
  H440     1.0000 0.45832  0.45820  0.99990  Biso   1.000  H
  H441     1.0000 0.24501  0.25780  0.11739  Biso   1.000  H
  C426     1.0000 0.34239  0.25389  0.10711  Biso   1.000  C
  C427     1.0000 0.14730  0.31178  0.02919  Biso   1.000  C
  H442     1.0000 0.12821  0.32670  0.09871  Biso   1.000  H
  H443     1.0000 0.11129  0.37381  0.06560  Biso   1.000  H
  C428     1.0000 0.28778  0.41030  0.96120  Biso   1.000  C
  H444     1.0000 0.19282  0.41519  0.97907  Biso   1.000  H
  H445     1.0000 0.38588  0.41371  0.95557  Biso   1.000  H
  H446     1.0000 0.43841  0.26258  0.10420  Biso   1.000  H
  C429     1.0000 0.49369  0.34341  0.03919  Biso   1.000  C
  H447     1.0000 0.34132  0.22489  0.08750  Biso   1.000  H
  O53      1.0000 0.17900  0.26691  0.04075  Biso   1.000  O
  H448     1.0000 0.17112  0.32928  0.00399  Biso   1.000  H
  H449     1.0000 0.10332  0.30412  0.01781  Biso   1.000  H
  H450     1.0000 0.28140  0.38862  0.93530  Biso   1.000  H
  H451     1.0000 0.51839  0.33122  0.06640  Biso   1.000  H
  H452     1.0000 0.47721  0.31330  0.02249  Biso   1.000  H
  C430     1.0000 0.53970  0.37249  0.00712  Biso   1.000  C
  C431     1.0000 0.18460  0.23089  0.00521  Biso   1.000  C
  H453     1.0000 0.57889  0.35180  0.00191  Biso   1.000  H
  H454     1.0000 0.55309  0.40430  0.02260  Biso   1.000  H
  O54      1.0000 0.51162  0.38478  0.96310  Biso   1.000  O
  C432     1.0000 0.22771  0.19080  0.01270  Biso   1.000  C
  C433     1.0000 0.15049  0.23320  0.96349  Biso   1.000  C
  C434     1.0000 0.50751  0.34720  0.92978  Biso   1.000  C
  H455     1.0000 0.25178  0.18951  0.04071  Biso   1.000  H
  C435     1.0000 0.23559  0.15352  0.97990  Biso   1.000  C
  H456     1.0000 0.12168  0.26042  0.95727  Biso   1.000  H
  C436     1.0000 0.15972  0.19520  0.93180  Biso   1.000  C
  C437     1.0000 0.47702  0.36019  0.89008  Biso   1.000  C
  C438     1.0000 0.53371  0.29929  0.93398  Biso   1.000  C
  C439     1.0000 0.20089  0.15519  0.93818  Biso   1.000  C
  H457     1.0000 0.26468  0.12630  0.98560  Biso   1.000  H
  H458     1.0000 0.13599  0.19672  0.90358  Biso   1.000  H
  H459     1.0000 0.46040  0.39359  0.88657  Biso   1.000  H
  C440     1.0000 0.46948  0.32549  0.85429  Biso   1.000  C
  C441     1.0000 0.52689  0.26422  0.89740  Biso   1.000  C
  H460     1.0000 0.55618  0.28999  0.96147  Biso   1.000  H
  C442     1.0000 0.20949  0.11449  0.89938  Biso   1.000  C
  H461     1.0000 0.44740  0.33559  0.82698  Biso   1.000  H
  C443     1.0000 0.49360  0.27659  0.85748  Biso   1.000  C
  H462     1.0000 0.54560  0.23142  0.90028  Biso   1.000  H
  C444     1.0000 0.27111  0.08280  0.90518  Biso   1.000  C
  C445     1.0000 0.20558  0.14190  0.85398  Biso   1.000  C
  C446     1.0000 0.15232  0.07642  0.90309  Biso   1.000  C
  C447     1.0000 0.48891  0.23939  0.81629  Biso   1.000  C
  N21      1.0000 0.33180  0.10591  0.90490  Biso   1.000  N
  C448     1.0000 0.28121  0.03250  0.91017  Biso   1.000  C
  N22      1.0000 0.24250  0.18541  0.84791  Biso   1.000  N
  C449     1.0000 0.16218  0.14171  0.81920  Biso   1.000  C
  H463     1.0000 0.15570  0.05110  0.87828  Biso   1.000  H
  H464     1.0000 0.15372  0.05930  0.93329  Biso   1.000  H
  H465     1.0000 0.11129  0.09479  0.90007  Biso   1.000  H
  C450     1.0000 0.49519  0.18389  0.83128  Biso   1.000  C
  C451     1.0000 0.42531  0.25002  0.79070  Biso   1.000  C
  C452     1.0000 0.54429  0.25260  0.78258  Biso   1.000  C
  H466     1.0000 0.33871  0.13879  0.90209  Biso   1.000  H
  C453     1.0000 0.37979  0.06951  0.90990  Biso   1.000  C
  C454     1.0000 0.34809  0.02392  0.91347  Biso   1.000  C
  H467     1.0000 0.24859  0.00721  0.91128  Biso   1.000  H
  H468     1.0000 0.27512  0.19459  0.86568  Biso   1.000  H
  C455     1.0000 0.22099  0.21190  0.81038  Biso   1.000  C
  H469     1.0000 0.13038  0.11632  0.81410  Biso   1.000  H
  C456     1.0000 0.17151  0.18469  0.79178  Biso   1.000  C
  N23      1.0000 0.45991  0.16441  0.86647  Biso   1.000  N
  C457     1.0000 0.53322  0.14619  0.81410  Biso   1.000  C
  N24      1.0000 0.36650  0.24801  0.81320  Biso   1.000  N
  C458     1.0000 0.41371  0.26509  0.74628  Biso   1.000  C
  H470     1.0000 0.54100  0.23142  0.75468  Biso   1.000  H
  H471     1.0000 0.54139  0.28851  0.77380  Biso   1.000  H
  H472     1.0000 0.58590  0.24641  0.79779  Biso   1.000  H
  C459     1.0000 0.45001  0.08280  0.91399  Biso   1.000  C
  H473     1.0000 0.36810  0.99172  0.91760  Biso   1.000  H
  C460     1.0000 0.24868  0.26441  0.79879  Biso   1.000  C
  H474     1.0000 0.14749  0.19349  0.76488  Biso   1.000  H
  C461     1.0000 0.47620  0.11389  0.87310  Biso   1.000  C
  H475     1.0000 0.43092  0.18119  0.88279  Biso   1.000  H
  H476     1.0000 0.56222  0.14900  0.78859  Biso   1.000  H
  C462     1.0000 0.52182  0.10280  0.84030  Biso   1.000  C
  C463     1.0000 0.31842  0.26289  0.78359  Biso   1.000  C
  H477     1.0000 0.36070  0.23852  0.84218  Biso   1.000  H
  C464     1.0000 0.34611  0.27310  0.74180  Biso   1.000  C
  H478     1.0000 0.44508  0.26949  0.72261  Biso   1.000  H
  C465     1.0000 0.48910  0.03379  0.91809  Biso   1.000  C
  C466     1.0000 0.45919  0.11358  0.95988  Biso   1.000  C
  C467     1.0000 0.24371  0.29819  0.84298  Biso   1.000  C
  C468     1.0000 0.20669  0.28772  0.76040  Biso   1.000  C
  H479     1.0000 0.54241  0.07080  0.83617  Biso   1.000  H
  H480     1.0000 0.32422  0.28362  0.71448  Biso   1.000  H
  H481     1.0000 0.48040  0.01219  0.89108  Biso   1.000  H
  H482     1.0000 0.53530  0.04199  0.91920  Biso   1.000  H
  H483     1.0000 0.47678  0.01591  0.94648  Biso   1.000  H
  H484     1.0000 0.43768  0.14661  0.95700  Biso   1.000  H
  H485     1.0000 0.44010  0.09472  0.98587  Biso   1.000  H
  H486     1.0000 0.50539  0.11871  0.96567  Biso   1.000  H
  H487     1.0000 0.27082  0.28392  0.86759  Biso   1.000  H
  H488     1.0000 0.25840  0.33270  0.83569  Biso   1.000  H
  H489     1.0000 0.19871  0.29941  0.85349  Biso   1.000  H
  H490     1.0000 0.21099  0.26760  0.73198  Biso   1.000  H
  H491     1.0000 0.16141  0.28791  0.77030  Biso   1.000  H
  H492     1.0000 0.22090  0.32260  0.75440  Biso   1.000  H
  C469     1.0000 0.72430  0.16552  0.82420  Biso   1.000  C
  C470     1.0000 0.70570  0.11131  0.83781  Biso   1.000  C
  C471     1.0000 0.78650  0.18571  0.84509  Biso   1.000  C
  H493     1.0000 0.68859  0.18841  0.83329  Biso   1.000  H
  H494     1.0000 0.72812  0.16700  0.78987  Biso   1.000  H
  Cs7      1.0000 0.83429  0.02395  0.83638  Biso   1.000  Cs
  C472     1.0000 0.69110  0.07581  0.80320  Biso   1.000  C
  C473     1.0000 0.69951  0.09570  0.88449  Biso   1.000  C
  C474     1.0000 0.84608  0.16521  0.83350  Biso   1.000  C
  C475     1.0000 0.78510  0.22690  0.87470  Biso   1.000  C
  O55      1.0000 0.88151  0.04859  0.74079  Biso   1.000  O
  O56      1.0000 0.84792  0.12459  0.80233  Biso   1.000  O
  C476     1.0000 0.67351  0.02711  0.81309  Biso   1.000  C
  C477     1.0000 0.67168  0.01169  0.85988  Biso   1.000  C
  C478     1.0000 0.99270  0.06192  0.83899  Biso   1.000  C
  C479     1.0000 0.99580  0.01230  0.85499  Biso   1.000  C
  C480     1.0000 0.97458  0.00152  0.89889  Biso   1.000  C
  O57      1.0000 0.81240  0.98941  0.92899  Biso   1.000  O
  O58      1.0000 0.85928  0.91572  0.86630  Biso   1.000  O
  O59      1.0000 0.87382  0.94302  0.77009  Biso   1.000  O
  H495     1.0000 0.69352  0.08610  0.77168  Biso   1.000  H
  C481     1.0000 0.68729  0.04491  0.89639  Biso   1.000  C
  O60      1.0000 0.70579  0.13169  0.91902  Biso   1.000  O
  C482     1.0000 0.90282  0.18138  0.85440  Biso   1.000  C
  C483     1.0000 0.84241  0.24611  0.89289  Biso   1.000  C
  H496     1.0000 0.74499  0.24220  0.88258  Biso   1.000  H
  C484     1.0000 0.85299  0.09430  0.72438  Biso   1.000  C
  C485     1.0000 0.87701  0.00581  0.71070  Biso   1.000  C
  C486     1.0000 0.86401  0.13560  0.75520  Biso   1.000  C
  H497     1.0000 0.66278  0.00399  0.78900  Biso   1.000  H
  H498     1.0000 0.65950  0.97779  0.86700  Biso   1.000  H
  C487     1.0000 0.97139  0.10181  0.86689  Biso   1.000  C
  H499     1.0000 0.00551  0.06890  0.80799  Biso   1.000  H
  H500     1.0000 0.01252  0.98611  0.83569  Biso   1.000  H
  C488     1.0000 0.95221  0.03868  0.92850  Biso   1.000  C
  H501     1.0000 0.97540  0.96720  0.90927  Biso   1.000  H
  C489     1.0000 0.80631  0.02399  0.96619  Biso   1.000  C
  C490     1.0000 0.82289  0.93801  0.94297  Biso   1.000  C
  C491     1.0000 0.81888  0.90289  0.90278  Biso   1.000  C
  C492     1.0000 0.86150  0.88061  0.82968  Biso   1.000  C
  C493     1.0000 0.90630  0.96071  0.73118  Biso   1.000  C
  C494     1.0000 0.90050  0.89959  0.79098  Biso   1.000  C
  C495     1.0000 0.68598  0.02711  0.94599  Biso   1.000  C
  C496     1.0000 0.64302  0.15360  0.92850  Biso   1.000  C
  C497     1.0000 0.96762  0.15470  0.84690  Biso   1.000  C
  C498     1.0000 0.89982  0.22390  0.88300  Biso   1.000  C
  H502     1.0000 0.84130  0.27511  0.91250  Biso   1.000  H
  H503     1.0000 0.80588  0.08921  0.72070  Biso   1.000  H
  H504     1.0000 0.87121  0.10261  0.69359  Biso   1.000  H
  H505     1.0000 0.89900  0.01370  0.68099  Biso   1.000  H
  H506     1.0000 0.83101  0.99890  0.70379  Biso   1.000  H
  H507     1.0000 0.91011  0.14540  0.75350  Biso   1.000  H
  H508     1.0000 0.83811  0.16510  0.74468  Biso   1.000  H
  C499     1.0000 0.95501  0.08982  0.91357  Biso   1.000  C
  C500     1.0000 0.92848  0.02570  0.97758  Biso   1.000  C
  C501     1.0000 0.74310  0.04191  0.97640  Biso   1.000  C
  C502     1.0000 0.86010  0.04111  0.99018  Biso   1.000  C
  H509     1.0000 0.86609  0.93512  0.95748  Biso   1.000  H
  H510     1.0000 0.79022  0.92829  0.96640  Biso   1.000  H
  H511     1.0000 0.77369  0.90240  0.89140  Biso   1.000  H
  H512     1.0000 0.82970  0.86820  0.91340  Biso   1.000  H
  H513     1.0000 0.88001  0.84830  0.84110  Biso   1.000  H
  H514     1.0000 0.81699  0.87381  0.81868  Biso   1.000  H
  H515     1.0000 0.95138  0.96861  0.73989  Biso   1.000  H
  H516     1.0000 0.90741  0.93341  0.70758  Biso   1.000  H
  H517     1.0000 0.90470  0.87252  0.76728  Biso   1.000  H
  H518     1.0000 0.94438  0.90771  0.80240  Biso   1.000  H
  H519     1.0000 0.64621  0.04039  0.96067  Biso   1.000  H
  H520     1.0000 0.68269  0.98960  0.94599  Biso   1.000  H
  C503     1.0000 0.64732  0.18822  0.97078  Biso   1.000  C
  H521     1.0000 0.62818  0.17330  0.90129  Biso   1.000  H
  H522     1.0000 0.61132  0.12619  0.93440  Biso   1.000  H
  H523     1.0000 0.97608  0.15280  0.81309  Biso   1.000  H
  H524     1.0000 0.00222  0.17561  0.86089  Biso   1.000  H
  H525     1.0000 0.93838  0.23742  0.89580  Biso   1.000  H
  O61      1.0000 0.93940  0.12698  0.94450  Biso   1.000  O
  H526     1.0000 0.93230  0.98850  0.98178  Biso   1.000  H
  H527     1.0000 0.95830  0.04180  0.00010  Biso   1.000  H
  C504     1.0000 0.73498  0.07349  0.01291  Biso   1.000  C
  C505     1.0000 0.85000  0.07422  0.02711  Biso   1.000  C
  O62      1.0000 0.67902  0.23309  0.95925  Biso   1.000  O
  H528     1.0000 0.67110  0.17072  0.99597  Biso   1.000  H
  H529     1.0000 0.60330  0.19588  0.98219  Biso   1.000  H
  C506     1.0000 0.99372  0.15659  0.96078  Biso   1.000  C
  C507     1.0000 0.78780  0.08970  0.03880  Biso   1.000  C
  H530     1.0000 0.69279  0.08481  0.02089  Biso   1.000  H
  H531     1.0000 0.88590  0.08629  0.04439  Biso   1.000  H
  C508     1.0000 0.68458  0.26911  0.99479  Biso   1.000  C
  H532     1.0000 0.97719  0.18670  0.97747  Biso   1.000  H
  H533     1.0000 0.01841  0.16882  0.93360  Biso   1.000  H
  C509     1.0000 0.03972  0.12751  0.99288  Biso   1.000  C
  H534     1.0000 0.78142  0.11142  0.06470  Biso   1.000  H
  C510     1.0000 0.72769  0.30920  0.98730  Biso   1.000  C
  C511     1.0000 0.65051  0.26680  0.03651  Biso   1.000  C
  H535     1.0000 0.07892  0.14820  0.99809  Biso   1.000  H
  H536     1.0000 0.05311  0.09570  0.97737  Biso   1.000  H
  O63      1.0000 0.01160  0.11522  0.03690  Biso   1.000  O
  H537     1.0000 0.75180  0.31049  0.95929  Biso   1.000  H
  C512     1.0000 0.73561  0.34652  0.02010  Biso   1.000  C
  H538     1.0000 0.62171  0.23962  0.04269  Biso   1.000  H
  C513     1.0000 0.65969  0.30480  0.06820  Biso   1.000  C
  C514     1.0000 0.00749  0.15280  0.07022  Biso   1.000  C
  C515     1.0000 0.70091  0.34481  0.06178  Biso   1.000  C
  H539     1.0000 0.76470  0.37370  0.01440  Biso   1.000  H
  H540     1.0000 0.63601  0.30332  0.09639  Biso   1.000  H
  C516     1.0000 0.97700  0.13981  0.10989  Biso   1.000  C
  C517     1.0000 0.03368  0.20071  0.06598  Biso   1.000  C
  C518     1.0000 0.70952  0.38551  0.10059  Biso   1.000  C
  H541     1.0000 0.96042  0.10641  0.11339  Biso   1.000  H
  C519     1.0000 0.96951  0.17451  0.14571  Biso   1.000  C
  C520     1.0000 0.02692  0.23578  0.10260  Biso   1.000  C
  H542     1.0000 0.05620  0.21001  0.03849  Biso   1.000  H
  C521     1.0000 0.77108  0.41720  0.09479  Biso   1.000  C
  C522     1.0000 0.70560  0.35810  0.14599  Biso   1.000  C
  C523     1.0000 0.65230  0.42362  0.09691  Biso   1.000  C
  H543     1.0000 0.94742  0.16441  0.17299  Biso   1.000  H
  C524     1.0000 0.99362  0.22341  0.14252  Biso   1.000  C
  H544     1.0000 0.04562  0.26862  0.09968  Biso   1.000  H
  N25      1.0000 0.83178  0.39409  0.09510  Biso   1.000  N
  C525     1.0000 0.78118  0.46750  0.08979  Biso   1.000  C
  N26      1.0000 0.74252  0.31459  0.15209  Biso   1.000  N
  C526     1.0000 0.66220  0.35829  0.18080  Biso   1.000  C
  H545     1.0000 0.65568  0.44890  0.12169  Biso   1.000  H
  H546     1.0000 0.65370  0.44070  0.06671  Biso   1.000  H
  H547     1.0000 0.61132  0.40521  0.09989  Biso   1.000  H
  C527     1.0000 0.98889  0.26061  0.18371  Biso   1.000  C
  H548     1.0000 0.83869  0.36121  0.09791  Biso   1.000  H
  C528     1.0000 0.87981  0.43049  0.09010  Biso   1.000  C
  C529     1.0000 0.84811  0.47612  0.08649  Biso   1.000  C
  H549     1.0000 0.74861  0.49279  0.08872  Biso   1.000  H
  H550     1.0000 0.77509  0.30541  0.13429  Biso   1.000  H
  C530     1.0000 0.72102  0.28810  0.18958  Biso   1.000  C
  H551     1.0000 0.63041  0.38372  0.18590  Biso   1.000  H
  C531     1.0000 0.67148  0.31531  0.20818  Biso   1.000  C
  C532     1.0000 0.99522  0.31611  0.16869  Biso   1.000  C
  C533     1.0000 0.92529  0.25002  0.20930  Biso   1.000  C
  C534     1.0000 0.04431  0.24740  0.21738  Biso   1.000  C
  C535     1.0000 0.94998  0.41720  0.08601  Biso   1.000  C
  H552     1.0000 0.86812  0.50831  0.08240  Biso   1.000  H
  C536     1.0000 0.74871  0.23559  0.20121  Biso   1.000  C
  H553     1.0000 0.64751  0.30651  0.23508  Biso   1.000  H
  N27      1.0000 0.95989  0.33559  0.13349  Biso   1.000  N
  C537     1.0000 0.03320  0.35381  0.18590  Biso   1.000  C
  N28      1.0000 0.86648  0.25199  0.18680  Biso   1.000  N
  C538     1.0000 0.91369  0.23491  0.25369  Biso   1.000  C
  H554     1.0000 0.04098  0.26862  0.24529  Biso   1.000  H
  H555     1.0000 0.04141  0.21149  0.22620  Biso   1.000  H
  H556     1.0000 0.08592  0.25359  0.20221  Biso   1.000  H
  C539     1.0000 0.97622  0.38611  0.12690  Biso   1.000  C
  C540     1.0000 0.98908  0.46621  0.08191  Biso   1.000  C
  C541     1.0000 0.95921  0.38642  0.04009  Biso   1.000  C
  C542     1.0000 0.81839  0.23711  0.21641  Biso   1.000  C
  C543     1.0000 0.74368  0.20181  0.15699  Biso   1.000  C
  C544     1.0000 0.70671  0.21228  0.23960  Biso   1.000  C
  H557     1.0000 0.93089  0.31881  0.11721  Biso   1.000  H
  H558     1.0000 0.06219  0.35100  0.21141  Biso   1.000  H
  C545     1.0000 0.02179  0.39720  0.15970  Biso   1.000  C
  H559     1.0000 0.86068  0.26148  0.15779  Biso   1.000  H
  C546     1.0000 0.84608  0.22690  0.25820  Biso   1.000  C
  H560     1.0000 0.94510  0.23051  0.27739  Biso   1.000  H
  H561     1.0000 0.98038  0.48781  0.10888  Biso   1.000  H
  H562     1.0000 0.97680  0.48409  0.05349  Biso   1.000  H
  H563     1.0000 0.03528  0.45801  0.08080  Biso   1.000  H
  H564     1.0000 0.93771  0.35339  0.04300  Biso   1.000  H
  H565     1.0000 0.94008  0.40528  0.01409  Biso   1.000  H
  H566     1.0000 0.00541  0.38129  0.03429  Biso   1.000  H
  H567     1.0000 0.77079  0.21612  0.13241  Biso   1.000  H
  H568     1.0000 0.75842  0.16730  0.16431  Biso   1.000  H
  H569     1.0000 0.69869  0.20059  0.14651  Biso   1.000  H
  H570     1.0000 0.71101  0.23240  0.26799  Biso   1.000  H
  H571     1.0000 0.66138  0.21209  0.22970  Biso   1.000  H
  H572     1.0000 0.72092  0.17740  0.24560  Biso   1.000  H
  H573     1.0000 0.04238  0.42920  0.16379  Biso   1.000  H
  H574     1.0000 0.82419  0.21638  0.28548  Biso   1.000  H
  C547     1.0000 0.27570  0.83452  0.17580  Biso   1.000  C
  C548     1.0000 0.29430  0.88869  0.16219  Biso   1.000  C
  C549     1.0000 0.21350  0.81429  0.15491  Biso   1.000  C
  H575     1.0000 0.31141  0.81159  0.16671  Biso   1.000  H
  H576     1.0000 0.27188  0.83300  0.21009  Biso   1.000  H
  C550     1.0000 0.30049  0.90430  0.11551  Biso   1.000  C
  Cs8      1.0000 0.16571  0.97605  0.16362  Biso   1.000  Cs
  C551     1.0000 0.30890  0.92419  0.19680  Biso   1.000  C
  C552     1.0000 0.15392  0.83479  0.16650  Biso   1.000  C
  C553     1.0000 0.21490  0.77310  0.12530  Biso   1.000  C
  O64      1.0000 0.29421  0.86831  0.08098  Biso   1.000  O
  C554     1.0000 0.31271  0.95509  0.10361  Biso   1.000  C
  C555     1.0000 0.32832  0.98831  0.14009  Biso   1.000  C
  O65      1.0000 0.11849  0.95141  0.25921  Biso   1.000  O
  O66      1.0000 0.15208  0.87541  0.19763  Biso   1.000  O
  C556     1.0000 0.32649  0.97289  0.18691  Biso   1.000  C
  C557     1.0000 0.00730  0.93812  0.16101  Biso   1.000  C
  C558     1.0000 0.00420  0.98770  0.14501  Biso   1.000  C
  C559     1.0000 0.02542  0.99852  0.10111  Biso   1.000  C
  O67      1.0000 0.18760  0.01059  0.07101  Biso   1.000  O
  O68      1.0000 0.14072  0.08431  0.13370  Biso   1.000  O
  O69      1.0000 0.12618  0.05702  0.22991  Biso   1.000  O
  H577     1.0000 0.30648  0.91390  0.22828  Biso   1.000  H
  C560     1.0000 0.09718  0.81862  0.14560  Biso   1.000  C
  H578     1.0000 0.25501  0.75780  0.11739  Biso   1.000  H
  C561     1.0000 0.15759  0.75389  0.10711  Biso   1.000  C
  C562     1.0000 0.35698  0.84640  0.07150  Biso   1.000  C
  C563     1.0000 0.31402  0.97289  0.05401  Biso   1.000  C
  H579     1.0000 0.34050  0.02221  0.13300  Biso   1.000  H
  C564     1.0000 0.12299  0.99419  0.28930  Biso   1.000  C
  C565     1.0000 0.14701  0.90570  0.27559  Biso   1.000  C
  C566     1.0000 0.13599  0.86440  0.24480  Biso   1.000  C
  H580     1.0000 0.33722  0.99601  0.21100  Biso   1.000  H
  C567     1.0000 0.02861  0.89822  0.13311  Biso   1.000  C
  H581     1.0000 0.99449  0.93110  0.19201  Biso   1.000  H
  H582     1.0000 0.98748  0.01389  0.16431  Biso   1.000  H
  C568     1.0000 0.04779  0.96132  0.07150  Biso   1.000  C
  H583     1.0000 0.02460  0.03280  0.09069  Biso   1.000  H
  C569     1.0000 0.19369  0.97601  0.03381  Biso   1.000  C
  C570     1.0000 0.17711  0.06199  0.05699  Biso   1.000  C
  C571     1.0000 0.18112  0.09711  0.09719  Biso   1.000  C
  C572     1.0000 0.13850  0.11939  0.17028  Biso   1.000  C
  C573     1.0000 0.09950  0.10041  0.20898  Biso   1.000  C
  C574     1.0000 0.09370  0.03929  0.26879  Biso   1.000  C
  C575     1.0000 0.03238  0.84530  0.15310  Biso   1.000  C
  C576     1.0000 0.10018  0.77610  0.11700  Biso   1.000  C
  H584     1.0000 0.15870  0.72489  0.08750  Biso   1.000  H
  C577     1.0000 0.35268  0.81182  0.02919  Biso   1.000  C
  H585     1.0000 0.37182  0.82670  0.09871  Biso   1.000  H
  H586     1.0000 0.38868  0.87381  0.06560  Biso   1.000  H
  H587     1.0000 0.35379  0.95961  0.03929  Biso   1.000  H
  C578     1.0000 0.25690  0.95809  0.02360  Biso   1.000  C
  H588     1.0000 0.31731  0.01040  0.05401  Biso   1.000  H
  H589     1.0000 0.10100  0.98630  0.31901  Biso   1.000  H
  H590     1.0000 0.16899  0.00110  0.29621  Biso   1.000  H
  H591     1.0000 0.19412  0.91079  0.27930  Biso   1.000  H
  H592     1.0000 0.12879  0.89739  0.30641  Biso   1.000  H
  H593     1.0000 0.08989  0.85460  0.24650  Biso   1.000  H
  H594     1.0000 0.16189  0.83490  0.25528  Biso   1.000  H
  C579     1.0000 0.04499  0.91022  0.08639  Biso   1.000  C
  C580     1.0000 0.07152  0.97430  0.02239  Biso   1.000  C
  C581     1.0000 0.13990  0.95892  0.00979  Biso   1.000  C
  H595     1.0000 0.13391  0.06492  0.04248  Biso   1.000  H
  H596     1.0000 0.20978  0.07171  0.03360  Biso   1.000  H
  H597     1.0000 0.22631  0.09760  0.10860  Biso   1.000  H
  H598     1.0000 0.17030  0.13180  0.08660  Biso   1.000  H
  H599     1.0000 0.11999  0.15170  0.15890  Biso   1.000  H
  H600     1.0000 0.18301  0.12619  0.18128  Biso   1.000  H
  H601     1.0000 0.09530  0.12751  0.23269  Biso   1.000  H
  H602     1.0000 0.05562  0.09229  0.19760  Biso   1.000  H
  H603     1.0000 0.04862  0.03139  0.26011  Biso   1.000  H
  H604     1.0000 0.09259  0.06659  0.29239  Biso   1.000  H
  H605     1.0000 0.02392  0.84720  0.18691  Biso   1.000  H
  H606     1.0000 0.99778  0.82442  0.13911  Biso   1.000  H
  H607     1.0000 0.06162  0.76262  0.10420  Biso   1.000  H
  O70      1.0000 0.32098  0.76691  0.04075  Biso   1.000  O
  H608     1.0000 0.32890  0.82932  0.00399  Biso   1.000  H
  H609     1.0000 0.39670  0.80412  0.01781  Biso   1.000  H
  C582     1.0000 0.26502  0.92651  0.98709  Biso   1.000  C
  O71      1.0000 0.06060  0.87302  0.05546  Biso   1.000  O
  H610     1.0000 0.04170  0.95820  0.99990  Biso   1.000  H
  H611     1.0000 0.06770  0.01150  0.01819  Biso   1.000  H
  C583     1.0000 0.15000  0.92582  0.97289  Biso   1.000  C
  C584     1.0000 0.31542  0.73092  0.00521  Biso   1.000  C
  C585     1.0000 0.21220  0.91030  0.96120  Biso   1.000  C
  H612     1.0000 0.30721  0.91519  0.97907  Biso   1.000  H
  C586     1.0000 0.00628  0.84341  0.03919  Biso   1.000  C
  H613     1.0000 0.11410  0.91371  0.95557  Biso   1.000  H
  C587     1.0000 0.27231  0.69080  0.01270  Biso   1.000  C
  C588     1.0000 0.34949  0.73320  0.96349  Biso   1.000  C
  H614     1.0000 0.21858  0.88862  0.93530  Biso   1.000  H
  H615     1.0000 0.02281  0.81330  0.02249  Biso   1.000  H
  H616     1.0000 0.98159  0.83122  0.06640  Biso   1.000  H
  C589     1.0000 0.96028  0.87252  0.00712  Biso   1.000  C
  H617     1.0000 0.24820  0.68951  0.04071  Biso   1.000  H
  C590     1.0000 0.26439  0.65352  0.97990  Biso   1.000  C
  H618     1.0000 0.37829  0.76042  0.95727  Biso   1.000  H
  C591     1.0000 0.34031  0.69520  0.93180  Biso   1.000  C
  O72      1.0000 0.98840  0.88482  0.96310  Biso   1.000  O
  H619     1.0000 0.92108  0.85180  0.00191  Biso   1.000  H
  H620     1.0000 0.94689  0.90430  0.02260  Biso   1.000  H
  C592     1.0000 0.29909  0.65519  0.93818  Biso   1.000  C
  H621     1.0000 0.23530  0.62630  0.98560  Biso   1.000  H
  H622     1.0000 0.36399  0.69672  0.90358  Biso   1.000  H
  C593     1.0000 0.99251  0.84720  0.92978  Biso   1.000  C
  C594     1.0000 0.29048  0.61449  0.89938  Biso   1.000  C
  C595     1.0000 0.96632  0.79929  0.93398  Biso   1.000  C
  C596     1.0000 0.02300  0.86022  0.89008  Biso   1.000  C
  C597     1.0000 0.22892  0.58280  0.90518  Biso   1.000  C
  C598     1.0000 0.29440  0.64190  0.85398  Biso   1.000  C
  C599     1.0000 0.34770  0.57642  0.90309  Biso   1.000  C
  C600     1.0000 0.97308  0.76422  0.89740  Biso   1.000  C
  H623     1.0000 0.94380  0.78999  0.96147  Biso   1.000  H
  C601     1.0000 0.03049  0.82549  0.85429  Biso   1.000  C
  H624     1.0000 0.03958  0.89359  0.88657  Biso   1.000  H
  N29      1.0000 0.16822  0.60591  0.90490  Biso   1.000  N
  C602     1.0000 0.21882  0.53250  0.91017  Biso   1.000  C
  N30      1.0000 0.25748  0.68541  0.84791  Biso   1.000  N
  C603     1.0000 0.33780  0.64171  0.81920  Biso   1.000  C
  H625     1.0000 0.34432  0.55110  0.87828  Biso   1.000  H
  H626     1.0000 0.34630  0.55930  0.93329  Biso   1.000  H
  H627     1.0000 0.38868  0.59479  0.90007  Biso   1.000  H
  C604     1.0000 0.00638  0.77659  0.85748  Biso   1.000  C
  H628     1.0000 0.95438  0.73142  0.90028  Biso   1.000  H
  H629     1.0000 0.05258  0.83562  0.82698  Biso   1.000  H
  H630     1.0000 0.16131  0.63879  0.90209  Biso   1.000  H
  C605     1.0000 0.12019  0.56951  0.90990  Biso   1.000  C
  C606     1.0000 0.15189  0.52392  0.91347  Biso   1.000  C
  H631     1.0000 0.25139  0.50721  0.91128  Biso   1.000  H
  H632     1.0000 0.22491  0.69459  0.86568  Biso   1.000  H
  C607     1.0000 0.27898  0.71190  0.81038  Biso   1.000  C
  H633     1.0000 0.36959  0.61632  0.81410  Biso   1.000  H
  C608     1.0000 0.32852  0.68472  0.79178  Biso   1.000  C
  C609     1.0000 0.01111  0.73939  0.81629  Biso   1.000  C
  C610     1.0000 0.05002  0.58280  0.91399  Biso   1.000  C
  H634     1.0000 0.13188  0.49169  0.91760  Biso   1.000  H
  C611     1.0000 0.25129  0.76441  0.79879  Biso   1.000  C
  H635     1.0000 0.35249  0.69349  0.76488  Biso   1.000  H
  C612     1.0000 0.00478  0.68389  0.83128  Biso   1.000  C
  C613     1.0000 0.07471  0.75002  0.79070  Biso   1.000  C
  C614     1.0000 0.95569  0.75260  0.78258  Biso   1.000  C
  C615     1.0000 0.02378  0.61389  0.87310  Biso   1.000  C
  C616     1.0000 0.01092  0.53379  0.91809  Biso   1.000  C
  C617     1.0000 0.04079  0.61362  0.95988  Biso   1.000  C
  C618     1.0000 0.18161  0.76289  0.78359  Biso   1.000  C
  C619     1.0000 0.25632  0.79819  0.84298  Biso   1.000  C
  C620     1.0000 0.29329  0.78772  0.76040  Biso   1.000  C
  N31      1.0000 0.04011  0.66441  0.86647  Biso   1.000  N
  C621     1.0000 0.96680  0.64619  0.81410  Biso   1.000  C
  N32      1.0000 0.13352  0.74801  0.81320  Biso   1.000  N
  C622     1.0000 0.08631  0.76509  0.74628  Biso   1.000  C
  H636     1.0000 0.95902  0.73142  0.75468  Biso   1.000  H
  H637     1.0000 0.95859  0.78851  0.77380  Biso   1.000  H
  H638     1.0000 0.91408  0.74641  0.79779  Biso   1.000  H
  C623     1.0000 0.97821  0.60280  0.84030  Biso   1.000  C
  H639     1.0000 0.96472  0.54199  0.91920  Biso   1.000  H
  H640     1.0000 0.01962  0.51219  0.89108  Biso   1.000  H
  H641     1.0000 0.02320  0.51591  0.94648  Biso   1.000  H
  H642     1.0000 0.99459  0.61871  0.96567  Biso   1.000  H
  H643     1.0000 0.06229  0.64661  0.95700  Biso   1.000  H
  H644     1.0000 0.05992  0.59472  0.98587  Biso   1.000  H
  C624     1.0000 0.15392  0.77310  0.74180  Biso   1.000  C
  H645     1.0000 0.22921  0.78392  0.86759  Biso   1.000  H
  H646     1.0000 0.24158  0.83270  0.83569  Biso   1.000  H
  H647     1.0000 0.30131  0.79941  0.85349  Biso   1.000  H
  H648     1.0000 0.28899  0.76760  0.73198  Biso   1.000  H
  H649     1.0000 0.33862  0.78791  0.77030  Biso   1.000  H
  H650     1.0000 0.27908  0.82260  0.75440  Biso   1.000  H
  H651     1.0000 0.06911  0.68119  0.88279  Biso   1.000  H
  H652     1.0000 0.93781  0.64900  0.78859  Biso   1.000  H
  H653     1.0000 0.13932  0.73852  0.84218  Biso   1.000  H
  H654     1.0000 0.05490  0.76949  0.72261  Biso   1.000  H
  H655     1.0000 0.95762  0.57080  0.83617  Biso   1.000  H
  H656     1.0000 0.17581  0.78362  0.71448  Biso   1.000  H
