data_image0
_cell_length_a       27.786
_cell_length_b       27.786
_cell_length_c       97.147
_cell_angle_alpha    90
_cell_angle_beta     90
_cell_angle_gamma    120

_symmetry_space_group_name_H-M    "P 1"
_symmetry_int_tables_number       1

loop_
  _symmetry_equiv_pos_as_xyz
  'x, y, z'

loop_
  _atom_site_label
  _atom_site_occupancy
  _atom_site_fract_x
  _atom_site_fract_y
  _atom_site_fract_z
  _atom_site_thermal_displace_type
  _atom_site_B_iso_or_equiv
  _atom_site_type_symbol
  N1       1.0000 0.39474  0.42276  0.50182  Biso   1.000  N
  C1       1.0000 0.38453  0.37102  0.50279  Biso   1.000  C
  C2       1.0000 0.35493  0.42721  0.49510  Biso   1.000  C
  O1       1.0000 0.42488  0.36707  0.50965  Biso   1.000  O
  N2       1.0000 0.34159  0.32522  0.49811  Biso   1.000  N
  N3       1.0000 0.30770  0.38378  0.49005  Biso   1.000  N
  C3       1.0000 0.36517  0.48360  0.49247  Biso   1.000  C
  C4       1.0000 0.41782  0.31321  0.51098  Biso   1.000  C
  C5       1.0000 0.30512  0.33528  0.49197  Biso   1.000  C
  C6       1.0000 0.33858  0.49440  0.48180  Biso   1.000  C
  C7       1.0000 0.40349  0.52777  0.50046  Biso   1.000  C
  C8       1.0000 0.44279  0.29672  0.50136  Biso   1.000  C
  C9       1.0000 0.38701  0.27989  0.52175  Biso   1.000  C
  O2       1.0000 0.25854  0.29136  0.48677  Biso   1.000  O
  H1       1.0000 0.31191  0.46481  0.47630  Biso   1.000  H
  C10      1.0000 0.35092  0.54809  0.47922  Biso   1.000  C
  C11      1.0000 0.41507  0.58117  0.49769  Biso   1.000  C
  H2       1.0000 0.42183  0.52112  0.50790  Biso   1.000  H
  C12      1.0000 0.43598  0.24402  0.50299  Biso   1.000  C
  H3       1.0000 0.46370  0.32020  0.49400  Biso   1.000  H
  C13      1.0000 0.38083  0.22794  0.52251  Biso   1.000  C
  H4       1.0000 0.37073  0.29252  0.52840  Biso   1.000  H
  C14      1.0000 0.25864  0.24053  0.48628  Biso   1.000  C
  H5       1.0000 0.33262  0.55512  0.47190  Biso   1.000  H
  C15      1.0000 0.38978  0.59235  0.48713  Biso   1.000  C
  H6       1.0000 0.44119  0.61080  0.50330  Biso   1.000  H
  O3       1.0000 0.46282  0.22636  0.49368  Biso   1.000  O
  C16      1.0000 0.40494  0.20857  0.51336  Biso   1.000  C
  O4       1.0000 0.34945  0.19303  0.53351  Biso   1.000  O
  C17      1.0000 0.28858  0.23367  0.47587  Biso   1.000  C
  C18      1.0000 0.22856  0.20022  0.49582  Biso   1.000  C
  C19      1.0000 0.40469  0.65182  0.48406  Biso   1.000  C
  C20      1.0000 0.43688  0.20645  0.48155  Biso   1.000  C
  H7       1.0000 0.40032  0.17242  0.51420  Biso   1.000  H
  C21      1.0000 0.29687  0.15243  0.53046  Biso   1.000  C
  C22      1.0000 0.28787  0.18389  0.47547  Biso   1.000  C
  H8       1.0000 0.30869  0.26210  0.46930  Biso   1.000  H
  C23      1.0000 0.22963  0.15127  0.49493  Biso   1.000  C
  H9       1.0000 0.20780  0.20579  0.50281  Biso   1.000  H
  H10      1.0000 0.43290  0.67692  0.49060  Biso   1.000  H
  H11      1.0000 0.41940  0.66159  0.47470  Biso   1.000  H
  H12      1.0000 0.37142  0.65531  0.48490  Biso   1.000  H
  N4       1.0000 0.46569  0.19453  0.47276  Biso   1.000  N
  N5       1.0000 0.38708  0.20055  0.47992  Biso   1.000  N
  N6       1.0000 0.27699  0.15364  0.51820  Biso   1.000  N
  N7       1.0000 0.27280  0.11640  0.54045  Biso   1.000  N
  O5       1.0000 0.31584  0.17462  0.46450  Biso   1.000  O
  C24      1.0000 0.25852  0.14196  0.48467  Biso   1.000  C
  O6       1.0000 0.19998  0.10867  0.50449  Biso   1.000  O
  C25      1.0000 0.44054  0.17691  0.46061  Biso   1.000  C
  C26      1.0000 0.36699  0.18277  0.46745  Biso   1.000  C
  C27      1.0000 0.22594  0.11179  0.51642  Biso   1.000  C
  C28      1.0000 0.22186  0.07426  0.53695  Biso   1.000  C
  H13      1.0000 0.25800  0.10759  0.48400  Biso   1.000  H
  C29      1.0000 0.46865  0.16058  0.45013  Biso   1.000  C
  N8       1.0000 0.39097  0.17134  0.45705  Biso   1.000  N
  N9       1.0000 0.19579  0.07048  0.52507  Biso   1.000  N
  C30      1.0000 0.19439  0.02818  0.54686  Biso   1.000  C
  C31      1.0000 0.45004  0.15035  0.43670  Biso   1.000  C
  C32      1.0000 0.51277  0.15351  0.45392  Biso   1.000  C
  C33      1.0000 0.21364  0.03399  0.56030  Biso   1.000  C
  C34      1.0000 0.15191  0.97681  0.54261  Biso   1.000  C
  C35      1.0000 0.47604  0.13390  0.42714  Biso   1.000  C
  H14      1.0000 0.41948  0.15459  0.43400  Biso   1.000  H
  C36      1.0000 0.53728  0.13581  0.44434  Biso   1.000  C
  H15      1.0000 0.52622  0.16091  0.46310  Biso   1.000  H
  H16      1.0000 0.24280  0.06898  0.56340  Biso   1.000  H
  C37      1.0000 0.19098  0.98953  0.56925  Biso   1.000  C
  C38      1.0000 0.13031  0.93160  0.55144  Biso   1.000  C
  H17      1.0000 0.13742  0.97253  0.53360  Biso   1.000  H
  C39      1.0000 0.51966  0.12662  0.43076  Biso   1.000  C
  H18      1.0000 0.46330  0.12750  0.41790  Biso   1.000  H
  H19      1.0000 0.56672  0.12991  0.44710  Biso   1.000  H
  H20      1.0000 0.20372  0.99472  0.57850  Biso   1.000  H
  C40      1.0000 0.14996  0.93750  0.56499  Biso   1.000  C
  H21      1.0000 0.10190  0.89632  0.54830  Biso   1.000  H
  C41      1.0000 0.54803  0.10880  0.42034  Biso   1.000  C
  C42      1.0000 0.12648  0.88817  0.57448  Biso   1.000  C
  H22      1.0000 0.53031  0.10402  0.41130  Biso   1.000  H
  H23      1.0000 0.58740  0.13730  0.41970  Biso   1.000  H
  H24      1.0000 0.54490  0.07360  0.42320  Biso   1.000  H
  H25      1.0000 0.09791  0.85542  0.56960  Biso   1.000  H
  H26      1.0000 0.15620  0.88131  0.57750  Biso   1.000  H
  H27      1.0000 0.10989  0.89553  0.58250  Biso   1.000  H
  C43      1.0000 0.41920  0.36923  0.46249  Biso   1.000  C
  C44      1.0000 0.42257  0.33179  0.45352  Biso   1.000  C
  C45      1.0000 0.37700  0.38128  0.46113  Biso   1.000  C
  H28      1.0000 0.44610  0.38640  0.46960  Biso   1.000  H
  C46      1.0000 0.38238  0.30590  0.44346  Biso   1.000  C
  C47      1.0000 0.47066  0.32389  0.45407  Biso   1.000  C
  C48      1.0000 0.33614  0.35585  0.45117  Biso   1.000  C
  H29      1.0000 0.37592  0.40771  0.46720  Biso   1.000  H
  C49      1.0000 0.33897  0.31791  0.44256  Biso   1.000  C
  H30      1.0000 0.38409  0.28038  0.43730  Biso   1.000  H
  N10      1.0000 0.48877  0.31396  0.44216  Biso   1.000  N
  N11      1.0000 0.49616  0.33092  0.46641  Biso   1.000  N
  C50      1.0000 0.29080  0.37085  0.44985  Biso   1.000  C
  H31      1.0000 0.31080  0.29942  0.43580  Biso   1.000  H
  C51      1.0000 0.53621  0.31484  0.44320  Biso   1.000  C
  C52      1.0000 0.54238  0.32797  0.46564  Biso   1.000  C
  H32      1.0000 0.26550  0.34912  0.44240  Biso   1.000  H
  H33      1.0000 0.27011  0.36250  0.45850  Biso   1.000  H
  H34      1.0000 0.30761  0.41058  0.44780  Biso   1.000  H
  O7       1.0000 0.55737  0.30972  0.43117  Biso   1.000  O
  N12      1.0000 0.56535  0.32094  0.45448  Biso   1.000  N
  O8       1.0000 0.56767  0.33399  0.47788  Biso   1.000  O
  C53      1.0000 0.61327  0.32169  0.43168  Biso   1.000  C
  C54      1.0000 0.61774  0.33366  0.47780  Biso   1.000  C
  C55      1.0000 0.62345  0.27872  0.43159  Biso   1.000  C
  C56      1.0000 0.65524  0.37655  0.43159  Biso   1.000  C
  C57      1.0000 0.61640  0.28296  0.47795  Biso   1.000  C
  C58      1.0000 0.66658  0.38361  0.47795  Biso   1.000  C
  H35      1.0000 0.59400  0.24120  0.43150  Biso   1.000  H
  C59      1.0000 0.67828  0.29156  0.43168  Biso   1.000  C
  H36      1.0000 0.64722  0.40601  0.43150  Biso   1.000  H
  C60      1.0000 0.70844  0.38673  0.43168  Biso   1.000  C
  C61      1.0000 0.66633  0.28408  0.47780  Biso   1.000  C
  H37      1.0000 0.58222  0.24880  0.47810  Biso   1.000  H
  C62      1.0000 0.71592  0.38224  0.47780  Biso   1.000  C
  H38      1.0000 0.66662  0.41781  0.47810  Biso   1.000  H
  O9       1.0000 0.69029  0.24764  0.43117  Biso   1.000  O
  C63      1.0000 0.72132  0.34476  0.43159  Biso   1.000  C
  O10      1.0000 0.75233  0.44262  0.43117  Biso   1.000  O
  O11      1.0000 0.66598  0.23363  0.47788  Biso   1.000  O
  C64      1.0000 0.71704  0.33345  0.47795  Biso   1.000  C
  O12      1.0000 0.76635  0.43236  0.47788  Biso   1.000  O
  C65      1.0000 0.68518  0.22137  0.44320  Biso   1.000  C
  H39      1.0000 0.75882  0.35282  0.43150  Biso   1.000  H
  C66      1.0000 0.77860  0.46378  0.44320  Biso   1.000  C
  C67      1.0000 0.67201  0.21439  0.46564  Biso   1.000  C
  H40      1.0000 0.75121  0.33341  0.47810  Biso   1.000  H
  C68      1.0000 0.78560  0.45762  0.46564  Biso   1.000  C
  N13      1.0000 0.68604  0.17479  0.44216  Biso   1.000  N
  N14      1.0000 0.67906  0.24440  0.45448  Biso   1.000  N
  N15      1.0000 0.82518  0.51123  0.44216  Biso   1.000  N
  N16      1.0000 0.75558  0.43464  0.45448  Biso   1.000  N
  N17      1.0000 0.66912  0.16527  0.46641  Biso   1.000  N
  N18      1.0000 0.83473  0.50384  0.46641  Biso   1.000  N
  C69      1.0000 0.67614  0.14678  0.45407  Biso   1.000  C
  C70      1.0000 0.85325  0.52935  0.45407  Biso   1.000  C
  C71      1.0000 0.66821  0.09076  0.45352  Biso   1.000  C
  C72      1.0000 0.90925  0.57743  0.45352  Biso   1.000  C
  C73      1.0000 0.69412  0.07651  0.44346  Biso   1.000  C
  C74      1.0000 0.63075  0.04995  0.46249  Biso   1.000  C
  C75      1.0000 0.92351  0.61762  0.44346  Biso   1.000  C
  C76      1.0000 0.95005  0.58080  0.46249  Biso   1.000  C
  H41      1.0000 0.71959  0.10368  0.43730  Biso   1.000  H
  C77      1.0000 0.68210  0.02107  0.44256  Biso   1.000  C
  H42      1.0000 0.61361  0.05972  0.46960  Biso   1.000  H
  C78      1.0000 0.61871  0.99572  0.46113  Biso   1.000  C
  H43      1.0000 0.89631  0.61592  0.43730  Biso   1.000  H
  C79      1.0000 0.97892  0.66100  0.44256  Biso   1.000  C
  H44      1.0000 0.94031  0.55391  0.46960  Biso   1.000  H
  C80      1.0000 0.00431  0.62302  0.46113  Biso   1.000  C
  H45      1.0000 0.70061  0.01139  0.43580  Biso   1.000  H
  C81      1.0000 0.64415  0.98030  0.45117  Biso   1.000  C
  H46      1.0000 0.59229  0.96821  0.46720  Biso   1.000  H
  H47      1.0000 0.98860  0.68922  0.43580  Biso   1.000  H
  C82      1.0000 0.01973  0.66387  0.45117  Biso   1.000  C
  H48      1.0000 0.03180  0.62410  0.46720  Biso   1.000  H
  C83      1.0000 0.62917  0.91996  0.44985  Biso   1.000  C
  C84      1.0000 0.08004  0.70921  0.44985  Biso   1.000  C
  H49      1.0000 0.65090  0.91643  0.44240  Biso   1.000  H
  H50      1.0000 0.63750  0.90762  0.45850  Biso   1.000  H
  H51      1.0000 0.58941  0.89702  0.44780  Biso   1.000  H
  H52      1.0000 0.08359  0.73452  0.44240  Biso   1.000  H
  H53      1.0000 0.09241  0.72991  0.45850  Biso   1.000  H
  H54      1.0000 0.10299  0.69242  0.44780  Biso   1.000  H
  C85      1.0000 0.59652  0.47225  0.49954  Biso   1.000  C
  C86      1.0000 0.63484  0.51643  0.50753  Biso   1.000  C
  C87      1.0000 0.58497  0.41885  0.50231  Biso   1.000  C
  H55      1.0000 0.57822  0.47890  0.49210  Biso   1.000  H
  C88      1.0000 0.64508  0.57282  0.50490  Biso   1.000  C
  C89      1.0000 0.66147  0.50562  0.51820  Biso   1.000  C
  C90      1.0000 0.61023  0.40767  0.51287  Biso   1.000  C
  H56      1.0000 0.55882  0.38922  0.49670  Biso   1.000  H
  N19      1.0000 0.60527  0.57727  0.49818  Biso   1.000  N
  N20      1.0000 0.69235  0.61625  0.50995  Biso   1.000  N
  H57      1.0000 0.68811  0.53521  0.52370  Biso   1.000  H
  C91      1.0000 0.64909  0.45193  0.52078  Biso   1.000  C
  C92      1.0000 0.59530  0.34816  0.51594  Biso   1.000  C
  C93      1.0000 0.61548  0.62901  0.49721  Biso   1.000  C
  C94      1.0000 0.69489  0.66474  0.50803  Biso   1.000  C
  H58      1.0000 0.66739  0.44491  0.52810  Biso   1.000  H
  H59      1.0000 0.56712  0.32311  0.50940  Biso   1.000  H
  H60      1.0000 0.58059  0.33840  0.52530  Biso   1.000  H
  H61      1.0000 0.62859  0.34471  0.51510  Biso   1.000  H
  O13      1.0000 0.57513  0.63295  0.49035  Biso   1.000  O
  N21      1.0000 0.65840  0.67476  0.50189  Biso   1.000  N
  O14      1.0000 0.74147  0.70867  0.51323  Biso   1.000  O
  C95      1.0000 0.58219  0.68681  0.48902  Biso   1.000  C
  C96      1.0000 0.74137  0.75949  0.51372  Biso   1.000  C
  C97      1.0000 0.61300  0.72014  0.47825  Biso   1.000  C
  C98      1.0000 0.55723  0.70331  0.49864  Biso   1.000  C
  C99      1.0000 0.77144  0.79976  0.50418  Biso   1.000  C
  C100     1.0000 0.71141  0.76631  0.52413  Biso   1.000  C
  H62      1.0000 0.62929  0.70751  0.47160  Biso   1.000  H
  C101     1.0000 0.61918  0.77209  0.47749  Biso   1.000  C
  C102     1.0000 0.56401  0.75596  0.49701  Biso   1.000  C
  H63      1.0000 0.53629  0.67979  0.50600  Biso   1.000  H
  C103     1.0000 0.77036  0.84872  0.50507  Biso   1.000  C
  H64      1.0000 0.79219  0.79419  0.49719  Biso   1.000  H
  C104     1.0000 0.71212  0.81609  0.52453  Biso   1.000  C
  H65      1.0000 0.69130  0.73788  0.53070  Biso   1.000  H
  O15      1.0000 0.65056  0.80699  0.46649  Biso   1.000  O
  C105     1.0000 0.59507  0.79145  0.48664  Biso   1.000  C
  O16      1.0000 0.53718  0.77362  0.50632  Biso   1.000  O
  O17      1.0000 0.80003  0.89135  0.49551  Biso   1.000  O
  C106     1.0000 0.74149  0.85807  0.51533  Biso   1.000  C
  O18      1.0000 0.68421  0.82540  0.53550  Biso   1.000  O
  C107     1.0000 0.70313  0.84755  0.46954  Biso   1.000  C
  H66      1.0000 0.59969  0.82761  0.48580  Biso   1.000  H
  C108     1.0000 0.56311  0.79353  0.51845  Biso   1.000  C
  C109     1.0000 0.77405  0.88820  0.48358  Biso   1.000  C
  H67      1.0000 0.74199  0.89239  0.51600  Biso   1.000  H
  C110     1.0000 0.63302  0.81726  0.53255  Biso   1.000  C
  N22      1.0000 0.72721  0.88362  0.45955  Biso   1.000  N
  N23      1.0000 0.72306  0.84639  0.48180  Biso   1.000  N
  N24      1.0000 0.53431  0.80546  0.52724  Biso   1.000  N
  N25      1.0000 0.61294  0.79947  0.52008  Biso   1.000  N
  N26      1.0000 0.80422  0.92955  0.47493  Biso   1.000  N
  N27      1.0000 0.60905  0.82869  0.54295  Biso   1.000  N
  C111     1.0000 0.77816  0.92572  0.46305  Biso   1.000  C
  C112     1.0000 0.55945  0.82308  0.53939  Biso   1.000  C
  C113     1.0000 0.80560  0.97181  0.45314  Biso   1.000  C
  C114     1.0000 0.53136  0.83945  0.54987  Biso   1.000  C
  C115     1.0000 0.78637  0.96603  0.43970  Biso   1.000  C
  C116     1.0000 0.84811  0.02321  0.45739  Biso   1.000  C
  C117     1.0000 0.48725  0.84651  0.54608  Biso   1.000  C
  C118     1.0000 0.54997  0.84967  0.56330  Biso   1.000  C
  H68      1.0000 0.75719  0.93100  0.43660  Biso   1.000  H
  C119     1.0000 0.80901  0.01046  0.43075  Biso   1.000  C
  C120     1.0000 0.86974  0.06843  0.44856  Biso   1.000  C
  H69      1.0000 0.86259  0.02749  0.46640  Biso   1.000  H
  H70      1.0000 0.47379  0.83912  0.53690  Biso   1.000  H
  C121     1.0000 0.46271  0.86418  0.55566  Biso   1.000  C
  C122     1.0000 0.52397  0.86613  0.57286  Biso   1.000  C
  H71      1.0000 0.58051  0.84539  0.56600  Biso   1.000  H
  H72      1.0000 0.79632  0.00530  0.42150  Biso   1.000  H
  C123     1.0000 0.85006  0.06253  0.43501  Biso   1.000  C
  H73      1.0000 0.89809  0.10367  0.45170  Biso   1.000  H
  H74      1.0000 0.43330  0.87012  0.55290  Biso   1.000  H
  C124     1.0000 0.48039  0.87340  0.56924  Biso   1.000  C
  H75      1.0000 0.53669  0.87249  0.58210  Biso   1.000  H
  C125     1.0000 0.87353  0.11186  0.42552  Biso   1.000  C
  C126     1.0000 0.45198  0.89123  0.57966  Biso   1.000  C
  H76      1.0000 0.90211  0.14460  0.43040  Biso   1.000  H
  H77      1.0000 0.84380  0.11867  0.42250  Biso   1.000  H
  H78      1.0000 0.89012  0.10450  0.41750  Biso   1.000  H
  H79      1.0000 0.46971  0.89601  0.58870  Biso   1.000  H
  H80      1.0000 0.41261  0.86272  0.58030  Biso   1.000  H
  H81      1.0000 0.45510  0.92639  0.57680  Biso   1.000  H
  C127     1.0000 0.39239  0.40796  0.54429  Biso   1.000  C
  C128     1.0000 0.33914  0.35128  0.54360  Biso   1.000  C
  H82      1.0000 0.41211  0.41071  0.55290  Biso   1.000  H
  H83      1.0000 0.41628  0.41200  0.53640  Biso   1.000  H
  H84      1.0000 0.38290  0.43751  0.54400  Biso   1.000  H
  C129     1.0000 0.32607  0.31255  0.55382  Biso   1.000  C
  C130     1.0000 0.30397  0.33744  0.53258  Biso   1.000  C
  C131     1.0000 0.27862  0.26077  0.55319  Biso   1.000  C
  H85      1.0000 0.35019  0.32148  0.56150  Biso   1.000  H
  C132     1.0000 0.25710  0.28466  0.53123  Biso   1.000  C
  H86      1.0000 0.31162  0.36441  0.52560  Biso   1.000  H
  C133     1.0000 0.24414  0.24622  0.54178  Biso   1.000  C
  H87      1.0000 0.26970  0.23530  0.56060  Biso   1.000  H
  H88      1.0000 0.23441  0.27519  0.52320  Biso   1.000  H
  C134     1.0000 0.19234  0.19062  0.54125  Biso   1.000  C
  N28      1.0000 0.16593  0.17408  0.52916  Biso   1.000  N
  N29      1.0000 0.17529  0.16315  0.55319  Biso   1.000  N
  C135     1.0000 0.11927  0.12496  0.52984  Biso   1.000  C
  C136     1.0000 0.12675  0.11673  0.55222  Biso   1.000  C
  O19      1.0000 0.09232  0.10597  0.51789  Biso   1.000  O
  N30      1.0000 0.09711  0.09446  0.54102  Biso   1.000  N
  O20      1.0000 0.10686  0.09034  0.56421  Biso   1.000  O
  C137     1.0000 0.04519  0.05166  0.51805  Biso   1.000  C
  C138     1.0000 0.05234  0.04422  0.56377  Biso   1.000  C
  C139     1.0000 0.05306  0.00657  0.51804  Biso   1.000  C
  C140     1.0000 0.99343  0.04646  0.51804  Biso   1.000  C
  C141     1.0000 0.00823  0.05361  0.56386  Biso   1.000  C
  C142     1.0000 0.04537  0.99177  0.56386  Biso   1.000  C
  H89      1.0000 0.08930  0.01110  0.51800  Biso   1.000  H
  C143     1.0000 0.00649  0.95483  0.51805  Biso   1.000  C
  C144     1.0000 0.94834  0.99356  0.51805  Biso   1.000  C
  H90      1.0000 0.98890  0.07821  0.51800  Biso   1.000  H
  H91      1.0000 0.01391  0.09030  0.56400  Biso   1.000  H
  C145     1.0000 0.95581  0.00815  0.56377  Biso   1.000  C
  C146     1.0000 0.99187  0.94768  0.56377  Biso   1.000  C
  H92      1.0000 0.07641  0.98612  0.56400  Biso   1.000  H
  C147     1.0000 0.95351  0.94697  0.51804  Biso   1.000  C
  O21      1.0000 0.01367  0.90770  0.51789  Biso   1.000  O
  O22      1.0000 0.89403  0.98637  0.51789  Biso   1.000  O
  C148     1.0000 0.94642  0.95466  0.56386  Biso   1.000  C
  O23      1.0000 0.90964  0.01650  0.56421  Biso   1.000  O
  O24      1.0000 0.98350  0.89316  0.56421  Biso   1.000  O
  H93      1.0000 0.92183  0.91074  0.51800  Biso   1.000  H
  C149     1.0000 0.00569  0.88073  0.52984  Biso   1.000  C
  C150     1.0000 0.87504  0.99431  0.52984  Biso   1.000  C
  H94      1.0000 0.90970  0.92362  0.56400  Biso   1.000  H
  C151     1.0000 0.88329  0.01002  0.55222  Biso   1.000  C
  C152     1.0000 0.98996  0.87325  0.55222  Biso   1.000  C
  N31      1.0000 0.99735  0.90292  0.54102  Biso   1.000  N
  N32      1.0000 0.00812  0.83406  0.52916  Biso   1.000  N
  N33      1.0000 0.82593  0.99190  0.52916  Biso   1.000  N
  N34      1.0000 0.90556  0.00266  0.54102  Biso   1.000  N
  N35      1.0000 0.83688  0.01213  0.55319  Biso   1.000  N
  N36      1.0000 0.98788  0.82475  0.55319  Biso   1.000  N
  C153     1.0000 0.99831  0.80767  0.54125  Biso   1.000  C
  C154     1.0000 0.80939  0.00170  0.54125  Biso   1.000  C
  C155     1.0000 0.00207  0.75589  0.54178  Biso   1.000  C
  C156     1.0000 0.75382  0.99796  0.54178  Biso   1.000  C
  C157     1.0000 0.98217  0.72140  0.55319  Biso   1.000  C
  C158     1.0000 0.02759  0.74293  0.53123  Biso   1.000  C
  C159     1.0000 0.71537  0.97245  0.53123  Biso   1.000  C
  C160     1.0000 0.73921  0.01783  0.55319  Biso   1.000  C
  H95      1.0000 0.96561  0.73034  0.56060  Biso   1.000  H
  C161     1.0000 0.98647  0.67394  0.55382  Biso   1.000  C
  C162     1.0000 0.03348  0.69605  0.53258  Biso   1.000  C
  H96      1.0000 0.04080  0.76562  0.52320  Biso   1.000  H
  C163     1.0000 0.66257  0.96655  0.53258  Biso   1.000  C
  H97      1.0000 0.72481  0.95923  0.52320  Biso   1.000  H
  H98      1.0000 0.76470  0.03441  0.56060  Biso   1.000  H
  C164     1.0000 0.68748  0.01355  0.55382  Biso   1.000  C
  H99      1.0000 0.97130  0.64980  0.56150  Biso   1.000  H
  C165     1.0000 0.01214  0.66085  0.54360  Biso   1.000  C
  H100     1.0000 0.05280  0.68841  0.52560  Biso   1.000  H
  C166     1.0000 0.64874  0.98791  0.54360  Biso   1.000  C
  H101     1.0000 0.63560  0.94722  0.52560  Biso   1.000  H
  H102     1.0000 0.67851  0.02872  0.56150  Biso   1.000  H
  C167     1.0000 0.01557  0.60762  0.54429  Biso   1.000  C
  C168     1.0000 0.59203  0.98446  0.54429  Biso   1.000  C
  H103     1.0000 0.99863  0.58792  0.55290  Biso   1.000  H
  H104     1.0000 0.99571  0.58372  0.53640  Biso   1.000  H
  H105     1.0000 0.05463  0.61714  0.54400  Biso   1.000  H
  H106     1.0000 0.56251  0.94544  0.54400  Biso   1.000  H
  H107     1.0000 0.58931  0.00141  0.55290  Biso   1.000  H
  H108     1.0000 0.58801  0.00428  0.53640  Biso   1.000  H
  N37      1.0000 0.27117  0.46569  0.52724  Biso   1.000  N
  C169     1.0000 0.23043  0.43689  0.51845  Biso   1.000  C
  C170     1.0000 0.26364  0.44054  0.53939  Biso   1.000  C
  O25      1.0000 0.23645  0.46282  0.50632  Biso   1.000  O
  N38      1.0000 0.18651  0.38706  0.52008  Biso   1.000  N
  N39      1.0000 0.21963  0.39097  0.54295  Biso   1.000  N
  C171     1.0000 0.30810  0.46864  0.54987  Biso   1.000  C
  C172     1.0000 0.19193  0.43597  0.49701  Biso   1.000  C
  C173     1.0000 0.18425  0.36699  0.53255  Biso   1.000  C
  C174     1.0000 0.35928  0.51277  0.54608  Biso   1.000  C
  C175     1.0000 0.29969  0.45002  0.56330  Biso   1.000  C
  C176     1.0000 0.19638  0.40493  0.48664  Biso   1.000  C
  C177     1.0000 0.14610  0.44279  0.49864  Biso   1.000  C
  O26      1.0000 0.14122  0.31583  0.53550  Biso   1.000  O
  H109     1.0000 0.36531  0.52619  0.53690  Biso   1.000  H
  C178     1.0000 0.40148  0.53729  0.55566  Biso   1.000  C
  C179     1.0000 0.34213  0.47603  0.57286  Biso   1.000  C
  H110     1.0000 0.26489  0.41952  0.56600  Biso   1.000  H
  C180     1.0000 0.15288  0.38083  0.47749  Biso   1.000  C
  H111     1.0000 0.22791  0.40032  0.48580  Biso   1.000  H
  C181     1.0000 0.10461  0.41781  0.48902  Biso   1.000  C
  H112     1.0000 0.14349  0.46369  0.50600  Biso   1.000  H
  C182     1.0000 0.10400  0.28791  0.52453  Biso   1.000  C
  H113     1.0000 0.43681  0.56671  0.55290  Biso   1.000  H
  C183     1.0000 0.39301  0.51963  0.56924  Biso   1.000  C
  H114     1.0000 0.33581  0.46332  0.58210  Biso   1.000  H
  O27      1.0000 0.15641  0.34945  0.46649  Biso   1.000  O
  C184     1.0000 0.10714  0.38702  0.47825  Biso   1.000  C
  O28      1.0000 0.05779  0.42488  0.49035  Biso   1.000  O
  C185     1.0000 0.11656  0.25853  0.51533  Biso   1.000  C
  C186     1.0000 0.05489  0.28857  0.52413  Biso   1.000  C
  C187     1.0000 0.43923  0.54801  0.57966  Biso   1.000  C
  C188     1.0000 0.14441  0.29688  0.46954  Biso   1.000  C
  H115     1.0000 0.07820  0.37069  0.47160  Biso   1.000  H
  C189     1.0000 0.01354  0.38453  0.49721  Biso   1.000  C
  C190     1.0000 0.07836  0.22964  0.50507  Biso   1.000  C
  H116     1.0000 0.15041  0.25799  0.51600  Biso   1.000  H
  C191     1.0000 0.01812  0.25865  0.51372  Biso   1.000  C
  H117     1.0000 0.04659  0.30868  0.53070  Biso   1.000  H
  H118     1.0000 0.42631  0.53031  0.58870  Biso   1.000  H
  H119     1.0000 0.45011  0.58741  0.58030  Biso   1.000  H
  H120     1.0000 0.47129  0.54489  0.57680  Biso   1.000  H
  N40      1.0000 0.15640  0.27278  0.45955  Biso   1.000  N
  N41      1.0000 0.12334  0.27698  0.48180  Biso   1.000  N
  N42      1.0000 0.01637  0.34160  0.50189  Biso   1.000  N
  N43      1.0000 0.97201  0.39475  0.49818  Biso   1.000  N
  O29      1.0000 0.09135  0.19997  0.49551  Biso   1.000  O
  C192     1.0000 0.02834  0.22856  0.50418  Biso   1.000  C
  O30      1.0000 0.96720  0.25853  0.51323  Biso   1.000  O
  C193     1.0000 0.14759  0.22183  0.46305  Biso   1.000  C
  C194     1.0000 0.11416  0.22594  0.48358  Biso   1.000  C
  C195     1.0000 0.96984  0.30511  0.50803  Biso   1.000  C
  C196     1.0000 0.92774  0.35494  0.50490  Biso   1.000  C
  H121     1.0000 0.00201  0.20778  0.49719  Biso   1.000  H
  C197     1.0000 0.16619  0.19440  0.45314  Biso   1.000  C
  N44      1.0000 0.12531  0.19577  0.47493  Biso   1.000  N
  N45      1.0000 0.92391  0.30769  0.50995  Biso   1.000  N
  C198     1.0000 0.88160  0.36516  0.50753  Biso   1.000  C
  C199     1.0000 0.17966  0.21364  0.43970  Biso   1.000  C
  C200     1.0000 0.17510  0.15189  0.45739  Biso   1.000  C
  C201     1.0000 0.84419  0.33856  0.51820  Biso   1.000  C
  C202     1.0000 0.87571  0.40348  0.49954  Biso   1.000  C
  C203     1.0000 0.20143  0.19095  0.43075  Biso   1.000  C
  H122     1.0000 0.17381  0.24282  0.43660  Biso   1.000  H
  C204     1.0000 0.19870  0.13028  0.44856  Biso   1.000  C
  H123     1.0000 0.16489  0.13739  0.46640  Biso   1.000  H
  H124     1.0000 0.84708  0.31188  0.52370  Biso   1.000  H
  C205     1.0000 0.80286  0.35091  0.52078  Biso   1.000  C
  C206     1.0000 0.83389  0.41507  0.50231  Biso   1.000  C
  H125     1.0000 0.90071  0.42180  0.49210  Biso   1.000  H
  C207     1.0000 0.21248  0.14994  0.43501  Biso   1.000  C
  H126     1.0000 0.20900  0.20371  0.42150  Biso   1.000  H
  H127     1.0000 0.20560  0.10190  0.45170  Biso   1.000  H
  H128     1.0000 0.77752  0.33262  0.52810  Biso   1.000  H
  C208     1.0000 0.79745  0.38976  0.51287  Biso   1.000  C
  H129     1.0000 0.83041  0.44121  0.49670  Biso   1.000  H
  C209     1.0000 0.23832  0.12646  0.42552  Biso   1.000  C
  C210     1.0000 0.75289  0.40472  0.51594  Biso   1.000  C
  H130     1.0000 0.24250  0.09791  0.43040  Biso   1.000  H
  H131     1.0000 0.27490  0.15621  0.42250  Biso   1.000  H
  H132     1.0000 0.21443  0.10992  0.41750  Biso   1.000  H
  H133     1.0000 0.75600  0.43290  0.50940  Biso   1.000  H
  H134     1.0000 0.75781  0.41939  0.52530  Biso   1.000  H
  H135     1.0000 0.71611  0.37139  0.51510  Biso   1.000  H
  C211     1.0000 0.58082  0.63079  0.53751  Biso   1.000  C
  C212     1.0000 0.57742  0.66819  0.54648  Biso   1.000  C
  C213     1.0000 0.62300  0.61870  0.53887  Biso   1.000  C
  H136     1.0000 0.55390  0.61359  0.53040  Biso   1.000  H
  C214     1.0000 0.52935  0.67613  0.54593  Biso   1.000  C
  C215     1.0000 0.61763  0.69413  0.55654  Biso   1.000  C
  C216     1.0000 0.66386  0.64413  0.54883  Biso   1.000  C
  H137     1.0000 0.62409  0.59231  0.53280  Biso   1.000  H
  N46      1.0000 0.50385  0.66911  0.53359  Biso   1.000  N
  N47      1.0000 0.51125  0.68606  0.55784  Biso   1.000  N
  H138     1.0000 0.61590  0.71960  0.56270  Biso   1.000  H
  C217     1.0000 0.66104  0.68212  0.55744  Biso   1.000  C
  C218     1.0000 0.70921  0.62917  0.55015  Biso   1.000  C
  C219     1.0000 0.45762  0.67202  0.53436  Biso   1.000  C
  C220     1.0000 0.46381  0.68519  0.55680  Biso   1.000  C
  H139     1.0000 0.68922  0.70061  0.56420  Biso   1.000  H
  H140     1.0000 0.73451  0.65091  0.55760  Biso   1.000  H
  H141     1.0000 0.72990  0.63752  0.54150  Biso   1.000  H
  H142     1.0000 0.69242  0.58940  0.55220  Biso   1.000  H
  O31      1.0000 0.43233  0.66599  0.52212  Biso   1.000  O
  N48      1.0000 0.43464  0.67904  0.54552  Biso   1.000  N
  O32      1.0000 0.44265  0.69030  0.56883  Biso   1.000  O
  C221     1.0000 0.38227  0.66637  0.52220  Biso   1.000  C
  C222     1.0000 0.38672  0.67829  0.56832  Biso   1.000  C
  C223     1.0000 0.33344  0.61641  0.52205  Biso   1.000  C
  C224     1.0000 0.38362  0.71706  0.52205  Biso   1.000  C
  C225     1.0000 0.34476  0.62344  0.56841  Biso   1.000  C
  C226     1.0000 0.37656  0.72130  0.56841  Biso   1.000  C
  C227     1.0000 0.28411  0.61774  0.52220  Biso   1.000  C
  H143     1.0000 0.33339  0.58221  0.52190  Biso   1.000  H
  C228     1.0000 0.33366  0.71590  0.52220  Biso   1.000  C
  H144     1.0000 0.41783  0.75122  0.52190  Biso   1.000  H
  C229     1.0000 0.29157  0.61330  0.56832  Biso   1.000  C
  H145     1.0000 0.35279  0.59401  0.56850  Biso   1.000  H
  C230     1.0000 0.32171  0.70842  0.56832  Biso   1.000  C
  H146     1.0000 0.40599  0.75879  0.56850  Biso   1.000  H
  O33      1.0000 0.23366  0.56767  0.52212  Biso   1.000  O
  C231     1.0000 0.28297  0.66657  0.52205  Biso   1.000  C
  O34      1.0000 0.33401  0.76635  0.52212  Biso   1.000  O
  O35      1.0000 0.24766  0.55736  0.56883  Biso   1.000  O
  C232     1.0000 0.27873  0.65527  0.56841  Biso   1.000  C
  O36      1.0000 0.30970  0.75235  0.56883  Biso   1.000  O
  C233     1.0000 0.21439  0.54236  0.53436  Biso   1.000  C
  H147     1.0000 0.24880  0.66661  0.52190  Biso   1.000  H
  C234     1.0000 0.32798  0.78559  0.53436  Biso   1.000  C
  C235     1.0000 0.22139  0.53621  0.55680  Biso   1.000  C
  H148     1.0000 0.24119  0.64721  0.56850  Biso   1.000  H
  C236     1.0000 0.31481  0.77861  0.55680  Biso   1.000  C
  N49      1.0000 0.16526  0.49615  0.53359  Biso   1.000  N
  N50      1.0000 0.24443  0.56538  0.54552  Biso   1.000  N
  N51      1.0000 0.33089  0.83475  0.53359  Biso   1.000  N
  N52      1.0000 0.32093  0.75559  0.54552  Biso   1.000  N
  N53      1.0000 0.17481  0.48875  0.55784  Biso   1.000  N
  N54      1.0000 0.31395  0.82520  0.55784  Biso   1.000  N
  C237     1.0000 0.14680  0.47067  0.54593  Biso   1.000  C
  C238     1.0000 0.32391  0.85325  0.54593  Biso   1.000  C
  C239     1.0000 0.09075  0.42255  0.54648  Biso   1.000  C
  C240     1.0000 0.33180  0.90927  0.54648  Biso   1.000  C
  C241     1.0000 0.07648  0.38237  0.55654  Biso   1.000  C
  C242     1.0000 0.04994  0.41918  0.53751  Biso   1.000  C
  C243     1.0000 0.30589  0.92352  0.55654  Biso   1.000  C
  C244     1.0000 0.36924  0.95003  0.53751  Biso   1.000  C
  H149     1.0000 0.10370  0.38411  0.56270  Biso   1.000  H
  C245     1.0000 0.02107  0.33898  0.55744  Biso   1.000  C
  H150     1.0000 0.05970  0.44611  0.53040  Biso   1.000  H
  C246     1.0000 0.99571  0.37700  0.53887  Biso   1.000  C
  H151     1.0000 0.28040  0.89630  0.56270  Biso   1.000  H
  C247     1.0000 0.31790  0.97891  0.55744  Biso   1.000  C
  H152     1.0000 0.38641  0.94031  0.53040  Biso   1.000  H
  C248     1.0000 0.38128  0.00426  0.53887  Biso   1.000  C
  H153     1.0000 0.01141  0.31080  0.56420  Biso   1.000  H
  C249     1.0000 0.98028  0.33615  0.54883  Biso   1.000  C
  H154     1.0000 0.96819  0.37588  0.53280  Biso   1.000  H
  H155     1.0000 0.29938  0.98860  0.56420  Biso   1.000  H
  C250     1.0000 0.35586  0.01972  0.54883  Biso   1.000  C
  H156     1.0000 0.40770  0.03178  0.53280  Biso   1.000  H
  C251     1.0000 0.91995  0.29077  0.55015  Biso   1.000  C
  C252     1.0000 0.37083  0.08002  0.55015  Biso   1.000  C
  H157     1.0000 0.91642  0.26551  0.55760  Biso   1.000  H
  H158     1.0000 0.90761  0.27012  0.54150  Biso   1.000  H
  H159     1.0000 0.89702  0.30760  0.55220  Biso   1.000  H
  H160     1.0000 0.34911  0.08360  0.55760  Biso   1.000  H
  H161     1.0000 0.36249  0.09237  0.54150  Biso   1.000  H
  H162     1.0000 0.41060  0.10300  0.55220  Biso   1.000  H
  C253     1.0000 0.64075  0.48721  0.45392  Biso   1.000  C
  C254     1.0000 0.59857  0.46274  0.44434  Biso   1.000  C
  C255     1.0000 0.69193  0.53135  0.45013  Biso   1.000  C
  H163     1.0000 0.63469  0.47379  0.46310  Biso   1.000  H
  C256     1.0000 0.60698  0.48036  0.43076  Biso   1.000  C
  H164     1.0000 0.56320  0.43331  0.44710  Biso   1.000  H
  C257     1.0000 0.70030  0.54996  0.43670  Biso   1.000  C
  C258     1.0000 0.73635  0.55944  0.46061  Biso   1.000  C
  C259     1.0000 0.56076  0.45197  0.42034  Biso   1.000  C
  C260     1.0000 0.65788  0.52399  0.42714  Biso   1.000  C
  H165     1.0000 0.73512  0.58051  0.43400  Biso   1.000  H
  N55      1.0000 0.78038  0.60906  0.45705  Biso   1.000  N
  N56      1.0000 0.72882  0.53430  0.47276  Biso   1.000  N
  H166     1.0000 0.57370  0.46972  0.41130  Biso   1.000  H
  H167     1.0000 0.54990  0.41262  0.41970  Biso   1.000  H
  H168     1.0000 0.52870  0.45509  0.42320  Biso   1.000  H
  H169     1.0000 0.66420  0.53671  0.41790  Biso   1.000  H
  C261     1.0000 0.81574  0.63299  0.46745  Biso   1.000  C
  C262     1.0000 0.76956  0.56310  0.48155  Biso   1.000  C
  O37      1.0000 0.85880  0.68419  0.46450  Biso   1.000  O
  N57      1.0000 0.81348  0.61292  0.47992  Biso   1.000  N
  O38      1.0000 0.76354  0.53716  0.49368  Biso   1.000  O
  C263     1.0000 0.89601  0.71212  0.47547  Biso   1.000  C
  C264     1.0000 0.80806  0.56401  0.50299  Biso   1.000  C
  C265     1.0000 0.88345  0.74150  0.48467  Biso   1.000  C
  C266     1.0000 0.94510  0.71141  0.47587  Biso   1.000  C
  C267     1.0000 0.80364  0.59505  0.51336  Biso   1.000  C
  C268     1.0000 0.85392  0.55720  0.50136  Biso   1.000  C
  C269     1.0000 0.92163  0.77034  0.49493  Biso   1.000  C
  H170     1.0000 0.84959  0.74200  0.48400  Biso   1.000  H
  C270     1.0000 0.98189  0.74138  0.48628  Biso   1.000  C
  H171     1.0000 0.95340  0.69130  0.46930  Biso   1.000  H
  C271     1.0000 0.84714  0.61920  0.52251  Biso   1.000  C
  H172     1.0000 0.77211  0.59971  0.51420  Biso   1.000  H
  C272     1.0000 0.89540  0.58221  0.51098  Biso   1.000  C
  H173     1.0000 0.85650  0.53629  0.49400  Biso   1.000  H
  O39      1.0000 0.90868  0.80001  0.50449  Biso   1.000  O
  C273     1.0000 0.97165  0.77142  0.49582  Biso   1.000  C
  O40      1.0000 0.03279  0.74146  0.48677  Biso   1.000  O
  O41      1.0000 0.84361  0.65057  0.53351  Biso   1.000  O
  C274     1.0000 0.89288  0.61301  0.52175  Biso   1.000  C
  O42      1.0000 0.94220  0.57511  0.50965  Biso   1.000  O
  C275     1.0000 0.88585  0.77408  0.51642  Biso   1.000  C
  H174     1.0000 0.99802  0.79220  0.50281  Biso   1.000  H
  C276     1.0000 0.03018  0.69491  0.49197  Biso   1.000  C
  C277     1.0000 0.85560  0.70314  0.53046  Biso   1.000  C
  H175     1.0000 0.92179  0.62930  0.52840  Biso   1.000  H
  C278     1.0000 0.98645  0.61546  0.50279  Biso   1.000  C
  N58      1.0000 0.87468  0.80421  0.52507  Biso   1.000  N
  N59      1.0000 0.87668  0.72305  0.51820  Biso   1.000  N
  N60      1.0000 0.98364  0.65843  0.49811  Biso   1.000  N
  N61      1.0000 0.07611  0.69234  0.49005  Biso   1.000  N
  N62      1.0000 0.84363  0.72720  0.54045  Biso   1.000  N
  N63      1.0000 0.02800  0.60528  0.50182  Biso   1.000  N
  C279     1.0000 0.85244  0.77815  0.53695  Biso   1.000  C
  C280     1.0000 0.07227  0.64509  0.49510  Biso   1.000  C
  C281     1.0000 0.83382  0.80562  0.54686  Biso   1.000  C
  C282     1.0000 0.11839  0.63482  0.49247  Biso   1.000  C
  C283     1.0000 0.82035  0.78638  0.56030  Biso   1.000  C
  C284     1.0000 0.82490  0.84809  0.54261  Biso   1.000  C
  C285     1.0000 0.15582  0.66146  0.48180  Biso   1.000  C
  C286     1.0000 0.12428  0.59651  0.50046  Biso   1.000  C
  H176     1.0000 0.82620  0.75721  0.56340  Biso   1.000  H
  C287     1.0000 0.79856  0.80903  0.56925  Biso   1.000  C
  C288     1.0000 0.80132  0.86974  0.55144  Biso   1.000  C
  H177     1.0000 0.83510  0.86260  0.53360  Biso   1.000  H
  H178     1.0000 0.15291  0.68810  0.47630  Biso   1.000  H
  C289     1.0000 0.19714  0.64908  0.47922  Biso   1.000  C
  C290     1.0000 0.16612  0.58496  0.49769  Biso   1.000  C
  H179     1.0000 0.09930  0.57822  0.50790  Biso   1.000  H
  H180     1.0000 0.79102  0.79631  0.57850  Biso   1.000  H
  C291     1.0000 0.78753  0.85009  0.56499  Biso   1.000  C
  H181     1.0000 0.79440  0.89809  0.54830  Biso   1.000  H
  H182     1.0000 0.22249  0.66740  0.47190  Biso   1.000  H
  C292     1.0000 0.20254  0.61022  0.48713  Biso   1.000  C
  H183     1.0000 0.16960  0.55882  0.50330  Biso   1.000  H
  C293     1.0000 0.76170  0.87357  0.57448  Biso   1.000  C
  C294     1.0000 0.24712  0.59530  0.48406  Biso   1.000  C
  H184     1.0000 0.75751  0.90212  0.56960  Biso   1.000  H
  H185     1.0000 0.72512  0.84381  0.57750  Biso   1.000  H
  H186     1.0000 0.78562  0.89011  0.58250  Biso   1.000  H
  H187     1.0000 0.24399  0.56709  0.49060  Biso   1.000  H
  H188     1.0000 0.24218  0.58059  0.47470  Biso   1.000  H
  H189     1.0000 0.28388  0.62859  0.48490  Biso   1.000  H
  C295     1.0000 0.46521  0.32286  0.40259  Biso   1.000  C
  C296     1.0000 0.48702  0.36732  0.39363  Biso   1.000  C
  H190     1.0000 0.45766  0.32805  0.41183  Biso   1.000  H
  C297     1.0000 0.45419  0.27078  0.39832  Biso   1.000  C
  C298     1.0000 0.50047  0.36155  0.38020  Biso   1.000  C
  H191     1.0000 0.49287  0.40235  0.39673  Biso   1.000  H
  C299     1.0000 0.46796  0.26493  0.38478  Biso   1.000  C
  C300     1.0000 0.42833  0.22146  0.40781  Biso   1.000  C
  C301     1.0000 0.51910  0.40759  0.37028  Biso   1.000  C
  C302     1.0000 0.49157  0.31014  0.37595  Biso   1.000  C
  H192     1.0000 0.46108  0.22964  0.38164  Biso   1.000  H
  H193     1.0000 0.42418  0.18875  0.40294  Biso   1.000  H
  H194     1.0000 0.39178  0.21464  0.41083  Biso   1.000  H
  H195     1.0000 0.45229  0.22885  0.41583  Biso   1.000  H
  N64      1.0000 0.54136  0.40381  0.35841  Biso   1.000  N
  N65      1.0000 0.51026  0.44973  0.37378  Biso   1.000  N
  H196     1.0000 0.50175  0.30582  0.36693  Biso   1.000  H
  C303     1.0000 0.55251  0.44512  0.34975  Biso   1.000  C
  C304     1.0000 0.52225  0.48580  0.36379  Biso   1.000  C
  O43      1.0000 0.57535  0.44200  0.33783  Biso   1.000  O
  N66      1.0000 0.54335  0.48696  0.35153  Biso   1.000  N
  O44      1.0000 0.51025  0.52636  0.36684  Biso   1.000  O
  C305     1.0000 0.58830  0.48460  0.32827  Biso   1.000  C
  C306     1.0000 0.51377  0.56127  0.35584  Biso   1.000  C
  C307     1.0000 0.55010  0.47529  0.31800  Biso   1.000  C
  C308     1.0000 0.63833  0.53355  0.32915  Biso   1.000  C
  C309     1.0000 0.47030  0.54190  0.34669  Biso   1.000  C
  C310     1.0000 0.55954  0.61321  0.35508  Biso   1.000  C
  C311     1.0000 0.56268  0.51722  0.30879  Biso   1.000  C
  H197     1.0000 0.51626  0.44092  0.31733  Biso   1.000  H
  C312     1.0000 0.64855  0.57386  0.31961  Biso   1.000  C
  H198     1.0000 0.66465  0.53912  0.33613  Biso   1.000  H
  C313     1.0000 0.47472  0.57739  0.33633  Biso   1.000  C
  H199     1.0000 0.43876  0.50575  0.34754  Biso   1.000  H
  C314     1.0000 0.56206  0.64654  0.34431  Biso   1.000  C
  H200     1.0000 0.58846  0.62585  0.36173  Biso   1.000  H
  O45      1.0000 0.52548  0.50795  0.29784  Biso   1.000  O
  C315     1.0000 0.61176  0.56700  0.30920  Biso   1.000  C
  O46      1.0000 0.69948  0.62468  0.32010  Biso   1.000  O
  O47      1.0000 0.43021  0.55969  0.32702  Biso   1.000  O
  C316     1.0000 0.52059  0.63004  0.33469  Biso   1.000  C
  O48      1.0000 0.60886  0.70040  0.34299  Biso   1.000  O
  C317     1.0000 0.48244  0.51610  0.30078  Biso   1.000  C
  H201     1.0000 0.62007  0.59543  0.30263  Biso   1.000  H
  C318     1.0000 0.69683  0.66861  0.32530  Biso   1.000  C
  C319     1.0000 0.43623  0.53978  0.31488  Biso   1.000  C
  H202     1.0000 0.52316  0.65352  0.32733  Biso   1.000  H
  C320     1.0000 0.65315  0.70435  0.33612  Biso   1.000  C
  N67      1.0000 0.44704  0.50467  0.29038  Biso   1.000  N
  N68      1.0000 0.48014  0.53388  0.31326  Biso   1.000  N
  N69      1.0000 0.74278  0.71711  0.32339  Biso   1.000  N
  N70      1.0000 0.65030  0.65855  0.33145  Biso   1.000  N
  N71      1.0000 0.39551  0.52786  0.30609  Biso   1.000  N
  N72      1.0000 0.69468  0.75609  0.33515  Biso   1.000  N
  C321     1.0000 0.40303  0.51024  0.29395  Biso   1.000  C
  C322     1.0000 0.73894  0.76053  0.32843  Biso   1.000  C
  C323     1.0000 0.35859  0.49390  0.28347  Biso   1.000  C
  C324     1.0000 0.78509  0.81693  0.32581  Biso   1.000  C
  C325     1.0000 0.36698  0.48368  0.27003  Biso   1.000  C
  C326     1.0000 0.30741  0.48684  0.28726  Biso   1.000  C
  C327     1.0000 0.82252  0.82773  0.31513  Biso   1.000  C
  C328     1.0000 0.79095  0.86110  0.33379  Biso   1.000  C
  C329     1.0000 0.32452  0.46722  0.26047  Biso   1.000  C
  H203     1.0000 0.40177  0.48792  0.26734  Biso   1.000  H
  C330     1.0000 0.26519  0.46914  0.27767  Biso   1.000  C
  H204     1.0000 0.30135  0.49424  0.29644  Biso   1.000  H
  H205     1.0000 0.81957  0.79814  0.30963  Biso   1.000  H
  C331     1.0000 0.86384  0.88142  0.31256  Biso   1.000  C
  C332     1.0000 0.83280  0.91450  0.33102  Biso   1.000  C
  H206     1.0000 0.76599  0.85445  0.34124  Biso   1.000  H
  C333     1.0000 0.27367  0.45995  0.26409  Biso   1.000  C
  H207     1.0000 0.33086  0.46082  0.25124  Biso   1.000  H
  H208     1.0000 0.22985  0.46323  0.28043  Biso   1.000  H
  H209     1.0000 0.88916  0.88845  0.30524  Biso   1.000  H
  C334     1.0000 0.86923  0.92568  0.32046  Biso   1.000  C
  H210     1.0000 0.83628  0.94413  0.33663  Biso   1.000  H
  C335     1.0000 0.22743  0.44212  0.25368  Biso   1.000  C
  C336     1.0000 0.91379  0.98515  0.31740  Biso   1.000  C
  H211     1.0000 0.24037  0.43735  0.24463  Biso   1.000  H
  H212     1.0000 0.21657  0.47063  0.25303  Biso   1.000  H
  H213     1.0000 0.19537  0.40693  0.25653  Biso   1.000  H
  H214     1.0000 0.90887  0.99496  0.30804  Biso   1.000  H
  H215     1.0000 0.95056  0.98864  0.31823  Biso   1.000  H
  H216     1.0000 0.91067  0.01021  0.32393  Biso   1.000  H
  C337     1.0000 0.28463  0.02755  0.46877  Biso   1.000  C
  C338     1.0000 0.24620  0.00208  0.45822  Biso   1.000  C
  C339     1.0000 0.33743  0.03345  0.46742  Biso   1.000  C
  H217     1.0000 0.27521  0.04081  0.47680  Biso   1.000  H
  C340     1.0000 0.19061  0.99830  0.45875  Biso   1.000  C
  C341     1.0000 0.26079  0.98217  0.44681  Biso   1.000  C
  C342     1.0000 0.35128  0.01213  0.45640  Biso   1.000  C
  H218     1.0000 0.36442  0.05282  0.47440  Biso   1.000  H
  N73      1.0000 0.16314  0.98791  0.44681  Biso   1.000  N
  N74      1.0000 0.17409  0.00815  0.47084  Biso   1.000  N
  H219     1.0000 0.23532  0.96563  0.43940  Biso   1.000  H
  C343     1.0000 0.31254  0.98649  0.44618  Biso   1.000  C
  C344     1.0000 0.40799  0.01558  0.45571  Biso   1.000  C
  C345     1.0000 0.11671  0.98998  0.44778  Biso   1.000  C
  C346     1.0000 0.12499  0.00569  0.47016  Biso   1.000  C
  H220     1.0000 0.32152  0.97133  0.43850  Biso   1.000  H
  H221     1.0000 0.43751  0.05461  0.45600  Biso   1.000  H
  H222     1.0000 0.41071  0.99863  0.44710  Biso   1.000  H
  H223     1.0000 0.41203  0.99572  0.46360  Biso   1.000  H
  O49      1.0000 0.09036  0.98350  0.43579  Biso   1.000  O
  N75      1.0000 0.09449  0.99738  0.45898  Biso   1.000  N
  O50      1.0000 0.10597  0.01363  0.48211  Biso   1.000  O
  C347     1.0000 0.04421  0.99190  0.43623  Biso   1.000  C
  C348     1.0000 0.05166  0.00644  0.48195  Biso   1.000  C
  C349     1.0000 0.05360  0.04538  0.43614  Biso   1.000  C
  C350     1.0000 0.99177  0.94639  0.43614  Biso   1.000  C
  C351     1.0000 0.04649  0.05303  0.48196  Biso   1.000  C
  C352     1.0000 0.00657  0.95354  0.48196  Biso   1.000  C
  H224     1.0000 0.09030  0.07638  0.43600  Biso   1.000  H
  C353     1.0000 0.00813  0.05232  0.43623  Biso   1.000  C
  C354     1.0000 0.94768  0.95582  0.43623  Biso   1.000  C
  H225     1.0000 0.98611  0.90974  0.43600  Biso   1.000  H
  C355     1.0000 0.99356  0.04521  0.48195  Biso   1.000  C
  H226     1.0000 0.07819  0.08931  0.48200  Biso   1.000  H
  C356     1.0000 0.95481  0.94834  0.48195  Biso   1.000  C
  H227     1.0000 0.01112  0.92183  0.48200  Biso   1.000  H
  O51      1.0000 0.01652  0.10688  0.43579  Biso   1.000  O
  C357     1.0000 0.95463  0.00823  0.43614  Biso   1.000  C
  O52      1.0000 0.89314  0.90966  0.43579  Biso   1.000  O
  O53      1.0000 0.98636  0.09234  0.48211  Biso   1.000  O
  C358     1.0000 0.94700  0.99348  0.48196  Biso   1.000  C
  O54      1.0000 0.90768  0.89403  0.48211  Biso   1.000  O
  C359     1.0000 0.01004  0.12675  0.44778  Biso   1.000  C
  H228     1.0000 0.92359  0.01388  0.43600  Biso   1.000  H
  C360     1.0000 0.87327  0.88331  0.44778  Biso   1.000  C
  C361     1.0000 0.99431  0.11927  0.47016  Biso   1.000  C
  H229     1.0000 0.91070  0.98890  0.48200  Biso   1.000  H
  C362     1.0000 0.88073  0.87504  0.47016  Biso   1.000  C
  N76      1.0000 0.01214  0.17529  0.44681  Biso   1.000  N
  N77      1.0000 0.00267  0.09712  0.45898  Biso   1.000  N
  N78      1.0000 0.82476  0.83689  0.44681  Biso   1.000  N
  N79      1.0000 0.90291  0.90558  0.45898  Biso   1.000  N
  N80      1.0000 0.99188  0.16594  0.47084  Biso   1.000  N
  N81      1.0000 0.83409  0.82596  0.47084  Biso   1.000  N
  C363     1.0000 0.00169  0.19233  0.45875  Biso   1.000  C
  C364     1.0000 0.80768  0.80942  0.45875  Biso   1.000  C
  C365     1.0000 0.99795  0.24415  0.45822  Biso   1.000  C
  C366     1.0000 0.75588  0.75382  0.45822  Biso   1.000  C
  C367     1.0000 0.01786  0.27864  0.44681  Biso   1.000  C
  C368     1.0000 0.97241  0.25707  0.46877  Biso   1.000  C
  C369     1.0000 0.72138  0.73923  0.44681  Biso   1.000  C
  C370     1.0000 0.74292  0.71538  0.46877  Biso   1.000  C
  H230     1.0000 0.03441  0.26970  0.43940  Biso   1.000  H
  C371     1.0000 0.01353  0.32606  0.44618  Biso   1.000  C
  C372     1.0000 0.96654  0.30399  0.46742  Biso   1.000  C
  H231     1.0000 0.95920  0.23438  0.47680  Biso   1.000  H
  H232     1.0000 0.73030  0.76470  0.43940  Biso   1.000  H
  C373     1.0000 0.67395  0.68749  0.44618  Biso   1.000  C
  C374     1.0000 0.69605  0.66260  0.46742  Biso   1.000  C
  H233     1.0000 0.76559  0.72481  0.47680  Biso   1.000  H
  H234     1.0000 0.02870  0.35020  0.43850  Biso   1.000  H
  C375     1.0000 0.98786  0.33915  0.45640  Biso   1.000  C
  H235     1.0000 0.94720  0.31159  0.47440  Biso   1.000  H
  H236     1.0000 0.64981  0.67852  0.43850  Biso   1.000  H
  C376     1.0000 0.66088  0.64876  0.45640  Biso   1.000  C
  H237     1.0000 0.68843  0.63563  0.47440  Biso   1.000  H
  C377     1.0000 0.98445  0.39242  0.45571  Biso   1.000  C
  C378     1.0000 0.60761  0.59204  0.45571  Biso   1.000  C
  H238     1.0000 0.00142  0.41212  0.44710  Biso   1.000  H
  H239     1.0000 0.00431  0.41632  0.46360  Biso   1.000  H
  H240     1.0000 0.94539  0.38291  0.45600  Biso   1.000  H
  H241     1.0000 0.58791  0.58933  0.44710  Biso   1.000  H
  H242     1.0000 0.58372  0.58800  0.46360  Biso   1.000  H
  H243     1.0000 0.61712  0.56253  0.45600  Biso   1.000  H
  C379     1.0000 0.32769  0.31226  0.39077  Biso   1.000  C
  C380     1.0000 0.28428  0.25682  0.38987  Biso   1.000  C
  H244     1.0000 0.35589  0.32194  0.39753  Biso   1.000  H
  C381     1.0000 0.33053  0.35307  0.38216  Biso   1.000  C
  C382     1.0000 0.24412  0.24257  0.37982  Biso   1.000  C
  H245     1.0000 0.28257  0.22964  0.39603  Biso   1.000  H
  C383     1.0000 0.28968  0.33765  0.37220  Biso   1.000  C
  C384     1.0000 0.37587  0.41337  0.38348  Biso   1.000  C
  C385     1.0000 0.19599  0.18655  0.37926  Biso   1.000  C
  C386     1.0000 0.24746  0.28338  0.37084  Biso   1.000  C
  H246     1.0000 0.29074  0.36512  0.36614  Biso   1.000  H
  H247     1.0000 0.40116  0.41694  0.39093  Biso   1.000  H
  H248     1.0000 0.39656  0.42575  0.37483  Biso   1.000  H
  H249     1.0000 0.35907  0.43635  0.38553  Biso   1.000  H
  N82      1.0000 0.17053  0.16810  0.36693  Biso   1.000  N
  N83      1.0000 0.17792  0.15854  0.39117  Biso   1.000  N
  H250     1.0000 0.22057  0.27365  0.36374  Biso   1.000  H
  C387     1.0000 0.12428  0.11894  0.36769  Biso   1.000  C
  C388     1.0000 0.13048  0.11195  0.39013  Biso   1.000  C
  O55      1.0000 0.09901  0.09970  0.35545  Biso   1.000  O
  N84      1.0000 0.10133  0.08893  0.37886  Biso   1.000  N
  O56      1.0000 0.10932  0.08569  0.40216  Biso   1.000  O
  C389     1.0000 0.04892  0.04924  0.35553  Biso   1.000  C
  C390     1.0000 0.05338  0.04176  0.40165  Biso   1.000  C
  C391     1.0000 0.00010  0.05037  0.35538  Biso   1.000  C
  C392     1.0000 0.05027  0.99992  0.35538  Biso   1.000  C
  C393     1.0000 0.01142  0.05465  0.40174  Biso   1.000  C
  C394     1.0000 0.04322  0.98861  0.40174  Biso   1.000  C
  H251     1.0000 0.00005  0.08453  0.35523  Biso   1.000  H
  C395     1.0000 0.95077  0.99971  0.35553  Biso   1.000  C
  C396     1.0000 0.00030  0.95109  0.35553  Biso   1.000  C
  H252     1.0000 0.08448  0.99996  0.35523  Biso   1.000  H
  H253     1.0000 0.01947  0.09213  0.40183  Biso   1.000  H
  C397     1.0000 0.95824  0.01164  0.40165  Biso   1.000  C
  C398     1.0000 0.98840  0.94664  0.40165  Biso   1.000  C
  H254     1.0000 0.07266  0.98055  0.40183  Biso   1.000  H
  O57      1.0000 0.90034  0.99934  0.35545  Biso   1.000  O
  C399     1.0000 0.94965  0.94976  0.35538  Biso   1.000  C
  O58      1.0000 0.00067  0.90101  0.35545  Biso   1.000  O
  C400     1.0000 0.94537  0.95682  0.40174  Biso   1.000  C
  O59      1.0000 0.91431  0.02360  0.40216  Biso   1.000  O
  O60      1.0000 0.97638  0.89071  0.40216  Biso   1.000  O
  C401     1.0000 0.88107  0.00536  0.36769  Biso   1.000  C
  H255     1.0000 0.91549  0.91556  0.35523  Biso   1.000  H
  C402     1.0000 0.99466  0.87574  0.36769  Biso   1.000  C
  H256     1.0000 0.90790  0.92736  0.40183  Biso   1.000  H
  C403     1.0000 0.88803  0.01849  0.39013  Biso   1.000  C
  C404     1.0000 0.98149  0.86955  0.39013  Biso   1.000  C
  N85      1.0000 0.83193  0.00245  0.36693  Biso   1.000  N
  N86      1.0000 0.91107  0.01238  0.37886  Biso   1.000  N
  N87      1.0000 0.99756  0.82949  0.36693  Biso   1.000  N
  N88      1.0000 0.98762  0.89873  0.37886  Biso   1.000  N
  N89      1.0000 0.84147  0.01937  0.39117  Biso   1.000  N
  N90      1.0000 0.98061  0.82209  0.39117  Biso   1.000  N
  C405     1.0000 0.81343  0.00943  0.37926  Biso   1.000  C
  C406     1.0000 0.99058  0.80402  0.37926  Biso   1.000  C
  C407     1.0000 0.75744  0.00154  0.37982  Biso   1.000  C
  C408     1.0000 0.99848  0.75589  0.37982  Biso   1.000  C
  C409     1.0000 0.71665  0.96414  0.37084  Biso   1.000  C
  C410     1.0000 0.74317  0.02747  0.38987  Biso   1.000  C
  C411     1.0000 0.97257  0.71575  0.38987  Biso   1.000  C
  C412     1.0000 0.03590  0.75257  0.37084  Biso   1.000  C
  C413     1.0000 0.66237  0.95204  0.37220  Biso   1.000  C
  H257     1.0000 0.72638  0.94697  0.36374  Biso   1.000  H
  H258     1.0000 0.77037  0.05294  0.39603  Biso   1.000  H
  C414     1.0000 0.68776  0.01542  0.39077  Biso   1.000  C
  H259     1.0000 0.94708  0.71745  0.39603  Biso   1.000  H
  C415     1.0000 0.98458  0.67232  0.39077  Biso   1.000  C
  C416     1.0000 0.04797  0.71035  0.37220  Biso   1.000  C
  H260     1.0000 0.05308  0.77946  0.36374  Biso   1.000  H
  C417     1.0000 0.64695  0.97748  0.38216  Biso   1.000  C
  H261     1.0000 0.63489  0.92565  0.36614  Biso   1.000  H
  H262     1.0000 0.67806  0.03395  0.39753  Biso   1.000  H
  H263     1.0000 0.96607  0.64415  0.39753  Biso   1.000  H
  C418     1.0000 0.02254  0.66950  0.38216  Biso   1.000  C
  H264     1.0000 0.07438  0.70927  0.36614  Biso   1.000  H
  C419     1.0000 0.58663  0.96252  0.38348  Biso   1.000  C
  C420     1.0000 0.03752  0.62416  0.38348  Biso   1.000  C
  H265     1.0000 0.58307  0.98425  0.39093  Biso   1.000  H
  H266     1.0000 0.57429  0.97087  0.37483  Biso   1.000  H
  H267     1.0000 0.56369  0.92275  0.38553  Biso   1.000  H
  H268     1.0000 0.01576  0.59885  0.39093  Biso   1.000  H
  H269     1.0000 0.02918  0.60346  0.37483  Biso   1.000  H
  H270     1.0000 0.07726  0.64095  0.38553  Biso   1.000  H
  C421     1.0000 0.53480  0.67717  0.59741  Biso   1.000  C
  C422     1.0000 0.51298  0.63266  0.60637  Biso   1.000  C
  H271     1.0000 0.54235  0.67198  0.58817  Biso   1.000  H
  C423     1.0000 0.54581  0.72920  0.60168  Biso   1.000  C
  C424     1.0000 0.49955  0.63848  0.61980  Biso   1.000  C
  H272     1.0000 0.50714  0.59767  0.60327  Biso   1.000  H
  C425     1.0000 0.53206  0.73510  0.61522  Biso   1.000  C
  C426     1.0000 0.57166  0.77853  0.59219  Biso   1.000  C
  C427     1.0000 0.48093  0.59239  0.62972  Biso   1.000  C
  C428     1.0000 0.50844  0.68989  0.62405  Biso   1.000  C
  H273     1.0000 0.53894  0.77038  0.61836  Biso   1.000  H
  H274     1.0000 0.57583  0.81127  0.59706  Biso   1.000  H
  H275     1.0000 0.60823  0.78538  0.58917  Biso   1.000  H
  H276     1.0000 0.54775  0.77117  0.58417  Biso   1.000  H
  N91      1.0000 0.45866  0.59622  0.64159  Biso   1.000  N
  N92      1.0000 0.48973  0.55026  0.62622  Biso   1.000  N
  H277     1.0000 0.49824  0.69417  0.63307  Biso   1.000  H
  C429     1.0000 0.44748  0.55487  0.65025  Biso   1.000  C
  C430     1.0000 0.47776  0.51423  0.63621  Biso   1.000  C
  O61      1.0000 0.42466  0.55803  0.66217  Biso   1.000  O
  N93      1.0000 0.45668  0.51302  0.64847  Biso   1.000  N
  O62      1.0000 0.48975  0.47362  0.63316  Biso   1.000  O
  C431     1.0000 0.41169  0.51539  0.67173  Biso   1.000  C
  C432     1.0000 0.48622  0.43872  0.64416  Biso   1.000  C
  C433     1.0000 0.36166  0.46643  0.67085  Biso   1.000  C
  C434     1.0000 0.44991  0.52474  0.68200  Biso   1.000  C
  C435     1.0000 0.44047  0.38681  0.64492  Biso   1.000  C
  C436     1.0000 0.52970  0.45808  0.65331  Biso   1.000  C
  C437     1.0000 0.35146  0.42617  0.68039  Biso   1.000  C
  H278     1.0000 0.33534  0.46087  0.66387  Biso   1.000  H
  H279     1.0000 0.48374  0.55907  0.68267  Biso   1.000  H
  C438     1.0000 0.43731  0.48277  0.69121  Biso   1.000  C
  C439     1.0000 0.43793  0.35344  0.65569  Biso   1.000  C
  H280     1.0000 0.41155  0.37418  0.63827  Biso   1.000  H
  H281     1.0000 0.56125  0.49428  0.65246  Biso   1.000  H
  C440     1.0000 0.52529  0.42263  0.66367  Biso   1.000  C
  O63      1.0000 0.30053  0.37534  0.67990  Biso   1.000  O
  C441     1.0000 0.38823  0.43298  0.69080  Biso   1.000  C
  O64      1.0000 0.47457  0.49208  0.70216  Biso   1.000  O
  O65      1.0000 0.39114  0.29958  0.65701  Biso   1.000  O
  C442     1.0000 0.47942  0.36998  0.66531  Biso   1.000  C
  O66      1.0000 0.56978  0.44030  0.67298  Biso   1.000  O
  C443     1.0000 0.30317  0.33137  0.67470  Biso   1.000  C
  H282     1.0000 0.37992  0.40456  0.69737  Biso   1.000  H
  C444     1.0000 0.51757  0.48393  0.69922  Biso   1.000  C
  C445     1.0000 0.34686  0.29568  0.66388  Biso   1.000  C
  H283     1.0000 0.47684  0.34646  0.67267  Biso   1.000  H
  C446     1.0000 0.56376  0.46020  0.68512  Biso   1.000  C
  N94      1.0000 0.25725  0.28288  0.67661  Biso   1.000  N
  N95      1.0000 0.34969  0.34143  0.66855  Biso   1.000  N
  N96      1.0000 0.55298  0.49536  0.70962  Biso   1.000  N
  N97      1.0000 0.51987  0.46614  0.68674  Biso   1.000  N
  N98      1.0000 0.30534  0.24394  0.66485  Biso   1.000  N
  N99      1.0000 0.60449  0.47213  0.69391  Biso   1.000  N
  C447     1.0000 0.26108  0.23949  0.67157  Biso   1.000  C
  C448     1.0000 0.59696  0.48975  0.70605  Biso   1.000  C
  C449     1.0000 0.21492  0.18310  0.67419  Biso   1.000  C
  C450     1.0000 0.64142  0.50612  0.71653  Biso   1.000  C
  C451     1.0000 0.17752  0.17229  0.68487  Biso   1.000  C
  C452     1.0000 0.20907  0.13892  0.66621  Biso   1.000  C
  C453     1.0000 0.69258  0.51314  0.71274  Biso   1.000  C
  C454     1.0000 0.63302  0.51630  0.72997  Biso   1.000  C
  H284     1.0000 0.18044  0.20188  0.69037  Biso   1.000  H
  C455     1.0000 0.13617  0.11860  0.68744  Biso   1.000  C
  C456     1.0000 0.16725  0.08552  0.66898  Biso   1.000  C
  H285     1.0000 0.23406  0.14557  0.65876  Biso   1.000  H
  H286     1.0000 0.69866  0.50579  0.70356  Biso   1.000  H
  C457     1.0000 0.73480  0.53085  0.72233  Biso   1.000  C
  C458     1.0000 0.67549  0.53280  0.73953  Biso   1.000  C
  H287     1.0000 0.59822  0.51206  0.73266  Biso   1.000  H
  H288     1.0000 0.11085  0.11158  0.69476  Biso   1.000  H
  C459     1.0000 0.13078  0.07435  0.67954  Biso   1.000  C
  H289     1.0000 0.16371  0.05585  0.66337  Biso   1.000  H
  H290     1.0000 0.77016  0.53679  0.71957  Biso   1.000  H
  C460     1.0000 0.72638  0.54007  0.73591  Biso   1.000  C
  H291     1.0000 0.66913  0.53916  0.74876  Biso   1.000  H
  C461     1.0000 0.08620  0.01484  0.68260  Biso   1.000  C
  C462     1.0000 0.77258  0.55790  0.74632  Biso   1.000  C
  H292     1.0000 0.09114  0.00507  0.69196  Biso   1.000  H
  H293     1.0000 0.04946  0.01139  0.68177  Biso   1.000  H
  H294     1.0000 0.08932  0.98978  0.67607  Biso   1.000  H
  H295     1.0000 0.75964  0.56268  0.75537  Biso   1.000  H
  H296     1.0000 0.78343  0.52935  0.74697  Biso   1.000  H
  H297     1.0000 0.80463  0.59306  0.74347  Biso   1.000  H
  C463     1.0000 0.34687  0.35415  0.61284  Biso   1.000  C
  C464     1.0000 0.35118  0.40589  0.61347  Biso   1.000  C
  H298     1.0000 0.36203  0.34517  0.60517  Biso   1.000  H
  C465     1.0000 0.32119  0.31538  0.62307  Biso   1.000  C
  C466     1.0000 0.33127  0.42047  0.62489  Biso   1.000  C
  H299     1.0000 0.36774  0.43136  0.60607  Biso   1.000  H
  C467     1.0000 0.29985  0.32921  0.63409  Biso   1.000  C
  C468     1.0000 0.31775  0.25869  0.62238  Biso   1.000  C
  C469     1.0000 0.33504  0.47603  0.62541  Biso   1.000  C
  C470     1.0000 0.30579  0.38203  0.63544  Biso   1.000  C
  H300     1.0000 0.28056  0.30229  0.64107  Biso   1.000  H
  H301     1.0000 0.33473  0.25595  0.61377  Biso   1.000  H
  H302     1.0000 0.33762  0.25466  0.63027  Biso   1.000  H
  H303     1.0000 0.27874  0.22919  0.62266  Biso   1.000  H
  N100     1.0000 0.34549  0.50355  0.61347  Biso   1.000  N
  N101     1.0000 0.32520  0.49262  0.63751  Biso   1.000  N
  H304     1.0000 0.29254  0.39147  0.64347  Biso   1.000  H
  C471     1.0000 0.34336  0.54996  0.61445  Biso   1.000  C
  C472     1.0000 0.32764  0.54169  0.63683  Biso   1.000  C
  O67      1.0000 0.34984  0.57631  0.60246  Biso   1.000  O
  N102     1.0000 0.33598  0.57220  0.62565  Biso   1.000  N
  O68      1.0000 0.31968  0.56069  0.64878  Biso   1.000  O
  C473     1.0000 0.34147  0.62248  0.60290  Biso   1.000  C
  C474     1.0000 0.32686  0.61500  0.64861  Biso   1.000  C
  C475     1.0000 0.28795  0.61305  0.60281  Biso   1.000  C
  C476     1.0000 0.38695  0.67493  0.60281  Biso   1.000  C
  C477     1.0000 0.28030  0.62020  0.64863  Biso   1.000  C
  C478     1.0000 0.37984  0.66013  0.64863  Biso   1.000  C
  H305     1.0000 0.25694  0.57635  0.60266  Biso   1.000  H
  C479     1.0000 0.28101  0.65855  0.60290  Biso   1.000  C
  H306     1.0000 0.42364  0.68058  0.60266  Biso   1.000  H
  C480     1.0000 0.37754  0.71902  0.60290  Biso   1.000  C
  C481     1.0000 0.28813  0.67314  0.64861  Biso   1.000  C
  H307     1.0000 0.24404  0.58849  0.64867  Biso   1.000  H
  C482     1.0000 0.38501  0.71187  0.64861  Biso   1.000  C
  H308     1.0000 0.41153  0.65556  0.64867  Biso   1.000  H
  O69      1.0000 0.22647  0.65016  0.60246  Biso   1.000  O
  C483     1.0000 0.32510  0.71204  0.60281  Biso   1.000  C
  O70      1.0000 0.42370  0.77354  0.60246  Biso   1.000  O
  O71      1.0000 0.24101  0.68033  0.64878  Biso   1.000  O
  C484     1.0000 0.33987  0.71968  0.64863  Biso   1.000  C
  O72      1.0000 0.43931  0.75900  0.64878  Biso   1.000  O
  C485     1.0000 0.20657  0.65664  0.61445  Biso   1.000  C
  H309     1.0000 0.31943  0.74308  0.60266  Biso   1.000  H
  C486     1.0000 0.45004  0.79340  0.61445  Biso   1.000  C
  C487     1.0000 0.21405  0.67239  0.63683  Biso   1.000  C
  H310     1.0000 0.34444  0.75596  0.64867  Biso   1.000  H
  C488     1.0000 0.45834  0.78597  0.63683  Biso   1.000  C
  N103     1.0000 0.15804  0.65452  0.61347  Biso   1.000  N
  N104     1.0000 0.23619  0.66400  0.62565  Biso   1.000  N
  N105     1.0000 0.49648  0.84194  0.61347  Biso   1.000  N
  N106     1.0000 0.42777  0.76377  0.62565  Biso   1.000  N
  N107     1.0000 0.16739  0.67480  0.63751  Biso   1.000  N
  N108     1.0000 0.50739  0.83259  0.63751  Biso   1.000  N
  C489     1.0000 0.14101  0.66495  0.62541  Biso   1.000  C
  C490     1.0000 0.52398  0.85902  0.62541  Biso   1.000  C
  C491     1.0000 0.08921  0.66873  0.62489  Biso   1.000  C
  C492     1.0000 0.57956  0.91080  0.62489  Biso   1.000  C
  C493     1.0000 0.05471  0.64883  0.61347  Biso   1.000  C
  C494     1.0000 0.07627  0.69425  0.63544  Biso   1.000  C
  C495     1.0000 0.59411  0.94530  0.61347  Biso   1.000  C
  C496     1.0000 0.61801  0.92377  0.63544  Biso   1.000  C
  H311     1.0000 0.06364  0.63229  0.60607  Biso   1.000  H
  C497     1.0000 0.00728  0.65315  0.61284  Biso   1.000  C
  C498     1.0000 0.02937  0.70015  0.63409  Biso   1.000  C
  H312     1.0000 0.09893  0.70746  0.64347  Biso   1.000  H
  H313     1.0000 0.56863  0.93636  0.60607  Biso   1.000  H
  C499     1.0000 0.64588  0.99275  0.61284  Biso   1.000  C
  C500     1.0000 0.67078  0.97064  0.63409  Biso   1.000  C
  H314     1.0000 0.60853  0.90108  0.64347  Biso   1.000  H
  H315     1.0000 0.98314  0.63798  0.60517  Biso   1.000  H
  C501     1.0000 0.99419  0.67879  0.62307  Biso   1.000  C
  H316     1.0000 0.02173  0.71947  0.64107  Biso   1.000  H
  H317     1.0000 0.65483  0.01686  0.60517  Biso   1.000  H
  C502     1.0000 0.68461  0.00580  0.62307  Biso   1.000  C
  H318     1.0000 0.69774  0.97829  0.64107  Biso   1.000  H
  C503     1.0000 0.94092  0.68224  0.62238  Biso   1.000  C
  C504     1.0000 0.74134  0.05908  0.62238  Biso   1.000  C
  H319     1.0000 0.92125  0.66528  0.61377  Biso   1.000  H
  H320     1.0000 0.91706  0.66238  0.63027  Biso   1.000  H
  H321     1.0000 0.95042  0.72126  0.62266  Biso   1.000  H
  H322     1.0000 0.74404  0.07873  0.61377  Biso   1.000  H
  H323     1.0000 0.74531  0.08293  0.63027  Biso   1.000  H
  H324     1.0000 0.77084  0.04956  0.62266  Biso   1.000  H
  C505     1.0000 0.19945  0.19066  0.59381  Biso   1.000  C
  C506     1.0000 0.20671  0.14703  0.59742  Biso   1.000  C
  H325     1.0000 0.20584  0.20338  0.58457  Biso   1.000  H
  C507     1.0000 0.18300  0.21664  0.60336  Biso   1.000  C
  C508     1.0000 0.22455  0.11865  0.58701  Biso   1.000  C
  C509     1.0000 0.19754  0.12941  0.61100  Biso   1.000  C
  C510     1.0000 0.17279  0.19802  0.61680  Biso   1.000  C
  H326     1.0000 0.17873  0.24718  0.60067  Biso   1.000  H
  H327     1.0000 0.22933  0.13635  0.57797  Biso   1.000  H
  H328     1.0000 0.19603  0.07925  0.58637  Biso   1.000  H
  H329     1.0000 0.25972  0.12176  0.58987  Biso   1.000  H
  C511     1.0000 0.17984  0.15389  0.62059  Biso   1.000  C
  H330     1.0000 0.20345  0.09999  0.61377  Biso   1.000  H
  C512     1.0000 0.15642  0.22611  0.62728  Biso   1.000  C
  H331     1.0000 0.17244  0.14046  0.62977  Biso   1.000  H
  N109     1.0000 0.16199  0.27569  0.62371  Biso   1.000  N
  N110     1.0000 0.13881  0.20097  0.63942  Biso   1.000  N
  C513     1.0000 0.15059  0.29967  0.63412  Biso   1.000  C
  C514     1.0000 0.12687  0.22977  0.64821  Biso   1.000  C
  O73      1.0000 0.15873  0.35087  0.63117  Biso   1.000  O
  N111     1.0000 0.13278  0.27959  0.64659  Biso   1.000  N
  O74      1.0000 0.10696  0.20384  0.66035  Biso   1.000  O
  C515     1.0000 0.14945  0.37879  0.64213  Biso   1.000  C
  C516     1.0000 0.08928  0.23068  0.66966  Biso   1.000  C
  C517     1.0000 0.19136  0.40813  0.65133  Biso   1.000  C
  C518     1.0000 0.09964  0.37808  0.64254  Biso   1.000  C
  C519     1.0000 0.12478  0.26173  0.68003  Biso   1.000  C
  C520     1.0000 0.03664  0.22387  0.66803  Biso   1.000  C
  C521     1.0000 0.18205  0.43701  0.66160  Biso   1.000  C
  H332     1.0000 0.22575  0.40867  0.65066  Biso   1.000  H
  C522     1.0000 0.09280  0.40801  0.65295  Biso   1.000  C
  H333     1.0000 0.07123  0.35797  0.63596  Biso   1.000  H
  C523     1.0000 0.10538  0.28583  0.68917  Biso   1.000  C
  H334     1.0000 0.16094  0.26638  0.68087  Biso   1.000  H
  C524     1.0000 0.02012  0.24884  0.67764  Biso   1.000  C
  H335     1.0000 0.01313  0.20296  0.66067  Biso   1.000  H
  O75      1.0000 0.22470  0.46668  0.67116  Biso   1.000  O
  C525     1.0000 0.13310  0.43809  0.66249  Biso   1.000  C
  O76      1.0000 0.04201  0.40813  0.65343  Biso   1.000  O
  O77      1.0000 0.14028  0.31720  0.70018  Biso   1.000  O
  C526     1.0000 0.05346  0.27968  0.68842  Biso   1.000  C
  O78      1.0000 0.96628  0.24178  0.67632  Biso   1.000  O
  C527     1.0000 0.22156  0.44075  0.68309  Biso   1.000  C
  H336     1.0000 0.12755  0.45887  0.66947  Biso   1.000  H
  C528     1.0000 0.99805  0.36155  0.65864  Biso   1.000  C
  C529     1.0000 0.18088  0.36982  0.69713  Biso   1.000  C
  H337     1.0000 0.04084  0.29597  0.69507  Biso   1.000  H
  C530     1.0000 0.96234  0.28213  0.66946  Biso   1.000  C
  N112     1.0000 0.26286  0.47088  0.69174  Biso   1.000  N
  N113     1.0000 0.17969  0.38968  0.68487  Biso   1.000  N
  N114     1.0000 0.00812  0.32510  0.66478  Biso   1.000  N
  N115     1.0000 0.94955  0.35897  0.65672  Biso   1.000  N
  N116     1.0000 0.21695  0.39388  0.70711  Biso   1.000  N
  N117     1.0000 0.91061  0.27195  0.66848  Biso   1.000  N
  C531     1.0000 0.25909  0.44483  0.70361  Biso   1.000  C
  C532     1.0000 0.90615  0.31176  0.66177  Biso   1.000  C
  C533     1.0000 0.30514  0.47229  0.71353  Biso   1.000  C
  C534     1.0000 0.84977  0.30150  0.65914  Biso   1.000  C
  C535     1.0000 0.29935  0.45301  0.72697  Biso   1.000  C
  C536     1.0000 0.35653  0.51477  0.70928  Biso   1.000  C
  C537     1.0000 0.83897  0.32813  0.64847  Biso   1.000  C
  C538     1.0000 0.80556  0.26318  0.66712  Biso   1.000  C
  H338     1.0000 0.26434  0.42388  0.73007  Biso   1.000  H
  C539     1.0000 0.34380  0.47570  0.73592  Biso   1.000  C
  C540     1.0000 0.40174  0.53638  0.71811  Biso   1.000  C
  H339     1.0000 0.36083  0.52927  0.70027  Biso   1.000  H
  H340     1.0000 0.86853  0.35477  0.64296  Biso   1.000  H
  C541     1.0000 0.78528  0.31575  0.64589  Biso   1.000  C
  C542     1.0000 0.75217  0.25163  0.66435  Biso   1.000  C
  H341     1.0000 0.81223  0.24485  0.67457  Biso   1.000  H
  H342     1.0000 0.33863  0.46299  0.74517  Biso   1.000  H
  C543     1.0000 0.39590  0.51676  0.73165  Biso   1.000  C
  H343     1.0000 0.43703  0.56476  0.71497  Biso   1.000  H
  H344     1.0000 0.77825  0.33408  0.63857  Biso   1.000  H
  C544     1.0000 0.74102  0.27689  0.65379  Biso   1.000  C
  H345     1.0000 0.72255  0.22549  0.66996  Biso   1.000  H
  C545     1.0000 0.44521  0.54024  0.74114  Biso   1.000  C
  C546     1.0000 0.68152  0.26197  0.65073  Biso   1.000  C
  H346     1.0000 0.47795  0.56879  0.73627  Biso   1.000  H
  H347     1.0000 0.45203  0.51049  0.74417  Biso   1.000  H
  H348     1.0000 0.43786  0.55678  0.74916  Biso   1.000  H
  H349     1.0000 0.65643  0.23376  0.65726  Biso   1.000  H
  H350     1.0000 0.67175  0.24726  0.64137  Biso   1.000  H
  H351     1.0000 0.67804  0.29526  0.65157  Biso   1.000  H
  O79      1.0000 0.65017  0.42371  0.39754  Biso   1.000  O
  C547     1.0000 0.65854  0.37754  0.39710  Biso   1.000  C
  C548     1.0000 0.65665  0.45006  0.38555  Biso   1.000  C
  C549     1.0000 0.61306  0.32510  0.39719  Biso   1.000  C
  C550     1.0000 0.71204  0.38694  0.39719  Biso   1.000  C
  N118     1.0000 0.66401  0.42779  0.37435  Biso   1.000  N
  N119     1.0000 0.65456  0.49648  0.38653  Biso   1.000  N
  C551     1.0000 0.62247  0.28101  0.39710  Biso   1.000  C
  H352     1.0000 0.57637  0.31945  0.39734  Biso   1.000  H
  C552     1.0000 0.71900  0.34147  0.39710  Biso   1.000  C
  H353     1.0000 0.74305  0.42363  0.39734  Biso   1.000  H
  C553     1.0000 0.67237  0.45833  0.36317  Biso   1.000  C
  C554     1.0000 0.66495  0.52395  0.37459  Biso   1.000  C
  O80      1.0000 0.57632  0.22649  0.39754  Biso   1.000  O
  C555     1.0000 0.67492  0.28795  0.39719  Biso   1.000  C
  O81      1.0000 0.77352  0.34983  0.39754  Biso   1.000  O
  O82      1.0000 0.68031  0.43930  0.35122  Biso   1.000  O
  N120     1.0000 0.67482  0.50741  0.36249  Biso   1.000  N
  C556     1.0000 0.66874  0.57955  0.37511  Biso   1.000  C
  C557     1.0000 0.54995  0.20658  0.38555  Biso   1.000  C
  H354     1.0000 0.68059  0.25695  0.39734  Biso   1.000  H
  C558     1.0000 0.79344  0.34338  0.38555  Biso   1.000  C
  C559     1.0000 0.67315  0.38502  0.35139  Biso   1.000  C
  C560     1.0000 0.64881  0.59410  0.38653  Biso   1.000  C
  C561     1.0000 0.69423  0.61799  0.36456  Biso   1.000  C
  N121     1.0000 0.57222  0.23621  0.37435  Biso   1.000  N
  N122     1.0000 0.50354  0.15808  0.38653  Biso   1.000  N
  N123     1.0000 0.76380  0.33599  0.37435  Biso   1.000  N
  N124     1.0000 0.84195  0.34546  0.38653  Biso   1.000  N
  C562     1.0000 0.62021  0.33989  0.35137  Biso   1.000  C
  C563     1.0000 0.71971  0.37983  0.35137  Biso   1.000  C
  H355     1.0000 0.63226  0.56862  0.39393  Biso   1.000  H
  C564     1.0000 0.65314  0.64588  0.38716  Biso   1.000  C
  C565     1.0000 0.70014  0.67077  0.36591  Biso   1.000  C
  H356     1.0000 0.70745  0.60852  0.35653  Biso   1.000  H
  C566     1.0000 0.54171  0.21406  0.36317  Biso   1.000  C
  C567     1.0000 0.47607  0.14100  0.37459  Biso   1.000  C
  C568     1.0000 0.78597  0.32763  0.36317  Biso   1.000  C
  C569     1.0000 0.85898  0.33503  0.37459  Biso   1.000  C
  C570     1.0000 0.61498  0.28811  0.35139  Biso   1.000  C
  H357     1.0000 0.58846  0.34442  0.35133  Biso   1.000  H
  C571     1.0000 0.71189  0.32689  0.35139  Biso   1.000  C
  H358     1.0000 0.75597  0.41154  0.35133  Biso   1.000  H
  H359     1.0000 0.63798  0.65485  0.39483  Biso   1.000  H
  C572     1.0000 0.67880  0.68461  0.37693  Biso   1.000  C
  H360     1.0000 0.71949  0.69774  0.35893  Biso   1.000  H
  O83      1.0000 0.56068  0.24099  0.35122  Biso   1.000  O
  N125     1.0000 0.49261  0.16739  0.36249  Biso   1.000  N
  C573     1.0000 0.42048  0.08922  0.37511  Biso   1.000  C
  O84      1.0000 0.75900  0.31970  0.35122  Biso   1.000  O
  N126     1.0000 0.83263  0.32522  0.36249  Biso   1.000  N
  C574     1.0000 0.91078  0.33125  0.37511  Biso   1.000  C
  C575     1.0000 0.66012  0.28030  0.35137  Biso   1.000  C
  C576     1.0000 0.68226  0.74133  0.37762  Biso   1.000  C
  C577     1.0000 0.40590  0.05473  0.38653  Biso   1.000  C
  C578     1.0000 0.38201  0.07626  0.36456  Biso   1.000  C
  C579     1.0000 0.94528  0.35116  0.38653  Biso   1.000  C
  C580     1.0000 0.92374  0.30578  0.36456  Biso   1.000  C
  H361     1.0000 0.65555  0.24402  0.35133  Biso   1.000  H
  H362     1.0000 0.66526  0.74404  0.38623  Biso   1.000  H
  H363     1.0000 0.66238  0.74532  0.36973  Biso   1.000  H
  H364     1.0000 0.72127  0.77084  0.37734  Biso   1.000  H
  H365     1.0000 0.43137  0.06362  0.39393  Biso   1.000  H
  C581     1.0000 0.35414  0.00727  0.38716  Biso   1.000  C
  C582     1.0000 0.32924  0.02938  0.36591  Biso   1.000  C
  H366     1.0000 0.39148  0.09895  0.35653  Biso   1.000  H
  H367     1.0000 0.93637  0.36774  0.39393  Biso   1.000  H
  C583     1.0000 0.99274  0.34688  0.38716  Biso   1.000  C
  C584     1.0000 0.97064  0.29987  0.36591  Biso   1.000  C
  H368     1.0000 0.90106  0.29252  0.35653  Biso   1.000  H
  H369     1.0000 0.34518  0.98317  0.39483  Biso   1.000  H
  C585     1.0000 0.31540  0.99422  0.37693  Biso   1.000  C
  H370     1.0000 0.30227  0.02173  0.35893  Biso   1.000  H
  H371     1.0000 0.01687  0.36204  0.39483  Biso   1.000  H
  C586     1.0000 0.00581  0.32119  0.37693  Biso   1.000  C
  H372     1.0000 0.97829  0.28055  0.35893  Biso   1.000  H
  C587     1.0000 0.25871  0.94095  0.37762  Biso   1.000  C
  C588     1.0000 0.05909  0.31779  0.37762  Biso   1.000  C
  H373     1.0000 0.25599  0.92125  0.38623  Biso   1.000  H
  H374     1.0000 0.25468  0.91705  0.36973  Biso   1.000  H
  H375     1.0000 0.22917  0.95046  0.37734  Biso   1.000  H
  H376     1.0000 0.07876  0.33474  0.38623  Biso   1.000  H
  H377     1.0000 0.08299  0.33765  0.36973  Biso   1.000  H
  H378     1.0000 0.04957  0.27872  0.37734  Biso   1.000  H
  C589     1.0000 0.13581  0.59854  0.55566  Biso   1.000  C
  C590     1.0000 0.15352  0.64072  0.54608  Biso   1.000  C
  H379     1.0000 0.12992  0.56322  0.55290  Biso   1.000  H
  C591     1.0000 0.12660  0.60698  0.56924  Biso   1.000  C
  C592     1.0000 0.16054  0.69192  0.54987  Biso   1.000  C
  H380     1.0000 0.16090  0.63470  0.53690  Biso   1.000  H
  C593     1.0000 0.13388  0.65789  0.57286  Biso   1.000  C
  C594     1.0000 0.10879  0.56077  0.57966  Biso   1.000  C
  C595     1.0000 0.17689  0.73635  0.53939  Biso   1.000  C
  C596     1.0000 0.15035  0.70032  0.56330  Biso   1.000  C
  H381     1.0000 0.12750  0.66420  0.58210  Biso   1.000  H
  H382     1.0000 0.10398  0.57369  0.58870  Biso   1.000  H
  H383     1.0000 0.13730  0.54992  0.58030  Biso   1.000  H
  H384     1.0000 0.07360  0.52869  0.57680  Biso   1.000  H
  N127     1.0000 0.17133  0.78036  0.54295  Biso   1.000  N
  N128     1.0000 0.19451  0.72883  0.52724  Biso   1.000  N
  H385     1.0000 0.15460  0.73510  0.56600  Biso   1.000  H
  C597     1.0000 0.18273  0.81576  0.53255  Biso   1.000  C
  C598     1.0000 0.20645  0.76955  0.51845  Biso   1.000  C
  O85      1.0000 0.17460  0.85882  0.53550  Biso   1.000  O
  N129     1.0000 0.20056  0.81348  0.52008  Biso   1.000  N
  O86      1.0000 0.22638  0.76357  0.50632  Biso   1.000  O
  C599     1.0000 0.18391  0.89601  0.52453  Biso   1.000  C
  C600     1.0000 0.24406  0.80807  0.49701  Biso   1.000  C
  C601     1.0000 0.14195  0.88342  0.51533  Biso   1.000  C
  C602     1.0000 0.23368  0.94509  0.52413  Biso   1.000  C
  C603     1.0000 0.20855  0.80363  0.48664  Biso   1.000  C
  C604     1.0000 0.29671  0.85391  0.49864  Biso   1.000  C
  C605     1.0000 0.15126  0.92161  0.50507  Biso   1.000  C
  H386     1.0000 0.10758  0.84959  0.51600  Biso   1.000  H
  C606     1.0000 0.24052  0.98187  0.51372  Biso   1.000  C
  H387     1.0000 0.26209  0.95340  0.53070  Biso   1.000  H
  C607     1.0000 0.22793  0.84714  0.47749  Biso   1.000  C
  H388     1.0000 0.17237  0.77209  0.48580  Biso   1.000  H
  C608     1.0000 0.31322  0.89543  0.48902  Biso   1.000  C
  H389     1.0000 0.32020  0.85649  0.50600  Biso   1.000  H
  O87      1.0000 0.10866  0.90868  0.49551  Biso   1.000  O
  C609     1.0000 0.20023  0.97168  0.50418  Biso   1.000  C
  O88      1.0000 0.29133  0.03281  0.51323  Biso   1.000  O
  O89      1.0000 0.19305  0.84361  0.46649  Biso   1.000  O
  C610     1.0000 0.27989  0.89289  0.47825  Biso   1.000  C
  O90      1.0000 0.36708  0.94218  0.49035  Biso   1.000  O
  C611     1.0000 0.11180  0.88587  0.48358  Biso   1.000  C
  H390     1.0000 0.20579  0.99799  0.49719  Biso   1.000  H
  C612     1.0000 0.33527  0.03015  0.50803  Biso   1.000  C
  C613     1.0000 0.15243  0.85557  0.46954  Biso   1.000  C
  H391     1.0000 0.29251  0.92182  0.47160  Biso   1.000  H
  C614     1.0000 0.37102  0.98648  0.49721  Biso   1.000  C
  N130     1.0000 0.07047  0.87469  0.47493  Biso   1.000  N
  N131     1.0000 0.15363  0.87668  0.48180  Biso   1.000  N
  N132     1.0000 0.32523  0.98365  0.50189  Biso   1.000  N
  N133     1.0000 0.38375  0.07607  0.50995  Biso   1.000  N
  N134     1.0000 0.11640  0.84361  0.45955  Biso   1.000  N
  N135     1.0000 0.42273  0.02799  0.49818  Biso   1.000  N
  C615     1.0000 0.07427  0.85242  0.46305  Biso   1.000  C
  C616     1.0000 0.42719  0.07225  0.50490  Biso   1.000  C
  C617     1.0000 0.02818  0.83380  0.45314  Biso   1.000  C
  C618     1.0000 0.48358  0.11838  0.50753  Biso   1.000  C
  C619     1.0000 0.03399  0.82038  0.43970  Biso   1.000  C
  C620     1.0000 0.97680  0.82490  0.45739  Biso   1.000  C
  C621     1.0000 0.49438  0.15582  0.51820  Biso   1.000  C
  C622     1.0000 0.52775  0.12424  0.49954  Biso   1.000  C
  H392     1.0000 0.06900  0.82619  0.43660  Biso   1.000  H
  C623     1.0000 0.98954  0.79856  0.43075  Biso   1.000  C
  C624     1.0000 0.93157  0.80130  0.44856  Biso   1.000  C
  H393     1.0000 0.97250  0.83509  0.46640  Biso   1.000  H
  H394     1.0000 0.46480  0.15287  0.52370  Biso   1.000  H
  C625     1.0000 0.54807  0.19713  0.52078  Biso   1.000  C
  C626     1.0000 0.58114  0.16609  0.50231  Biso   1.000  C
  H395     1.0000 0.52111  0.09931  0.49210  Biso   1.000  H
  H396     1.0000 0.99468  0.79099  0.42150  Biso   1.000  H
  C627     1.0000 0.93746  0.78755  0.43501  Biso   1.000  C
  H397     1.0000 0.89630  0.79440  0.45170  Biso   1.000  H
  H398     1.0000 0.55510  0.22248  0.52810  Biso   1.000  H
  C628     1.0000 0.59234  0.20253  0.51287  Biso   1.000  C
  H399     1.0000 0.61081  0.16958  0.49670  Biso   1.000  H
  C629     1.0000 0.88815  0.76170  0.42552  Biso   1.000  C
  C630     1.0000 0.65181  0.24712  0.51594  Biso   1.000  C
  H400     1.0000 0.85539  0.75750  0.43040  Biso   1.000  H
  H401     1.0000 0.88129  0.72509  0.42250  Biso   1.000  H
  H402     1.0000 0.89550  0.78559  0.41750  Biso   1.000  H
  H403     1.0000 0.67692  0.24401  0.50940  Biso   1.000  H
  H404     1.0000 0.66158  0.24218  0.52530  Biso   1.000  H
  H405     1.0000 0.65530  0.28390  0.51510  Biso   1.000  H
  O91      1.0000 0.77363  0.23646  0.49368  Biso   1.000  O
  C631     1.0000 0.79354  0.23043  0.48155  Biso   1.000  C
  C632     1.0000 0.75595  0.19195  0.50299  Biso   1.000  C
  N136     1.0000 0.80549  0.27116  0.47276  Biso   1.000  N
  N137     1.0000 0.79946  0.18655  0.47992  Biso   1.000  N
  C633     1.0000 0.79144  0.19636  0.51336  Biso   1.000  C
  C634     1.0000 0.70328  0.14607  0.50136  Biso   1.000  C
  C635     1.0000 0.82310  0.26364  0.46061  Biso   1.000  C
  C636     1.0000 0.81726  0.18422  0.46745  Biso   1.000  C
  C637     1.0000 0.77208  0.15289  0.52251  Biso   1.000  C
  H406     1.0000 0.82762  0.22790  0.51420  Biso   1.000  H
  C638     1.0000 0.68679  0.10460  0.51098  Biso   1.000  C
  H407     1.0000 0.67979  0.14350  0.49400  Biso   1.000  H
  C639     1.0000 0.83947  0.30810  0.45013  Biso   1.000  C
  N138     1.0000 0.82867  0.21963  0.45705  Biso   1.000  N
  O92      1.0000 0.82541  0.14121  0.46450  Biso   1.000  O
  O93      1.0000 0.80696  0.15642  0.53351  Biso   1.000  O
  C640     1.0000 0.72013  0.10713  0.52175  Biso   1.000  C
  O94      1.0000 0.63295  0.05781  0.50965  Biso   1.000  O
  C641     1.0000 0.84651  0.35926  0.45392  Biso   1.000  C
  C642     1.0000 0.84965  0.29967  0.43670  Biso   1.000  C
  C643     1.0000 0.81611  0.10398  0.47547  Biso   1.000  C
  C644     1.0000 0.84756  0.14441  0.53046  Biso   1.000  C
  H408     1.0000 0.70750  0.07821  0.52840  Biso   1.000  H
  C645     1.0000 0.62903  0.01355  0.50279  Biso   1.000  C
  C646     1.0000 0.86420  0.40148  0.44434  Biso   1.000  C
  H409     1.0000 0.83909  0.36529  0.46310  Biso   1.000  H
  C647     1.0000 0.86613  0.34214  0.42714  Biso   1.000  C
  H410     1.0000 0.84539  0.26488  0.43400  Biso   1.000  H
  C648     1.0000 0.85804  0.11657  0.48467  Biso   1.000  C
  C649     1.0000 0.76631  0.05490  0.47587  Biso   1.000  C
  N139     1.0000 0.84638  0.12334  0.51820  Biso   1.000  N
  N140     1.0000 0.88359  0.15638  0.54045  Biso   1.000  N
  N141     1.0000 0.67476  0.01633  0.49811  Biso   1.000  N
  N142     1.0000 0.57729  0.97203  0.50182  Biso   1.000  N
  C650     1.0000 0.87339  0.39300  0.43076  Biso   1.000  C
  H411     1.0000 0.87010  0.43680  0.44710  Biso   1.000  H
  H412     1.0000 0.87251  0.33582  0.41790  Biso   1.000  H
  C651     1.0000 0.84873  0.07838  0.49493  Biso   1.000  C
  H413     1.0000 0.89241  0.15039  0.48400  Biso   1.000  H
  C652     1.0000 0.75947  0.01812  0.48628  Biso   1.000  C
  H414     1.0000 0.73790  0.04659  0.46930  Biso   1.000  H
  C653     1.0000 0.88822  0.11416  0.51642  Biso   1.000  C
  C654     1.0000 0.92572  0.14757  0.53695  Biso   1.000  C
  C655     1.0000 0.66474  0.96987  0.49197  Biso   1.000  C
  C656     1.0000 0.57281  0.92773  0.49510  Biso   1.000  C
  C657     1.0000 0.89123  0.43926  0.42034  Biso   1.000  C
  O95      1.0000 0.89135  0.09134  0.50449  Biso   1.000  O
  C658     1.0000 0.79978  0.02834  0.49582  Biso   1.000  C
  O96      1.0000 0.70868  0.96721  0.48677  Biso   1.000  O
  N143     1.0000 0.92954  0.12534  0.52507  Biso   1.000  N
  C659     1.0000 0.97181  0.16619  0.54686  Biso   1.000  C
  N144     1.0000 0.61626  0.92395  0.49005  Biso   1.000  N
  C660     1.0000 0.51642  0.88160  0.49247  Biso   1.000  C
  H415     1.0000 0.89601  0.42629  0.41130  Biso   1.000  H
  H416     1.0000 0.86271  0.45010  0.41970  Biso   1.000  H
  H417     1.0000 0.92639  0.47130  0.42320  Biso   1.000  H
  H418     1.0000 0.79420  0.00199  0.50281  Biso   1.000  H
  C661     1.0000 0.96602  0.17965  0.56030  Biso   1.000  C
  C662     1.0000 0.02321  0.17512  0.54261  Biso   1.000  C
  C663     1.0000 0.50563  0.84420  0.48180  Biso   1.000  C
  C664     1.0000 0.47224  0.87574  0.50046  Biso   1.000  C
  H419     1.0000 0.93099  0.17379  0.56340  Biso   1.000  H
  C665     1.0000 0.01047  0.20147  0.56925  Biso   1.000  C
  C666     1.0000 0.06845  0.19873  0.55144  Biso   1.000  C
  H420     1.0000 0.02749  0.16490  0.53360  Biso   1.000  H
  H421     1.0000 0.53520  0.84711  0.47630  Biso   1.000  H
  C667     1.0000 0.45192  0.80285  0.47922  Biso   1.000  C
  C668     1.0000 0.41886  0.83390  0.49769  Biso   1.000  C
  H422     1.0000 0.47890  0.90072  0.50790  Biso   1.000  H
  H423     1.0000 0.00531  0.20899  0.57850  Biso   1.000  H
  C669     1.0000 0.06255  0.21248  0.56499  Biso   1.000  C
  H424     1.0000 0.10369  0.20558  0.54830  Biso   1.000  H
  H425     1.0000 0.44490  0.77750  0.47190  Biso   1.000  H
  C670     1.0000 0.40769  0.79745  0.48713  Biso   1.000  C
  H426     1.0000 0.38922  0.83041  0.50330  Biso   1.000  H
  C671     1.0000 0.11186  0.23833  0.57448  Biso   1.000  C
  C672     1.0000 0.34820  0.75290  0.48406  Biso   1.000  C
  H427     1.0000 0.14460  0.24248  0.56960  Biso   1.000  H
  H428     1.0000 0.11870  0.27490  0.57750  Biso   1.000  H
  H429     1.0000 0.10450  0.21439  0.58250  Biso   1.000  H
  H430     1.0000 0.32313  0.75602  0.49060  Biso   1.000  H
  H431     1.0000 0.33842  0.75781  0.47470  Biso   1.000  H
  H432     1.0000 0.34471  0.71612  0.48490  Biso   1.000  H
  C673     1.0000 0.80056  0.80936  0.40619  Biso   1.000  C
  C674     1.0000 0.81702  0.78339  0.39664  Biso   1.000  C
  C675     1.0000 0.79328  0.85296  0.40258  Biso   1.000  C
  H433     1.0000 0.79417  0.79665  0.41543  Biso   1.000  H
  C676     1.0000 0.82724  0.80197  0.38320  Biso   1.000  C
  H434     1.0000 0.82129  0.75285  0.39933  Biso   1.000  H
  C677     1.0000 0.80251  0.87062  0.38900  Biso   1.000  C
  C678     1.0000 0.77544  0.88134  0.41299  Biso   1.000  C
  C679     1.0000 0.84357  0.77387  0.37272  Biso   1.000  C
  C680     1.0000 0.82019  0.84610  0.37941  Biso   1.000  C
  H435     1.0000 0.79656  0.90004  0.38623  Biso   1.000  H
  H436     1.0000 0.77066  0.86364  0.42203  Biso   1.000  H
  H437     1.0000 0.80396  0.92074  0.41363  Biso   1.000  H
  H438     1.0000 0.74027  0.87822  0.41013  Biso   1.000  H
  N145     1.0000 0.83800  0.72430  0.37629  Biso   1.000  N
  N146     1.0000 0.86118  0.79901  0.36058  Biso   1.000  N
  H439     1.0000 0.82755  0.85952  0.37023  Biso   1.000  H
  C681     1.0000 0.84940  0.70032  0.36588  Biso   1.000  C
  C682     1.0000 0.87314  0.77026  0.35179  Biso   1.000  C
  O97      1.0000 0.84128  0.64916  0.36883  Biso   1.000  O
  N147     1.0000 0.86721  0.72039  0.35341  Biso   1.000  N
  O98      1.0000 0.89304  0.79615  0.33965  Biso   1.000  O
  C683     1.0000 0.85057  0.62123  0.35787  Biso   1.000  C
  C684     1.0000 0.91073  0.76934  0.33034  Biso   1.000  C
  C685     1.0000 0.80863  0.59185  0.34867  Biso   1.000  C
  C686     1.0000 0.90035  0.62190  0.35746  Biso   1.000  C
  C687     1.0000 0.87525  0.73826  0.31997  Biso   1.000  C
  C688     1.0000 0.96338  0.77612  0.33197  Biso   1.000  C
  C689     1.0000 0.81794  0.56297  0.33840  Biso   1.000  C
  H440     1.0000 0.77426  0.59135  0.34934  Biso   1.000  H
  C690     1.0000 0.90720  0.59198  0.34705  Biso   1.000  C
  H441     1.0000 0.92878  0.64205  0.36404  Biso   1.000  H
  C691     1.0000 0.89461  0.71416  0.31083  Biso   1.000  C
  H442     1.0000 0.83908  0.73365  0.31913  Biso   1.000  H
  C692     1.0000 0.97987  0.75114  0.32236  Biso   1.000  C
  H443     1.0000 0.98686  0.79702  0.33933  Biso   1.000  H
  O99      1.0000 0.77534  0.53334  0.32884  Biso   1.000  O
  C693     1.0000 0.86689  0.56189  0.33751  Biso   1.000  C
  O100     1.0000 0.95802  0.59185  0.34657  Biso   1.000  O
  O101     1.0000 0.85971  0.68278  0.29982  Biso   1.000  O
  C694     1.0000 0.94655  0.72035  0.31158  Biso   1.000  C
  O102     1.0000 0.03371  0.75821  0.32368  Biso   1.000  O
  C695     1.0000 0.77845  0.55927  0.31691  Biso   1.000  C
  H444     1.0000 0.87250  0.54115  0.33053  Biso   1.000  H
  C696     1.0000 0.00194  0.63844  0.34136  Biso   1.000  C
  C697     1.0000 0.81914  0.63021  0.30287  Biso   1.000  C
  H445     1.0000 0.95917  0.70406  0.30493  Biso   1.000  H
  C698     1.0000 0.03765  0.71785  0.33054  Biso   1.000  C
  N148     1.0000 0.73713  0.52910  0.30826  Biso   1.000  N
  N149     1.0000 0.82030  0.61030  0.31513  Biso   1.000  N
  N150     1.0000 0.99189  0.67493  0.33522  Biso   1.000  N
  N151     1.0000 0.05044  0.64102  0.34328  Biso   1.000  N
  N152     1.0000 0.78308  0.60611  0.29289  Biso   1.000  N
  N153     1.0000 0.08940  0.72808  0.33152  Biso   1.000  N
  C699     1.0000 0.74096  0.55520  0.29639  Biso   1.000  C
  C700     1.0000 0.09386  0.68827  0.33823  Biso   1.000  C
  C701     1.0000 0.69487  0.52773  0.28647  Biso   1.000  C
  C702     1.0000 0.15022  0.69849  0.34086  Biso   1.000  C
  C703     1.0000 0.70064  0.54697  0.27303  Biso   1.000  C
  C704     1.0000 0.64346  0.48522  0.29072  Biso   1.000  C
  C705     1.0000 0.16104  0.67189  0.35153  Biso   1.000  C
  C706     1.0000 0.19445  0.73685  0.33288  Biso   1.000  C
  C707     1.0000 0.65621  0.52432  0.26408  Biso   1.000  C
  H446     1.0000 0.73567  0.57615  0.26993  Biso   1.000  H
  C708     1.0000 0.59825  0.46361  0.28189  Biso   1.000  C
  H447     1.0000 0.63918  0.47076  0.29973  Biso   1.000  H
  H448     1.0000 0.13149  0.64525  0.35704  Biso   1.000  H
  C709     1.0000 0.21474  0.68428  0.35411  Biso   1.000  C
  C710     1.0000 0.24784  0.74840  0.33565  Biso   1.000  C
  H449     1.0000 0.18776  0.75513  0.32543  Biso   1.000  H
  C711     1.0000 0.60412  0.48327  0.26835  Biso   1.000  C
  H450     1.0000 0.66138  0.53704  0.25483  Biso   1.000  H
  H451     1.0000 0.56297  0.43523  0.28503  Biso   1.000  H
  H452     1.0000 0.22177  0.66595  0.36143  Biso   1.000  H
  C712     1.0000 0.25900  0.72313  0.34621  Biso   1.000  C
  H453     1.0000 0.27747  0.77454  0.33004  Biso   1.000  H
  C713     1.0000 0.55480  0.45979  0.25886  Biso   1.000  C
  C714     1.0000 0.31850  0.73805  0.34927  Biso   1.000  C
  H454     1.0000 0.52207  0.43124  0.26373  Biso   1.000  H
  H455     1.0000 0.54798  0.48954  0.25583  Biso   1.000  H
  H456     1.0000 0.56219  0.44325  0.25084  Biso   1.000  H
  H457     1.0000 0.34356  0.76623  0.34274  Biso   1.000  H
  H458     1.0000 0.32824  0.75272  0.35863  Biso   1.000  H
  H459     1.0000 0.32195  0.70472  0.34843  Biso   1.000  H
  C715     1.0000 0.21664  0.03366  0.39664  Biso   1.000  C
  C716     1.0000 0.19805  0.02527  0.38320  Biso   1.000  C
  H460     1.0000 0.24717  0.06844  0.39933  Biso   1.000  H
  C717     1.0000 0.19064  0.99123  0.40619  Biso   1.000  C
  C718     1.0000 0.22613  0.06969  0.37272  Biso   1.000  C
  C719     1.0000 0.15390  0.97411  0.37941  Biso   1.000  C
  C720     1.0000 0.14705  0.94032  0.40258  Biso   1.000  C
  H461     1.0000 0.20337  0.99755  0.41543  Biso   1.000  H
  N154     1.0000 0.20099  0.06217  0.36058  Biso   1.000  N
  N155     1.0000 0.27570  0.11370  0.37629  Biso   1.000  N
  H462     1.0000 0.14047  0.96804  0.37023  Biso   1.000  H
  C721     1.0000 0.12941  0.93189  0.38900  Biso   1.000  C
  C722     1.0000 0.11865  0.89411  0.41299  Biso   1.000  C
  C723     1.0000 0.22977  0.10289  0.35179  Biso   1.000  C
  C724     1.0000 0.29970  0.14911  0.36588  Biso   1.000  C
  H463     1.0000 0.09998  0.89656  0.38623  Biso   1.000  H
  H464     1.0000 0.13638  0.90704  0.42203  Biso   1.000  H
  H465     1.0000 0.07929  0.88327  0.41363  Biso   1.000  H
  H466     1.0000 0.12178  0.86207  0.41013  Biso   1.000  H
  O103     1.0000 0.20384  0.09687  0.33965  Biso   1.000  O
  N156     1.0000 0.27959  0.14682  0.35341  Biso   1.000  N
  O104     1.0000 0.35086  0.19212  0.36883  Biso   1.000  O
  C725     1.0000 0.23066  0.14138  0.33034  Biso   1.000  C
  C726     1.0000 0.37877  0.22935  0.35787  Biso   1.000  C
  C727     1.0000 0.26175  0.13697  0.31997  Biso   1.000  C
  C728     1.0000 0.22387  0.18726  0.33197  Biso   1.000  C
  C729     1.0000 0.40814  0.21676  0.34867  Biso   1.000  C
  C730     1.0000 0.37808  0.27843  0.35746  Biso   1.000  C
  C731     1.0000 0.28586  0.18044  0.31083  Biso   1.000  C
  H467     1.0000 0.26638  0.10543  0.31913  Biso   1.000  H
  C732     1.0000 0.24886  0.22873  0.32236  Biso   1.000  C
  H468     1.0000 0.20296  0.18983  0.33933  Biso   1.000  H
  C733     1.0000 0.43702  0.25495  0.33840  Biso   1.000  C
  H469     1.0000 0.40868  0.18293  0.34934  Biso   1.000  H
  C734     1.0000 0.40802  0.31521  0.34705  Biso   1.000  C
  H470     1.0000 0.35798  0.28674  0.36404  Biso   1.000  H
  O105     1.0000 0.31720  0.17691  0.29982  Biso   1.000  O
  C735     1.0000 0.27966  0.22619  0.31158  Biso   1.000  C
  O106     1.0000 0.24177  0.27552  0.32368  Biso   1.000  O
  O107     1.0000 0.46667  0.24199  0.32884  Biso   1.000  O
  C736     1.0000 0.43810  0.30499  0.33751  Biso   1.000  C
  O108     1.0000 0.40816  0.36616  0.34657  Biso   1.000  O
  C737     1.0000 0.36981  0.18892  0.30287  Biso   1.000  C
  H471     1.0000 0.29595  0.25512  0.30493  Biso   1.000  H
  C738     1.0000 0.28213  0.31982  0.33054  Biso   1.000  C
  C739     1.0000 0.44074  0.21921  0.31691  Biso   1.000  C
  H472     1.0000 0.45887  0.33133  0.33053  Biso   1.000  H
  C740     1.0000 0.36155  0.36350  0.34136  Biso   1.000  C
  N157     1.0000 0.39388  0.17695  0.29289  Biso   1.000  N
  N158     1.0000 0.38971  0.20999  0.31513  Biso   1.000  N
  N159     1.0000 0.27194  0.36134  0.33152  Biso   1.000  N
  N160     1.0000 0.32509  0.31700  0.33522  Biso   1.000  N
  N161     1.0000 0.47089  0.20803  0.30826  Biso   1.000  N
  N162     1.0000 0.35900  0.40942  0.34328  Biso   1.000  N
  C741     1.0000 0.44482  0.18576  0.29639  Biso   1.000  C
  C742     1.0000 0.31174  0.40560  0.33823  Biso   1.000  C
  C743     1.0000 0.47229  0.16714  0.28647  Biso   1.000  C
  C744     1.0000 0.30150  0.45177  0.34086  Biso   1.000  C
  C745     1.0000 0.45304  0.15368  0.27303  Biso   1.000  C
  C746     1.0000 0.51475  0.15821  0.29072  Biso   1.000  C
  C747     1.0000 0.32811  0.48917  0.35153  Biso   1.000  C
  C748     1.0000 0.26318  0.45762  0.33288  Biso   1.000  C
  H473     1.0000 0.42386  0.15954  0.26993  Biso   1.000  H
  C749     1.0000 0.47573  0.13190  0.26408  Biso   1.000  C
  C750     1.0000 0.53641  0.13464  0.28189  Biso   1.000  C
  H474     1.0000 0.52926  0.16843  0.29973  Biso   1.000  H
  H475     1.0000 0.35477  0.48626  0.35704  Biso   1.000  H
  C751     1.0000 0.31573  0.53047  0.35411  Biso   1.000  C
  C752     1.0000 0.25162  0.49943  0.33565  Biso   1.000  C
  H476     1.0000 0.24486  0.43265  0.32543  Biso   1.000  H
  H477     1.0000 0.46298  0.12434  0.25483  Biso   1.000  H
  C753     1.0000 0.51673  0.12085  0.26835  Biso   1.000  C
  H478     1.0000 0.56477  0.12775  0.28503  Biso   1.000  H
  H479     1.0000 0.33406  0.55582  0.36143  Biso   1.000  H
  C754     1.0000 0.27690  0.53588  0.34621  Biso   1.000  C
  H480     1.0000 0.22548  0.50292  0.33004  Biso   1.000  H
  C755     1.0000 0.54023  0.09500  0.25886  Biso   1.000  C
  C756     1.0000 0.26198  0.58047  0.34927  Biso   1.000  C
  H481     1.0000 0.56878  0.09084  0.26373  Biso   1.000  H
  H482     1.0000 0.51046  0.05843  0.25583  Biso   1.000  H
  H483     1.0000 0.55677  0.11894  0.25084  Biso   1.000  H
  H484     1.0000 0.23379  0.57735  0.34274  Biso   1.000  H
  H485     1.0000 0.24727  0.57552  0.35863  Biso   1.000  H
  H486     1.0000 0.29527  0.61724  0.34843  Biso   1.000  H
  O109     1.0000 0.02362  0.10929  0.59784  Biso   1.000  O
  C757     1.0000 0.01162  0.05340  0.59835  Biso   1.000  C
  C758     1.0000 0.01851  0.13045  0.60987  Biso   1.000  C
  C759     1.0000 0.05465  0.04322  0.59826  Biso   1.000  C
  C760     1.0000 0.95680  0.01143  0.59826  Biso   1.000  C
  N163     1.0000 0.01939  0.17791  0.60883  Biso   1.000  N
  N164     1.0000 0.01240  0.10132  0.62114  Biso   1.000  N
  H487     1.0000 0.09213  0.07268  0.59817  Biso   1.000  H
  C761     1.0000 0.04178  0.98841  0.59835  Biso   1.000  C
  C762     1.0000 0.94664  0.95828  0.59835  Biso   1.000  C
  H488     1.0000 0.92734  0.01945  0.59817  Biso   1.000  H
  C763     1.0000 0.00948  0.19602  0.62074  Biso   1.000  C
  C764     1.0000 0.00536  0.12430  0.63231  Biso   1.000  C
  C765     1.0000 0.98860  0.94539  0.59826  Biso   1.000  C
  O110     1.0000 0.08569  0.97640  0.59784  Biso   1.000  O
  O111     1.0000 0.89074  0.91435  0.59784  Biso   1.000  O
  N165     1.0000 0.00244  0.17051  0.63307  Biso   1.000  N
  C766     1.0000 0.00152  0.24411  0.62018  Biso   1.000  C
  O112     1.0000 0.99933  0.09899  0.64455  Biso   1.000  O
  H489     1.0000 0.98053  0.90787  0.59817  Biso   1.000  H
  C767     1.0000 0.11197  0.98151  0.60987  Biso   1.000  C
  C768     1.0000 0.86958  0.88809  0.60987  Biso   1.000  C
  C769     1.0000 0.02745  0.28429  0.61013  Biso   1.000  C
  C770     1.0000 0.96412  0.24747  0.62916  Biso   1.000  C
  C771     1.0000 0.99970  0.04891  0.64447  Biso   1.000  C
  N166     1.0000 0.15853  0.98063  0.60883  Biso   1.000  N
  N167     1.0000 0.08895  0.98766  0.62114  Biso   1.000  N
  N168     1.0000 0.82210  0.84150  0.60883  Biso   1.000  N
  N169     1.0000 0.89873  0.91111  0.62114  Biso   1.000  N
  H490     1.0000 0.05294  0.28259  0.60397  Biso   1.000  H
  C772     1.0000 0.01542  0.32768  0.60923  Biso   1.000  C
  C773     1.0000 0.95203  0.28965  0.62780  Biso   1.000  C
  H491     1.0000 0.94694  0.22058  0.63626  Biso   1.000  H
  C774     1.0000 0.05037  0.05028  0.64462  Biso   1.000  C
  C775     1.0000 0.94973  0.00008  0.64462  Biso   1.000  C
  C776     1.0000 0.18657  0.99057  0.62074  Biso   1.000  C
  C777     1.0000 0.11893  0.99464  0.63231  Biso   1.000  C
  C778     1.0000 0.80401  0.81345  0.62074  Biso   1.000  C
  C779     1.0000 0.87574  0.88111  0.63231  Biso   1.000  C
  H492     1.0000 0.03393  0.35585  0.60247  Biso   1.000  H
  C780     1.0000 0.97748  0.33054  0.61784  Biso   1.000  C
  H493     1.0000 0.92564  0.29077  0.63386  Biso   1.000  H
  C781     1.0000 0.04926  0.00033  0.64447  Biso   1.000  C
  H494     1.0000 0.08453  0.08449  0.64477  Biso   1.000  H
  C782     1.0000 0.95111  0.95080  0.64447  Biso   1.000  C
  H495     1.0000 0.91554  0.00008  0.64477  Biso   1.000  H
  N170     1.0000 0.16809  0.99759  0.63307  Biso   1.000  N
  C783     1.0000 0.24258  0.99850  0.62018  Biso   1.000  C
  O113     1.0000 0.09966  0.00066  0.64455  Biso   1.000  O
  N171     1.0000 0.82949  0.83194  0.63307  Biso   1.000  N
  C784     1.0000 0.75588  0.75743  0.62018  Biso   1.000  C
  O114     1.0000 0.90101  0.90035  0.64455  Biso   1.000  O
  C785     1.0000 0.96250  0.37588  0.61652  Biso   1.000  C
  C786     1.0000 0.99990  0.94963  0.64462  Biso   1.000  C
  C787     1.0000 0.28337  0.03591  0.62916  Biso   1.000  C
  C788     1.0000 0.25685  0.97257  0.61013  Biso   1.000  C
  C789     1.0000 0.71572  0.74318  0.61013  Biso   1.000  C
  C790     1.0000 0.75256  0.71666  0.62916  Biso   1.000  C
  H496     1.0000 0.98424  0.40115  0.60907  Biso   1.000  H
  H497     1.0000 0.97084  0.39658  0.62517  Biso   1.000  H
  H498     1.0000 0.92274  0.35905  0.61447  Biso   1.000  H
  H499     1.0000 0.99995  0.91547  0.64477  Biso   1.000  H
  C791     1.0000 0.33763  0.04796  0.62780  Biso   1.000  C
  H500     1.0000 0.27364  0.05307  0.63626  Biso   1.000  H
  H501     1.0000 0.22965  0.94710  0.60397  Biso   1.000  H
  C792     1.0000 0.31227  0.98458  0.60923  Biso   1.000  C
  H502     1.0000 0.71745  0.77040  0.60397  Biso   1.000  H
  C793     1.0000 0.67233  0.68778  0.60923  Biso   1.000  C
  C794     1.0000 0.71034  0.66239  0.62780  Biso   1.000  C
  H503     1.0000 0.77945  0.72639  0.63626  Biso   1.000  H
  C795     1.0000 0.35305  0.02252  0.61784  Biso   1.000  C
  H504     1.0000 0.36513  0.07439  0.63386  Biso   1.000  H
  H505     1.0000 0.32196  0.96609  0.60247  Biso   1.000  H
  H506     1.0000 0.64417  0.67810  0.60247  Biso   1.000  H
  C796     1.0000 0.66949  0.64697  0.61784  Biso   1.000  C
  H507     1.0000 0.70926  0.63488  0.63386  Biso   1.000  H
  C797     1.0000 0.41339  0.03753  0.61652  Biso   1.000  C
  C798     1.0000 0.62413  0.58663  0.61652  Biso   1.000  C
  H508     1.0000 0.41693  0.01575  0.60907  Biso   1.000  H
  H509     1.0000 0.42573  0.02917  0.62517  Biso   1.000  H
  H510     1.0000 0.43635  0.07725  0.61447  Biso   1.000  H
  H511     1.0000 0.59886  0.58310  0.60907  Biso   1.000  H
  H512     1.0000 0.60346  0.57429  0.62517  Biso   1.000  H
  H513     1.0000 0.64095  0.56369  0.61447  Biso   1.000  H
  C799     1.0000 0.62192  0.72155  0.64254  Biso   1.000  C
  C800     1.0000 0.62125  0.77067  0.64213  Biso   1.000  C
  C801     1.0000 0.59199  0.68482  0.65295  Biso   1.000  C
  H514     1.0000 0.64204  0.71328  0.63596  Biso   1.000  H
  O115     1.0000 0.64916  0.80787  0.63117  Biso   1.000  O
  C802     1.0000 0.59186  0.78322  0.65133  Biso   1.000  C
  C803     1.0000 0.56189  0.69500  0.66249  Biso   1.000  C
  O116     1.0000 0.59186  0.63387  0.65343  Biso   1.000  O
  C804     1.0000 0.70035  0.85092  0.63412  Biso   1.000  C
  C805     1.0000 0.56297  0.74503  0.66160  Biso   1.000  C
  H515     1.0000 0.59134  0.81709  0.65066  Biso   1.000  H
  H516     1.0000 0.54112  0.66865  0.66947  Biso   1.000  H
  C806     1.0000 0.63844  0.63649  0.65864  Biso   1.000  C
  N172     1.0000 0.72431  0.88633  0.62371  Biso   1.000  N
  N173     1.0000 0.72042  0.85321  0.64659  Biso   1.000  N
  O117     1.0000 0.53332  0.75800  0.67116  Biso   1.000  O
  N174     1.0000 0.64100  0.59057  0.65672  Biso   1.000  N
  N175     1.0000 0.67492  0.68303  0.66478  Biso   1.000  N
  C807     1.0000 0.77386  0.93029  0.62728  Biso   1.000  C
  C808     1.0000 0.77024  0.89713  0.64821  Biso   1.000  C
  C809     1.0000 0.55927  0.78081  0.68309  Biso   1.000  C
  C810     1.0000 0.68825  0.59439  0.66177  Biso   1.000  C
  C811     1.0000 0.71788  0.68020  0.66946  Biso   1.000  C
  C812     1.0000 0.80200  0.97476  0.61680  Biso   1.000  C
  N176     1.0000 0.79904  0.93781  0.63942  Biso   1.000  N
  O118     1.0000 0.79616  0.90311  0.66035  Biso   1.000  O
  N177     1.0000 0.52912  0.79199  0.69174  Biso   1.000  N
  N178     1.0000 0.61029  0.79000  0.68487  Biso   1.000  N
  N179     1.0000 0.72805  0.63865  0.66848  Biso   1.000  N
  C813     1.0000 0.69852  0.54826  0.65914  Biso   1.000  C
  O119     1.0000 0.75822  0.72446  0.67632  Biso   1.000  O
  C814     1.0000 0.78337  0.96636  0.60336  Biso   1.000  C
  C815     1.0000 0.84611  0.02592  0.62059  Biso   1.000  C
  C816     1.0000 0.76933  0.85861  0.66966  Biso   1.000  C
  C817     1.0000 0.55519  0.81427  0.70361  Biso   1.000  C
  C818     1.0000 0.63020  0.81111  0.69713  Biso   1.000  C
  C819     1.0000 0.67190  0.51086  0.64847  Biso   1.000  C
  C820     1.0000 0.73683  0.54240  0.66712  Biso   1.000  C
  C821     1.0000 0.75114  0.77125  0.67764  Biso   1.000  C
  H517     1.0000 0.75284  0.93158  0.60067  Biso   1.000  H
  C822     1.0000 0.80937  0.00879  0.59381  Biso   1.000  C
  H518     1.0000 0.85953  0.03194  0.62977  Biso   1.000  H
  C823     1.0000 0.87062  0.06810  0.61100  Biso   1.000  C
  C824     1.0000 0.73830  0.86305  0.68003  Biso   1.000  C
  C825     1.0000 0.77614  0.81277  0.66803  Biso   1.000  C
  N180     1.0000 0.60613  0.82308  0.70711  Biso   1.000  N
  C826     1.0000 0.52772  0.83288  0.71353  Biso   1.000  C
  O120     1.0000 0.68279  0.82308  0.70018  Biso   1.000  O
  H519     1.0000 0.64525  0.51377  0.64296  Biso   1.000  H
  C827     1.0000 0.68426  0.46951  0.64589  Biso   1.000  C
  C828     1.0000 0.74837  0.50055  0.66435  Biso   1.000  C
  H520     1.0000 0.75515  0.56738  0.67457  Biso   1.000  H
  C829     1.0000 0.72034  0.77379  0.68842  Biso   1.000  C
  C830     1.0000 0.85294  0.05966  0.59742  Biso   1.000  C
  H521     1.0000 0.79662  0.00244  0.58457  Biso   1.000  H
  H522     1.0000 0.90004  0.10346  0.61377  Biso   1.000  H
  C831     1.0000 0.71417  0.81954  0.68917  Biso   1.000  C
  H523     1.0000 0.73364  0.89455  0.68087  Biso   1.000  H
  H524     1.0000 0.79704  0.81015  0.66067  Biso   1.000  H
  C832     1.0000 0.54696  0.84631  0.72697  Biso   1.000  C
  C833     1.0000 0.48524  0.84178  0.70928  Biso   1.000  C
  H525     1.0000 0.66594  0.44416  0.63857  Biso   1.000  H
  C834     1.0000 0.72313  0.46411  0.65379  Biso   1.000  C
  H526     1.0000 0.77455  0.49706  0.66996  Biso   1.000  H
  H527     1.0000 0.70404  0.74487  0.69507  Biso   1.000  H
  C835     1.0000 0.88134  0.10587  0.58701  Biso   1.000  C
  H528     1.0000 0.57615  0.84049  0.73007  Biso   1.000  H
  C836     1.0000 0.52432  0.86812  0.73592  Biso   1.000  C
  C837     1.0000 0.46361  0.86538  0.71811  Biso   1.000  C
  H529     1.0000 0.47073  0.83155  0.70027  Biso   1.000  H
  C838     1.0000 0.73803  0.41956  0.65073  Biso   1.000  C
  H530     1.0000 0.86361  0.09295  0.57797  Biso   1.000  H
  H531     1.0000 0.92072  0.11676  0.58637  Biso   1.000  H
  H532     1.0000 0.87823  0.13795  0.58987  Biso   1.000  H
  H533     1.0000 0.53703  0.87569  0.74517  Biso   1.000  H
  C839     1.0000 0.48326  0.87914  0.73165  Biso   1.000  C
  H534     1.0000 0.43524  0.87228  0.71497  Biso   1.000  H
  H535     1.0000 0.76626  0.42268  0.65726  Biso   1.000  H
  H536     1.0000 0.75272  0.42446  0.64137  Biso   1.000  H
  H537     1.0000 0.70474  0.38278  0.65157  Biso   1.000  H
  C840     1.0000 0.45980  0.90499  0.74114  Biso   1.000  C
  H538     1.0000 0.43123  0.90918  0.73627  Biso   1.000  H
  H539     1.0000 0.48953  0.94156  0.74417  Biso   1.000  H
  H540     1.0000 0.44324  0.88109  0.74916  Biso   1.000  H
  C841     1.0000 0.32288  0.85767  0.59741  Biso   1.000  C
  C842     1.0000 0.36732  0.88032  0.60637  Biso   1.000  C
  H541     1.0000 0.32805  0.87038  0.58817  Biso   1.000  H
  C843     1.0000 0.27079  0.81661  0.60168  Biso   1.000  C
  C844     1.0000 0.36155  0.86108  0.61980  Biso   1.000  C
  H542     1.0000 0.40234  0.90949  0.60327  Biso   1.000  H
  C845     1.0000 0.26492  0.79695  0.61522  Biso   1.000  C
  C846     1.0000 0.22148  0.79313  0.59219  Biso   1.000  C
  C847     1.0000 0.40760  0.88854  0.62972  Biso   1.000  C
  C848     1.0000 0.31015  0.81860  0.62405  Biso   1.000  C
  H543     1.0000 0.22964  0.76857  0.61836  Biso   1.000  H
  H544     1.0000 0.18874  0.76458  0.59706  Biso   1.000  H
  H545     1.0000 0.21465  0.82288  0.58917  Biso   1.000  H
  H546     1.0000 0.22883  0.77659  0.58417  Biso   1.000  H
  N181     1.0000 0.44974  0.93949  0.62622  Biso   1.000  N
  N182     1.0000 0.40382  0.86249  0.64159  Biso   1.000  N
  H547     1.0000 0.30585  0.80410  0.63307  Biso   1.000  H
  C849     1.0000 0.48581  0.96355  0.63621  Biso   1.000  C
  C850     1.0000 0.44512  0.89262  0.65025  Biso   1.000  C
  O121     1.0000 0.52638  0.01612  0.63316  Biso   1.000  O
  N183     1.0000 0.48698  0.94365  0.64847  Biso   1.000  N
  O122     1.0000 0.44198  0.86669  0.66217  Biso   1.000  O
  C851     1.0000 0.56129  0.04750  0.64416  Biso   1.000  C
  C852     1.0000 0.48464  0.89636  0.67173  Biso   1.000  C
  C853     1.0000 0.61320  0.05365  0.64492  Biso   1.000  C
  C854     1.0000 0.54192  0.07160  0.65331  Biso   1.000  C
  C855     1.0000 0.53358  0.89528  0.67085  Biso   1.000  C
  C856     1.0000 0.47530  0.92520  0.68200  Biso   1.000  C
  C857     1.0000 0.64654  0.08449  0.65569  Biso   1.000  C
  H548     1.0000 0.62582  0.03736  0.63827  Biso   1.000  H
  H549     1.0000 0.50573  0.06695  0.65246  Biso   1.000  H
  C858     1.0000 0.57738  0.10265  0.66367  Biso   1.000  C
  C859     1.0000 0.57387  0.92532  0.68039  Biso   1.000  C
  H550     1.0000 0.53913  0.87450  0.66387  Biso   1.000  H
  H551     1.0000 0.44094  0.92470  0.68267  Biso   1.000  H
  C860     1.0000 0.51724  0.95458  0.69121  Biso   1.000  C
  O123     1.0000 0.70042  0.09155  0.65701  Biso   1.000  O
  C861     1.0000 0.63006  0.10946  0.66531  Biso   1.000  C
  O124     1.0000 0.55971  0.12949  0.67298  Biso   1.000  O
  O125     1.0000 0.62468  0.92524  0.67990  Biso   1.000  O
  C862     1.0000 0.56704  0.95528  0.69080  Biso   1.000  C
  O126     1.0000 0.50795  0.98250  0.70216  Biso   1.000  O
  C863     1.0000 0.70432  0.05120  0.66388  Biso   1.000  C
  H552     1.0000 0.65354  0.13036  0.67267  Biso   1.000  H
  C864     1.0000 0.53980  0.10356  0.68512  Biso   1.000  C
  C865     1.0000 0.66861  0.97178  0.67470  Biso   1.000  C
  H553     1.0000 0.59545  0.97540  0.69737  Biso   1.000  H
  C866     1.0000 0.51607  0.03366  0.69922  Biso   1.000  C
  N184     1.0000 0.75611  0.06142  0.66485  Biso   1.000  N
  N185     1.0000 0.65854  0.00823  0.66855  Biso   1.000  N
  N186     1.0000 0.52785  0.13236  0.69391  Biso   1.000  N
  N187     1.0000 0.53388  0.05373  0.68674  Biso   1.000  N
  N188     1.0000 0.71712  0.97436  0.67661  Biso   1.000  N
  N189     1.0000 0.50467  0.05764  0.70962  Biso   1.000  N
  C867     1.0000 0.76051  0.02157  0.67157  Biso   1.000  C
  C868     1.0000 0.51024  0.10722  0.70605  Biso   1.000  C
  C869     1.0000 0.81693  0.03183  0.67419  Biso   1.000  C
  C870     1.0000 0.49391  0.13531  0.71653  Biso   1.000  C
  C871     1.0000 0.82775  0.00524  0.68487  Biso   1.000  C
  C872     1.0000 0.86110  0.07015  0.66621  Biso   1.000  C
  C873     1.0000 0.48686  0.17944  0.71274  Biso   1.000  C
  C874     1.0000 0.48367  0.11669  0.72997  Biso   1.000  C
  C875     1.0000 0.88142  0.01758  0.68744  Biso   1.000  C
  H554     1.0000 0.79816  0.97860  0.69037  Biso   1.000  H
  C876     1.0000 0.91449  0.08170  0.66898  Biso   1.000  C
  H555     1.0000 0.85443  0.08847  0.65876  Biso   1.000  H
  H556     1.0000 0.49422  0.19287  0.70356  Biso   1.000  H
  C877     1.0000 0.46918  0.20396  0.72233  Biso   1.000  C
  C878     1.0000 0.46724  0.14271  0.73953  Biso   1.000  C
  H557     1.0000 0.48794  0.08615  0.73266  Biso   1.000  H
  C879     1.0000 0.92565  0.05643  0.67954  Biso   1.000  C
  H558     1.0000 0.88844  0.99929  0.69476  Biso   1.000  H
  H559     1.0000 0.94414  0.10788  0.66337  Biso   1.000  H
  H560     1.0000 0.46323  0.23338  0.71957  Biso   1.000  H
  C880     1.0000 0.45995  0.18630  0.73591  Biso   1.000  C
  H561     1.0000 0.46082  0.12995  0.74876  Biso   1.000  H
  C881     1.0000 0.98515  0.07135  0.68260  Biso   1.000  C
  C882     1.0000 0.44211  0.21468  0.74632  Biso   1.000  C
  H562     1.0000 0.99495  0.08606  0.69196  Biso   1.000  H
  H563     1.0000 0.98862  0.03807  0.68177  Biso   1.000  H
  H564     1.0000 0.01023  0.09957  0.67607  Biso   1.000  H
  H565     1.0000 0.43733  0.19698  0.75537  Biso   1.000  H
  H566     1.0000 0.47063  0.25408  0.74697  Biso   1.000  H
  H567     1.0000 0.40694  0.21157  0.74347  Biso   1.000  H
  C883     1.0000 0.05367  0.44046  0.35508  Biso   1.000  C
  C884     1.0000 0.08447  0.43793  0.34431  Biso   1.000  C
  H568     1.0000 0.03737  0.41154  0.36173  Biso   1.000  H
  C885     1.0000 0.04747  0.48622  0.35584  Biso   1.000  C
  O127     1.0000 0.09156  0.39113  0.34299  Biso   1.000  O
  C886     1.0000 0.10948  0.47944  0.33469  Biso   1.000  C
  O128     1.0000 0.01613  0.48975  0.36684  Biso   1.000  O
  C887     1.0000 0.07160  0.52973  0.34669  Biso   1.000  C
  C888     1.0000 0.05122  0.34688  0.33612  Biso   1.000  C
  C889     1.0000 0.10267  0.52528  0.33633  Biso   1.000  C
  H569     1.0000 0.13037  0.47682  0.32733  Biso   1.000  H
  C890     1.0000 0.96355  0.47774  0.36379  Biso   1.000  C
  H570     1.0000 0.06694  0.56123  0.34754  Biso   1.000  H
  N190     1.0000 0.06139  0.30532  0.33515  Biso   1.000  N
  N191     1.0000 0.00826  0.34970  0.33145  Biso   1.000  N
  O129     1.0000 0.12949  0.56979  0.32702  Biso   1.000  O
  N192     1.0000 0.93945  0.48971  0.37378  Biso   1.000  N
  N193     1.0000 0.94362  0.45667  0.35153  Biso   1.000  N
  C891     1.0000 0.02159  0.26106  0.32843  Biso   1.000  C
  C892     1.0000 0.97178  0.30316  0.32530  Biso   1.000  C
  C893     1.0000 0.10355  0.56376  0.31488  Biso   1.000  C
  C894     1.0000 0.88851  0.48090  0.37028  Biso   1.000  C
  C895     1.0000 0.89260  0.44748  0.34975  Biso   1.000  C
  C896     1.0000 0.03185  0.21493  0.32581  Biso   1.000  C
  N194     1.0000 0.97433  0.25724  0.32339  Biso   1.000  N
  O130     1.0000 0.92519  0.30054  0.32010  Biso   1.000  O
  N195     1.0000 0.13234  0.60449  0.30609  Biso   1.000  N
  N196     1.0000 0.05376  0.51988  0.31326  Biso   1.000  N
  N197     1.0000 0.86246  0.45866  0.35841  Biso   1.000  N
  C897     1.0000 0.86106  0.49956  0.38020  Biso   1.000  C
  O131     1.0000 0.86666  0.42467  0.33783  Biso   1.000  O
  C898     1.0000 0.00521  0.17749  0.31513  Biso   1.000  C
  C899     1.0000 0.07017  0.20907  0.33379  Biso   1.000  C
  C900     1.0000 0.92531  0.35145  0.31961  Biso   1.000  C
  C901     1.0000 0.10720  0.59697  0.29395  Biso   1.000  C
  C902     1.0000 0.03365  0.51759  0.30078  Biso   1.000  C
  C903     1.0000 0.88029  0.51298  0.39363  Biso   1.000  C
  C904     1.0000 0.81857  0.50845  0.37595  Biso   1.000  C
  C905     1.0000 0.89631  0.41170  0.32827  Biso   1.000  C
  C906     1.0000 0.01760  0.13618  0.31256  Biso   1.000  C
  H571     1.0000 0.97858  0.18044  0.30963  Biso   1.000  H
  C907     1.0000 0.08171  0.16723  0.33102  Biso   1.000  C
  H572     1.0000 0.08848  0.23405  0.34124  Biso   1.000  H
  C908     1.0000 0.89522  0.36167  0.32915  Biso   1.000  C
  C909     1.0000 0.95525  0.38822  0.30920  Biso   1.000  C
  N198     1.0000 0.05765  0.55300  0.29038  Biso   1.000  N
  C910     1.0000 0.13530  0.64143  0.28347  Biso   1.000  C
  O132     1.0000 0.98250  0.47454  0.29784  Biso   1.000  O
  H573     1.0000 0.90947  0.50712  0.39673  Biso   1.000  H
  C911     1.0000 0.85766  0.53480  0.40259  Biso   1.000  C
  C912     1.0000 0.79694  0.53205  0.38478  Biso   1.000  C
  H574     1.0000 0.80407  0.49823  0.36693  Biso   1.000  H
  C913     1.0000 0.92519  0.44990  0.31800  Biso   1.000  C
  C914     1.0000 0.05643  0.13078  0.32046  Biso   1.000  C
  H575     1.0000 0.99927  0.11083  0.30524  Biso   1.000  H
  H576     1.0000 0.10785  0.16373  0.33663  Biso   1.000  H
  H577     1.0000 0.87446  0.33532  0.33613  Biso   1.000  H
  C915     1.0000 0.95458  0.43735  0.30879  Biso   1.000  C
  H578     1.0000 0.97537  0.37995  0.30263  Biso   1.000  H
  C916     1.0000 0.17945  0.69259  0.28726  Biso   1.000  C
  C917     1.0000 0.11671  0.63304  0.27003  Biso   1.000  C
  H579     1.0000 0.87035  0.54232  0.41183  Biso   1.000  H
  C918     1.0000 0.81660  0.54581  0.39832  Biso   1.000  C
  H580     1.0000 0.76858  0.53895  0.38164  Biso   1.000  H
  H581     1.0000 0.92465  0.48372  0.31733  Biso   1.000  H
  C919     1.0000 0.07137  0.08623  0.31740  Biso   1.000  C
  H582     1.0000 0.19288  0.69865  0.29644  Biso   1.000  H
  C920     1.0000 0.20394  0.73481  0.27767  Biso   1.000  C
  C921     1.0000 0.14267  0.67547  0.26047  Biso   1.000  C
  H583     1.0000 0.08618  0.59825  0.26734  Biso   1.000  H
  C922     1.0000 0.79313  0.57166  0.40781  Biso   1.000  C
  H584     1.0000 0.09956  0.08935  0.32393  Biso   1.000  H
  H585     1.0000 0.08606  0.09113  0.30804  Biso   1.000  H
  H586     1.0000 0.03808  0.04945  0.31823  Biso   1.000  H
  H587     1.0000 0.23337  0.77013  0.28043  Biso   1.000  H
  C923     1.0000 0.18630  0.72637  0.26409  Biso   1.000  C
  H588     1.0000 0.12998  0.66915  0.25124  Biso   1.000  H
  H589     1.0000 0.76457  0.57585  0.40294  Biso   1.000  H
  H590     1.0000 0.82286  0.60823  0.41083  Biso   1.000  H
  H591     1.0000 0.77656  0.54772  0.41583  Biso   1.000  H
  C924     1.0000 0.21470  0.77258  0.25368  Biso   1.000  C
  H592     1.0000 0.19695  0.75962  0.24463  Biso   1.000  H
  H593     1.0000 0.25406  0.78343  0.25303  Biso   1.000  H
  H594     1.0000 0.21157  0.80463  0.25653  Biso   1.000  H
  O133     1.0000 0.57433  0.34696  0.31544  Biso   1.000  O
  C925     1.0000 0.54740  0.33902  0.30349  Biso   1.000  C
  C926     1.0000 0.62146  0.33981  0.31529  Biso   1.000  C
  N199     1.0000 0.50072  0.34147  0.30418  Biso   1.000  N
  N200     1.0000 0.56953  0.33067  0.29231  Biso   1.000  N
  C927     1.0000 0.61363  0.28687  0.31530  Biso   1.000  C
  C928     1.0000 0.67320  0.38635  0.31530  Biso   1.000  C
  C929     1.0000 0.47435  0.33162  0.29208  Biso   1.000  C
  C930     1.0000 0.53994  0.32331  0.28111  Biso   1.000  C
  C931     1.0000 0.66020  0.28167  0.31529  Biso   1.000  C
  H595     1.0000 0.57735  0.25512  0.31534  Biso   1.000  H
  C932     1.0000 0.71835  0.37854  0.31529  Biso   1.000  C
  H596     1.0000 0.67777  0.42263  0.31534  Biso   1.000  H
  C933     1.0000 0.42254  0.33541  0.29156  Biso   1.000  C
  N201     1.0000 0.49141  0.32119  0.28014  Biso   1.000  N
  O134     1.0000 0.55980  0.31683  0.26913  Biso   1.000  O
  O135     1.0000 0.65302  0.22736  0.31544  Biso   1.000  O
  C934     1.0000 0.71318  0.32680  0.31530  Biso   1.000  C
  O136     1.0000 0.77265  0.42567  0.31544  Biso   1.000  O
  C935     1.0000 0.38805  0.31550  0.28014  Biso   1.000  C
  C936     1.0000 0.40961  0.36092  0.30210  Biso   1.000  C
  C937     1.0000 0.61435  0.32522  0.26956  Biso   1.000  C
  C938     1.0000 0.66097  0.20837  0.30349  Biso   1.000  C
  H597     1.0000 0.74486  0.32223  0.31534  Biso   1.000  H
  C939     1.0000 0.79165  0.45260  0.30349  Biso   1.000  C
  C940     1.0000 0.34061  0.31982  0.27951  Biso   1.000  C
  H598     1.0000 0.39696  0.29892  0.27273  Biso   1.000  H
  C941     1.0000 0.36271  0.36682  0.30075  Biso   1.000  C
  H599     1.0000 0.43226  0.37414  0.31014  Biso   1.000  H
  C942     1.0000 0.65844  0.37871  0.26948  Biso   1.000  C
  C943     1.0000 0.62129  0.27972  0.26948  Biso   1.000  C
  N202     1.0000 0.66932  0.23887  0.29231  Biso   1.000  N
  N203     1.0000 0.65855  0.15925  0.30418  Biso   1.000  N
  N204     1.0000 0.76111  0.43045  0.29231  Biso   1.000  N
  N205     1.0000 0.84072  0.49926  0.30418  Biso   1.000  N
  H600     1.0000 0.31647  0.30465  0.27184  Biso   1.000  H
  C944     1.0000 0.32752  0.34546  0.28974  Biso   1.000  C
  H601     1.0000 0.35506  0.38615  0.30773  Biso   1.000  H
  H602     1.0000 0.65276  0.40975  0.26933  Biso   1.000  H
  C945     1.0000 0.71088  0.38569  0.26956  Biso   1.000  C
  H603     1.0000 0.59027  0.24302  0.26933  Biso   1.000  H
  C946     1.0000 0.67479  0.28911  0.26956  Biso   1.000  C
  C947     1.0000 0.67668  0.21659  0.28111  Biso   1.000  C
  C948     1.0000 0.66838  0.14271  0.29208  Biso   1.000  C
  C949     1.0000 0.78337  0.46008  0.28111  Biso   1.000  C
  C950     1.0000 0.85730  0.52565  0.29208  Biso   1.000  C
  C951     1.0000 0.27425  0.34891  0.28905  Biso   1.000  C
  O137     1.0000 0.75703  0.44021  0.26913  Biso   1.000  O
  C952     1.0000 0.72030  0.34156  0.26948  Biso   1.000  C
  O138     1.0000 0.68318  0.24298  0.26913  Biso   1.000  O
  N206     1.0000 0.67880  0.17018  0.28014  Biso   1.000  N
  C953     1.0000 0.66458  0.08710  0.29156  Biso   1.000  C
  N207     1.0000 0.82981  0.50862  0.28014  Biso   1.000  N
  C954     1.0000 0.91290  0.57747  0.29156  Biso   1.000  C
  H604     1.0000 0.25456  0.33192  0.28043  Biso   1.000  H
  H605     1.0000 0.25036  0.32905  0.29693  Biso   1.000  H
  H606     1.0000 0.28376  0.38793  0.28933  Biso   1.000  H
  H607     1.0000 0.75698  0.34725  0.26933  Biso   1.000  H
  C955     1.0000 0.68452  0.07256  0.28014  Biso   1.000  C
  C956     1.0000 0.63910  0.04866  0.30210  Biso   1.000  C
  C957     1.0000 0.92745  0.61197  0.28014  Biso   1.000  C
  C958     1.0000 0.95132  0.59040  0.30210  Biso   1.000  C
  H608     1.0000 0.70107  0.09803  0.27273  Biso   1.000  H
  C959     1.0000 0.68021  0.02082  0.27951  Biso   1.000  C
  H609     1.0000 0.62588  0.05814  0.31014  Biso   1.000  H
  C960     1.0000 0.63321  0.99593  0.30075  Biso   1.000  C
  H610     1.0000 0.90196  0.60303  0.27273  Biso   1.000  H
  C961     1.0000 0.97919  0.65938  0.27951  Biso   1.000  C
  H611     1.0000 0.94187  0.56775  0.31014  Biso   1.000  H
  C962     1.0000 0.00411  0.63732  0.30075  Biso   1.000  C
  H612     1.0000 0.69537  0.01184  0.27184  Biso   1.000  H
  C963     1.0000 0.65454  0.98209  0.28974  Biso   1.000  C
  H613     1.0000 0.61390  0.96896  0.30773  Biso   1.000  H
  H614     1.0000 0.98817  0.68353  0.27184  Biso   1.000  H
  C964     1.0000 0.01795  0.67247  0.28974  Biso   1.000  C
  H615     1.0000 0.03106  0.64492  0.30773  Biso   1.000  H
  C965     1.0000 0.65109  0.92536  0.28905  Biso   1.000  C
  C966     1.0000 0.07464  0.72575  0.28905  Biso   1.000  C
  H616     1.0000 0.66809  0.92266  0.28043  Biso   1.000  H
  H617     1.0000 0.67097  0.92137  0.29693  Biso   1.000  H
  H618     1.0000 0.61208  0.89586  0.28933  Biso   1.000  H
  H619     1.0000 0.07736  0.74545  0.28043  Biso   1.000  H
  H620     1.0000 0.07867  0.74965  0.29693  Biso   1.000  H
  H621     1.0000 0.10418  0.71623  0.28933  Biso   1.000  H
  O139     1.0000 0.42566  0.65303  0.68456  Biso   1.000  O
  C967     1.0000 0.37855  0.66021  0.68471  Biso   1.000  C
  C968     1.0000 0.45263  0.66096  0.69651  Biso   1.000  C
  C969     1.0000 0.32679  0.61363  0.68470  Biso   1.000  C
  C970     1.0000 0.38638  0.71316  0.68470  Biso   1.000  C
  N208     1.0000 0.49929  0.65855  0.69582  Biso   1.000  N
  N209     1.0000 0.43046  0.66932  0.70769  Biso   1.000  N
  C971     1.0000 0.28164  0.62144  0.68471  Biso   1.000  C
  H622     1.0000 0.32222  0.57735  0.68466  Biso   1.000  H
  C972     1.0000 0.33981  0.71835  0.68471  Biso   1.000  C
  H623     1.0000 0.42264  0.74487  0.68466  Biso   1.000  H
  C973     1.0000 0.52566  0.66840  0.70792  Biso   1.000  C
  C974     1.0000 0.46011  0.67671  0.71889  Biso   1.000  C
  O140     1.0000 0.22734  0.57432  0.68456  Biso   1.000  O
  C975     1.0000 0.28684  0.67322  0.68470  Biso   1.000  C
  O141     1.0000 0.34700  0.77267  0.68456  Biso   1.000  O
  N210     1.0000 0.50862  0.67879  0.71986  Biso   1.000  N
  C976     1.0000 0.57745  0.66458  0.70844  Biso   1.000  C
  O142     1.0000 0.44021  0.68320  0.73087  Biso   1.000  O
  C977     1.0000 0.20834  0.54739  0.69651  Biso   1.000  C
  H624     1.0000 0.25513  0.67775  0.68466  Biso   1.000  H
  C978     1.0000 0.33904  0.79166  0.69651  Biso   1.000  C
  C979     1.0000 0.61197  0.68453  0.71986  Biso   1.000  C
  C980     1.0000 0.59041  0.63910  0.69790  Biso   1.000  C
  C981     1.0000 0.38566  0.67480  0.73044  Biso   1.000  C
  N211     1.0000 0.15927  0.50072  0.69582  Biso   1.000  N
  N212     1.0000 0.23888  0.56954  0.70769  Biso   1.000  N
  N213     1.0000 0.34148  0.84074  0.69582  Biso   1.000  N
  N214     1.0000 0.33068  0.76111  0.70769  Biso   1.000  N
  H625     1.0000 0.60303  0.70107  0.72727  Biso   1.000  H
  C982     1.0000 0.65940  0.68020  0.72049  Biso   1.000  C
  C983     1.0000 0.63730  0.63320  0.69925  Biso   1.000  C
  H626     1.0000 0.56775  0.62589  0.68986  Biso   1.000  H
  C984     1.0000 0.34155  0.62128  0.73052  Biso   1.000  C
  C985     1.0000 0.37872  0.72031  0.73052  Biso   1.000  C
  C986     1.0000 0.14269  0.47433  0.70792  Biso   1.000  C
  C987     1.0000 0.21662  0.53991  0.71889  Biso   1.000  C
  C988     1.0000 0.33161  0.85728  0.70792  Biso   1.000  C
  C989     1.0000 0.32331  0.78339  0.71889  Biso   1.000  C
  H627     1.0000 0.68354  0.69537  0.72816  Biso   1.000  H
  C990     1.0000 0.67247  0.65452  0.71026  Biso   1.000  C
  H628     1.0000 0.64495  0.61388  0.69227  Biso   1.000  H
  C991     1.0000 0.28914  0.61434  0.73044  Biso   1.000  C
  H629     1.0000 0.34725  0.59027  0.73067  Biso   1.000  H
  H630     1.0000 0.40972  0.75696  0.73067  Biso   1.000  H
  C992     1.0000 0.32521  0.71087  0.73044  Biso   1.000  C
  N215     1.0000 0.17020  0.49141  0.71986  Biso   1.000  N
  C993     1.0000 0.08711  0.42255  0.70844  Biso   1.000  C
  O143     1.0000 0.24298  0.55981  0.73087  Biso   1.000  O
  N216     1.0000 0.32119  0.82981  0.71986  Biso   1.000  N
  C994     1.0000 0.33541  0.91288  0.70844  Biso   1.000  C
  O144     1.0000 0.31684  0.75704  0.73087  Biso   1.000  O
  C995     1.0000 0.72576  0.65111  0.71095  Biso   1.000  C
  C996     1.0000 0.27973  0.65843  0.73052  Biso   1.000  C
  C997     1.0000 0.07257  0.38806  0.71986  Biso   1.000  C
  C998     1.0000 0.04867  0.40958  0.69790  Biso   1.000  C
  C999     1.0000 0.31549  0.92747  0.71986  Biso   1.000  C
  C1000    1.0000 0.36089  0.95132  0.69790  Biso   1.000  C
  H631     1.0000 0.74543  0.66807  0.71957  Biso   1.000  H
  H632     1.0000 0.74965  0.67098  0.70307  Biso   1.000  H
  H633     1.0000 0.71623  0.61205  0.71067  Biso   1.000  H
  H634     1.0000 0.24304  0.65278  0.73067  Biso   1.000  H
  H635     1.0000 0.09803  0.39695  0.72727  Biso   1.000  H
  C1001    1.0000 0.02080  0.34060  0.72049  Biso   1.000  C
  H636     1.0000 0.05814  0.43228  0.68986  Biso   1.000  H
  C1002    1.0000 0.99590  0.36271  0.69925  Biso   1.000  C
  H637     1.0000 0.29894  0.90199  0.72727  Biso   1.000  H
  C1003    1.0000 0.31981  0.97921  0.72049  Biso   1.000  C
  H638     1.0000 0.37413  0.94189  0.68986  Biso   1.000  H
  C1004    1.0000 0.36680  0.00410  0.69925  Biso   1.000  C
  H639     1.0000 0.01182  0.31646  0.72816  Biso   1.000  H
  C1005    1.0000 0.98204  0.32751  0.71026  Biso   1.000  C
  H640     1.0000 0.96894  0.35506  0.69227  Biso   1.000  H
  H641     1.0000 0.30464  0.98818  0.72816  Biso   1.000  H
  C1006    1.0000 0.34547  0.01794  0.71026  Biso   1.000  C
  H642     1.0000 0.38615  0.03107  0.69227  Biso   1.000  H
  C1007    1.0000 0.92538  0.27428  0.71095  Biso   1.000  C
  C1008    1.0000 0.34891  0.07462  0.71095  Biso   1.000  C
  H643     1.0000 0.92265  0.25458  0.71957  Biso   1.000  H
  H644     1.0000 0.92135  0.25038  0.70307  Biso   1.000  H
  H645     1.0000 0.89582  0.28375  0.71067  Biso   1.000  H
  H646     1.0000 0.33192  0.07736  0.71957  Biso   1.000  H
  H647     1.0000 0.32904  0.07865  0.70307  Biso   1.000  H
  H648     1.0000 0.38794  0.10417  0.71067  Biso   1.000  H
  C1009    1.0000 0.94632  0.55952  0.64492  Biso   1.000  C
  C1010    1.0000 0.95254  0.51381  0.64416  Biso   1.000  C
  C1011    1.0000 0.91552  0.56206  0.65569  Biso   1.000  C
  H649     1.0000 0.96264  0.58849  0.63827  Biso   1.000  H
  O145     1.0000 0.98387  0.51024  0.63316  Biso   1.000  O
  C1012    1.0000 0.92841  0.47030  0.65331  Biso   1.000  C
  O146     1.0000 0.90847  0.60885  0.65701  Biso   1.000  O
  C1013    1.0000 0.89054  0.52058  0.66531  Biso   1.000  C
  C1014    1.0000 0.03648  0.52225  0.63621  Biso   1.000  C
  H650     1.0000 0.93305  0.43876  0.65246  Biso   1.000  H
  C1015    1.0000 0.89732  0.47470  0.66367  Biso   1.000  C
  C1016    1.0000 0.94883  0.65315  0.66388  Biso   1.000  C
  H651     1.0000 0.86962  0.52316  0.67267  Biso   1.000  H
  N217     1.0000 0.06054  0.51028  0.62622  Biso   1.000  N
  N218     1.0000 0.05637  0.54332  0.64847  Biso   1.000  N
  O147     1.0000 0.87052  0.43024  0.67298  Biso   1.000  O
  N219     1.0000 0.93860  0.69467  0.66485  Biso   1.000  N
  N220     1.0000 0.99176  0.65032  0.66855  Biso   1.000  N
  C1017    1.0000 0.11148  0.51909  0.62972  Biso   1.000  C
  C1018    1.0000 0.10741  0.55254  0.65025  Biso   1.000  C
  C1019    1.0000 0.89644  0.43622  0.68512  Biso   1.000  C
  C1020    1.0000 0.97840  0.73892  0.67157  Biso   1.000  C
  C1021    1.0000 0.02822  0.69683  0.67470  Biso   1.000  C
  N221     1.0000 0.13756  0.54136  0.64159  Biso   1.000  N
  C1022    1.0000 0.13896  0.50047  0.61980  Biso   1.000  C
  O148     1.0000 0.13333  0.57531  0.66217  Biso   1.000  O
  N222     1.0000 0.86765  0.39550  0.69391  Biso   1.000  N
  N223     1.0000 0.94626  0.48015  0.68674  Biso   1.000  N
  C1023    1.0000 0.96816  0.78509  0.67419  Biso   1.000  C
  N224     1.0000 0.02566  0.74275  0.67661  Biso   1.000  N
  O149     1.0000 0.07482  0.69949  0.67990  Biso   1.000  O
  C1024    1.0000 0.11970  0.48701  0.60637  Biso   1.000  C
  C1025    1.0000 0.18144  0.49158  0.62405  Biso   1.000  C
  C1026    1.0000 0.10368  0.58828  0.67173  Biso   1.000  C
  C1027    1.0000 0.89279  0.40302  0.70605  Biso   1.000  C
  C1028    1.0000 0.96637  0.48243  0.69922  Biso   1.000  C
  C1029    1.0000 0.99478  0.82249  0.68487  Biso   1.000  C
  C1030    1.0000 0.92985  0.79095  0.66621  Biso   1.000  C
  C1031    1.0000 0.07468  0.64854  0.68039  Biso   1.000  C
  H652     1.0000 0.09053  0.49287  0.60327  Biso   1.000  H
  C1032    1.0000 0.14235  0.46523  0.59741  Biso   1.000  C
  C1033    1.0000 0.20307  0.46797  0.61522  Biso   1.000  C
  H653     1.0000 0.19592  0.50176  0.63307  Biso   1.000  H
  C1034    1.0000 0.10477  0.63831  0.67085  Biso   1.000  C
  C1035    1.0000 0.07480  0.55009  0.68200  Biso   1.000  C
  N225     1.0000 0.94237  0.44703  0.70962  Biso   1.000  N
  C1036    1.0000 0.86471  0.35859  0.71653  Biso   1.000  C
  O150     1.0000 0.01749  0.52545  0.70216  Biso   1.000  O
  C1037    1.0000 0.98239  0.86380  0.68744  Biso   1.000  C
  H654     1.0000 0.02143  0.81959  0.69037  Biso   1.000  H
  C1038    1.0000 0.91831  0.83280  0.66898  Biso   1.000  C
  H655     1.0000 0.91153  0.76598  0.65876  Biso   1.000  H
  C1039    1.0000 0.04474  0.61176  0.69080  Biso   1.000  C
  H656     1.0000 0.12965  0.45767  0.58817  Biso   1.000  H
  C1040    1.0000 0.18342  0.45422  0.60168  Biso   1.000  C
  H657     1.0000 0.23144  0.46107  0.61836  Biso   1.000  H
  H658     1.0000 0.12554  0.66466  0.66387  Biso   1.000  H
  H659     1.0000 0.07534  0.51626  0.68267  Biso   1.000  H
  C1041    1.0000 0.04543  0.56268  0.69121  Biso   1.000  C
  C1042    1.0000 0.82058  0.30740  0.71274  Biso   1.000  C
  C1043    1.0000 0.88331  0.36699  0.72997  Biso   1.000  C
  C1044    1.0000 0.94356  0.86920  0.67954  Biso   1.000  C
  H660     1.0000 0.00074  0.88919  0.69476  Biso   1.000  H
  H661     1.0000 0.89216  0.83629  0.66337  Biso   1.000  H
  H662     1.0000 0.02464  0.62007  0.69737  Biso   1.000  H
  C1045    1.0000 0.20688  0.42837  0.59219  Biso   1.000  C
  H663     1.0000 0.80713  0.30137  0.70356  Biso   1.000  H
  C1046    1.0000 0.79607  0.26522  0.72233  Biso   1.000  C
  C1047    1.0000 0.85734  0.32456  0.73953  Biso   1.000  C
  H664     1.0000 0.91384  0.40177  0.73266  Biso   1.000  H
  C1048    1.0000 0.92865  0.91380  0.68260  Biso   1.000  C
  H665     1.0000 0.23544  0.42417  0.59706  Biso   1.000  H
  H666     1.0000 0.17713  0.39176  0.58917  Biso   1.000  H
  H667     1.0000 0.22343  0.45226  0.58417  Biso   1.000  H
  H668     1.0000 0.76662  0.22985  0.71957  Biso   1.000  H
  C1049    1.0000 0.81371  0.27365  0.73591  Biso   1.000  C
  H669     1.0000 0.87004  0.33088  0.74876  Biso   1.000  H
  H670     1.0000 0.90046  0.91068  0.67607  Biso   1.000  H
  H671     1.0000 0.91396  0.90889  0.69196  Biso   1.000  H
  H672     1.0000 0.96193  0.95057  0.68177  Biso   1.000  H
  C1050    1.0000 0.78532  0.22744  0.74632  Biso   1.000  C
  H673     1.0000 0.80304  0.24037  0.75537  Biso   1.000  H
  H674     1.0000 0.74594  0.21655  0.74697  Biso   1.000  H
  H675     1.0000 0.78842  0.19536  0.74347  Biso   1.000  H
  O151     1.0000 0.56700  0.33266  0.68878  Biso   1.000  O
  C1051    1.0000 0.54774  0.33869  0.70103  Biso   1.000  C
  C1052    1.0000 0.61743  0.33304  0.68886  Biso   1.000  C
  N226     1.0000 0.49860  0.33578  0.70026  Biso   1.000  N
  N227     1.0000 0.57774  0.34571  0.71219  Biso   1.000  N
  C1053    1.0000 0.61629  0.28304  0.68872  Biso   1.000  C
  C1054    1.0000 0.66676  0.38370  0.68872  Biso   1.000  C
  C1055    1.0000 0.48012  0.34280  0.71260  Biso   1.000  C
  C1056    1.0000 0.55470  0.35182  0.72347  Biso   1.000  C
  C1057    1.0000 0.66700  0.28442  0.68886  Biso   1.000  C
  H676     1.0000 0.58215  0.24888  0.68856  Biso   1.000  H
  C1058    1.0000 0.71558  0.38257  0.68886  Biso   1.000  C
  H677     1.0000 0.66675  0.41785  0.68856  Biso   1.000  H
  N228     1.0000 0.50815  0.35274  0.72451  Biso   1.000  N
  C1059    1.0000 0.42411  0.33487  0.71315  Biso   1.000  C
  O152     1.0000 0.58097  0.35693  0.73549  Biso   1.000  O
  O153     1.0000 0.66734  0.23434  0.68878  Biso   1.000  O
  C1060    1.0000 0.71694  0.33324  0.68872  Biso   1.000  C
  O154     1.0000 0.76567  0.43302  0.68878  Biso   1.000  O
  C1061    1.0000 0.40983  0.36080  0.72320  Biso   1.000  C
  C1062    1.0000 0.38329  0.29742  0.70418  Biso   1.000  C
  C1063    1.0000 0.62490  0.34496  0.73499  Biso   1.000  C
  C1064    1.0000 0.66131  0.20903  0.70103  Biso   1.000  C
  H678     1.0000 0.75115  0.33329  0.68856  Biso   1.000  H
  C1065    1.0000 0.79095  0.45226  0.70103  Biso   1.000  C
  H679     1.0000 0.43704  0.38627  0.72937  Biso   1.000  H
  C1066    1.0000 0.35439  0.34875  0.72411  Biso   1.000  C
  C1067    1.0000 0.32904  0.28537  0.70554  Biso   1.000  C
  H680     1.0000 0.39303  0.28026  0.69707  Biso   1.000  H
  C1068    1.0000 0.61202  0.29011  0.73507  Biso   1.000  C
  C1069    1.0000 0.67808  0.38798  0.73507  Biso   1.000  C
  N229     1.0000 0.66422  0.16282  0.70026  Biso   1.000  N
  N230     1.0000 0.65426  0.23201  0.71219  Biso   1.000  N
  N231     1.0000 0.83720  0.50143  0.70026  Biso   1.000  N
  N232     1.0000 0.76799  0.42226  0.71219  Biso   1.000  N
  H681     1.0000 0.34473  0.36728  0.73087  Biso   1.000  H
  C1070    1.0000 0.31361  0.31080  0.71549  Biso   1.000  C
  H682     1.0000 0.30156  0.25898  0.69947  Biso   1.000  H
  H683     1.0000 0.57456  0.26069  0.73516  Biso   1.000  H
  C1071    1.0000 0.65506  0.27997  0.73499  Biso   1.000  C
  H684     1.0000 0.68613  0.42546  0.73516  Biso   1.000  H
  C1072    1.0000 0.72004  0.37509  0.73499  Biso   1.000  C
  C1073    1.0000 0.65724  0.13735  0.71260  Biso   1.000  C
  C1074    1.0000 0.64815  0.20288  0.72347  Biso   1.000  C
  C1075    1.0000 0.86269  0.51988  0.71260  Biso   1.000  C
  C1076    1.0000 0.79714  0.44528  0.72347  Biso   1.000  C
  C1077    1.0000 0.25330  0.29584  0.71682  Biso   1.000  C
  O155     1.0000 0.64304  0.22403  0.73549  Biso   1.000  O
  C1078    1.0000 0.70990  0.32190  0.73507  Biso   1.000  C
  O156     1.0000 0.77598  0.41902  0.73549  Biso   1.000  O
  N233     1.0000 0.64728  0.15542  0.72451  Biso   1.000  N
  C1079    1.0000 0.66514  0.08922  0.71315  Biso   1.000  C
  N234     1.0000 0.84458  0.49187  0.72451  Biso   1.000  N
  C1080    1.0000 0.91078  0.57590  0.71315  Biso   1.000  C
  H685     1.0000 0.24973  0.31758  0.72426  Biso   1.000  H
  H686     1.0000 0.24094  0.30416  0.70816  Biso   1.000  H
  H687     1.0000 0.23035  0.25607  0.71887  Biso   1.000  H
  H688     1.0000 0.73936  0.31388  0.73516  Biso   1.000  H
  C1081    1.0000 0.63922  0.04904  0.72320  Biso   1.000  C
  C1082    1.0000 0.70258  0.08586  0.70418  Biso   1.000  C
  C1083    1.0000 0.95097  0.59019  0.72320  Biso   1.000  C
  C1084    1.0000 0.91413  0.61670  0.70418  Biso   1.000  C
  H689     1.0000 0.61375  0.05078  0.72937  Biso   1.000  H
  C1085    1.0000 0.65125  0.00565  0.72411  Biso   1.000  C
  C1086    1.0000 0.71463  0.04368  0.70554  Biso   1.000  C
  H690     1.0000 0.71975  0.11279  0.69707  Biso   1.000  H
  H691     1.0000 0.94923  0.56297  0.72937  Biso   1.000  H
  C1087    1.0000 0.99435  0.64559  0.72411  Biso   1.000  C
  C1088    1.0000 0.95634  0.67098  0.70554  Biso   1.000  C
  H692     1.0000 0.88724  0.60698  0.69707  Biso   1.000  H
  C1089    1.0000 0.68921  0.00283  0.71549  Biso   1.000  C
  H693     1.0000 0.63273  0.97748  0.73087  Biso   1.000  H
  H694     1.0000 0.74103  0.04255  0.69947  Biso   1.000  H
  C1090    1.0000 0.99720  0.68640  0.71549  Biso   1.000  C
  H695     1.0000 0.02252  0.65527  0.73087  Biso   1.000  H
  H696     1.0000 0.95746  0.69849  0.69947  Biso   1.000  H
  C1091    1.0000 0.70418  0.95749  0.71682  Biso   1.000  C
  C1092    1.0000 0.04255  0.74674  0.71682  Biso   1.000  C
  H697     1.0000 0.68246  0.93218  0.72426  Biso   1.000  H
  H698     1.0000 0.69585  0.93679  0.70816  Biso   1.000  H
  H699     1.0000 0.74392  0.97428  0.71887  Biso   1.000  H
  H700     1.0000 0.06782  0.75027  0.72426  Biso   1.000  H
  H701     1.0000 0.06323  0.75908  0.70816  Biso   1.000  H
  H702     1.0000 0.02574  0.76968  0.71887  Biso   1.000  H
  O157     1.0000 0.43301  0.66736  0.31122  Biso   1.000  O
  C1093    1.0000 0.38258  0.66699  0.31114  Biso   1.000  C
  C1094    1.0000 0.45226  0.66130  0.29897  Biso   1.000  C
  C1095    1.0000 0.33323  0.61629  0.31128  Biso   1.000  C
  C1096    1.0000 0.38370  0.71694  0.31128  Biso   1.000  C
  N235     1.0000 0.42226  0.65427  0.28781  Biso   1.000  N
  N236     1.0000 0.50142  0.66425  0.29974  Biso   1.000  N
  C1097    1.0000 0.28443  0.61745  0.31114  Biso   1.000  C
  H703     1.0000 0.33328  0.58213  0.31144  Biso   1.000  H
  C1098    1.0000 0.33302  0.71557  0.31114  Biso   1.000  C
  H704     1.0000 0.41786  0.75114  0.31144  Biso   1.000  H
  C1099    1.0000 0.44529  0.64816  0.27653  Biso   1.000  C
  C1100    1.0000 0.51989  0.65722  0.28740  Biso   1.000  C
  O158     1.0000 0.23434  0.56700  0.31122  Biso   1.000  O
  C1101    1.0000 0.28308  0.66678  0.31128  Biso   1.000  C
  O159     1.0000 0.33267  0.76569  0.31122  Biso   1.000  O
  O160     1.0000 0.41902  0.64305  0.26451  Biso   1.000  O
  N237     1.0000 0.49186  0.64729  0.27549  Biso   1.000  N
  C1102    1.0000 0.57588  0.66512  0.28685  Biso   1.000  C
  C1103    1.0000 0.20904  0.54772  0.29897  Biso   1.000  C
  H705     1.0000 0.24887  0.66674  0.31144  Biso   1.000  H
  C1104    1.0000 0.33869  0.79095  0.29897  Biso   1.000  C
  C1105    1.0000 0.37511  0.65506  0.26501  Biso   1.000  C
  C1106    1.0000 0.59018  0.63923  0.27680  Biso   1.000  C
  C1107    1.0000 0.61670  0.70256  0.29582  Biso   1.000  C
  N238     1.0000 0.16282  0.49860  0.29974  Biso   1.000  N
  N239     1.0000 0.23202  0.57777  0.28781  Biso   1.000  N
  N240     1.0000 0.34573  0.76797  0.28781  Biso   1.000  N
  N241     1.0000 0.33579  0.83721  0.29974  Biso   1.000  N
  C1108    1.0000 0.32193  0.61205  0.26493  Biso   1.000  C
  C1109    1.0000 0.38798  0.70988  0.26493  Biso   1.000  C
  H706     1.0000 0.56298  0.61375  0.27063  Biso   1.000  H
  C1110    1.0000 0.64560  0.65124  0.27589  Biso   1.000  C
  C1111    1.0000 0.67097  0.71465  0.29446  Biso   1.000  C
  H707     1.0000 0.60696  0.71972  0.30293  Biso   1.000  H
  C1112    1.0000 0.13734  0.48011  0.28740  Biso   1.000  C
  C1113    1.0000 0.20285  0.55470  0.27653  Biso   1.000  C
  C1114    1.0000 0.35186  0.79714  0.27653  Biso   1.000  C
  C1115    1.0000 0.34281  0.86268  0.28740  Biso   1.000  C
  C1116    1.0000 0.27995  0.62489  0.26501  Biso   1.000  C
  H708     1.0000 0.31386  0.57452  0.26484  Biso   1.000  H
  C1117    1.0000 0.34495  0.72006  0.26501  Biso   1.000  C
  H709     1.0000 0.42545  0.73934  0.26484  Biso   1.000  H
  H710     1.0000 0.65528  0.63275  0.26913  Biso   1.000  H
  C1118    1.0000 0.68640  0.68922  0.28451  Biso   1.000  C
  H711     1.0000 0.69846  0.74104  0.30053  Biso   1.000  H
  C1119    1.0000 0.08921  0.42409  0.28685  Biso   1.000  C
  N242     1.0000 0.15541  0.50812  0.27549  Biso   1.000  N
  O161     1.0000 0.22403  0.58101  0.26451  Biso   1.000  O
  O162     1.0000 0.35695  0.77595  0.26451  Biso   1.000  O
  N243     1.0000 0.35273  0.84460  0.27549  Biso   1.000  N
  C1120    1.0000 0.33485  0.91076  0.28685  Biso   1.000  C
  C1121    1.0000 0.29013  0.67808  0.26493  Biso   1.000  C
  C1122    1.0000 0.74671  0.70418  0.28318  Biso   1.000  C
  C1123    1.0000 0.08589  0.38332  0.29582  Biso   1.000  C
  C1124    1.0000 0.04905  0.40983  0.27680  Biso   1.000  C
  C1125    1.0000 0.36078  0.95095  0.27680  Biso   1.000  C
  C1126    1.0000 0.29742  0.91413  0.29582  Biso   1.000  C
  H712     1.0000 0.26066  0.68615  0.26484  Biso   1.000  H
  H713     1.0000 0.75028  0.68245  0.27574  Biso   1.000  H
  H714     1.0000 0.75906  0.69583  0.29184  Biso   1.000  H
  H715     1.0000 0.76969  0.74395  0.28113  Biso   1.000  H
  C1127    1.0000 0.04367  0.32905  0.29446  Biso   1.000  C
  H716     1.0000 0.11278  0.39305  0.30293  Biso   1.000  H
  C1128    1.0000 0.00564  0.35440  0.27589  Biso   1.000  C
  H717     1.0000 0.05078  0.43705  0.27063  Biso   1.000  H
  H718     1.0000 0.38627  0.94924  0.27063  Biso   1.000  H
  C1129    1.0000 0.34875  0.99433  0.27589  Biso   1.000  C
  C1130    1.0000 0.28538  0.95635  0.29446  Biso   1.000  C
  H719     1.0000 0.28026  0.88724  0.30293  Biso   1.000  H
  C1131    1.0000 0.00280  0.31359  0.28451  Biso   1.000  C
  H720     1.0000 0.04258  0.30154  0.30053  Biso   1.000  H
  H721     1.0000 0.97750  0.34476  0.26913  Biso   1.000  H
  C1132    1.0000 0.31081  0.99720  0.28451  Biso   1.000  C
  H722     1.0000 0.36726  0.02251  0.26913  Biso   1.000  H
  H723     1.0000 0.25896  0.95743  0.30053  Biso   1.000  H
  C1133    1.0000 0.95746  0.25329  0.28318  Biso   1.000  C
  C1134    1.0000 0.29583  0.04254  0.28318  Biso   1.000  C
  H724     1.0000 0.93217  0.24972  0.27574  Biso   1.000  H
  H725     1.0000 0.93678  0.24095  0.29184  Biso   1.000  H
  H726     1.0000 0.97428  0.23035  0.28113  Biso   1.000  H
  H727     1.0000 0.31757  0.06781  0.27574  Biso   1.000  H
  H728     1.0000 0.30416  0.06323  0.29184  Biso   1.000  H
  H729     1.0000 0.25607  0.02571  0.28113  Biso   1.000  H
  O163     1.0000 0.47363  0.98390  0.36684  Biso   1.000  O
  C1135    1.0000 0.43873  0.95253  0.35584  Biso   1.000  C
  C1136    1.0000 0.51422  0.03643  0.36379  Biso   1.000  C
  C1137    1.0000 0.45811  0.92838  0.34669  Biso   1.000  C
  C1138    1.0000 0.38679  0.94633  0.35508  Biso   1.000  C
  N244     1.0000 0.51302  0.05634  0.35153  Biso   1.000  N
  N245     1.0000 0.55028  0.06053  0.37378  Biso   1.000  N
  C1139    1.0000 0.42261  0.89734  0.33633  Biso   1.000  C
  H730     1.0000 0.49427  0.93304  0.34754  Biso   1.000  H
  C1140    1.0000 0.35347  0.91554  0.34431  Biso   1.000  C
  H731     1.0000 0.37417  0.96262  0.36173  Biso   1.000  H
  C1141    1.0000 0.55489  0.10741  0.34975  Biso   1.000  C
  C1142    1.0000 0.59241  0.11148  0.37028  Biso   1.000  C
  O164     1.0000 0.44031  0.87053  0.32702  Biso   1.000  O
  C1143    1.0000 0.36999  0.89056  0.33469  Biso   1.000  C
  O165     1.0000 0.29959  0.90848  0.34299  Biso   1.000  O
  O166     1.0000 0.55803  0.13334  0.33783  Biso   1.000  O
  N246     1.0000 0.59619  0.13754  0.35841  Biso   1.000  N
  C1144    1.0000 0.63845  0.13891  0.38020  Biso   1.000  C
  C1145    1.0000 0.46020  0.89642  0.31488  Biso   1.000  C
  H732     1.0000 0.34646  0.86962  0.32733  Biso   1.000  H
  C1146    1.0000 0.29569  0.94883  0.33612  Biso   1.000  C
  C1147    1.0000 0.51538  0.10367  0.32827  Biso   1.000  C
  C1148    1.0000 0.63268  0.11967  0.39363  Biso   1.000  C
  C1149    1.0000 0.68986  0.18142  0.37595  Biso   1.000  C
  N247     1.0000 0.47216  0.86767  0.30609  Biso   1.000  N
  N248     1.0000 0.46611  0.94625  0.31326  Biso   1.000  N
  N249     1.0000 0.34145  0.99176  0.33145  Biso   1.000  N
  N250     1.0000 0.24394  0.93860  0.33515  Biso   1.000  N
  C1150    1.0000 0.52469  0.07479  0.31800  Biso   1.000  C
  C1151    1.0000 0.46643  0.10475  0.32915  Biso   1.000  C
  H733     1.0000 0.59767  0.09054  0.39673  Biso   1.000  H
  C1152    1.0000 0.67713  0.14236  0.40259  Biso   1.000  C
  C1153    1.0000 0.73511  0.20303  0.38478  Biso   1.000  C
  H734     1.0000 0.69416  0.19593  0.36693  Biso   1.000  H
  C1154    1.0000 0.48977  0.89281  0.29395  Biso   1.000  C
  C1155    1.0000 0.48394  0.96636  0.30078  Biso   1.000  C
  C1156    1.0000 0.33138  0.02820  0.32530  Biso   1.000  C
  C1157    1.0000 0.23948  0.97842  0.32843  Biso   1.000  C
  C1158    1.0000 0.48278  0.04545  0.30879  Biso   1.000  C
  H735     1.0000 0.55908  0.07533  0.31733  Biso   1.000  H
  C1159    1.0000 0.42612  0.07466  0.31961  Biso   1.000  C
  H736     1.0000 0.46088  0.12553  0.33613  Biso   1.000  H
  H737     1.0000 0.67194  0.12960  0.41183  Biso   1.000  H
  C1160    1.0000 0.72920  0.18337  0.39832  Biso   1.000  C
  H738     1.0000 0.77035  0.23141  0.38164  Biso   1.000  H
  C1161    1.0000 0.50614  0.86472  0.28347  Biso   1.000  C
  N251     1.0000 0.49534  0.94239  0.29038  Biso   1.000  N
  O167     1.0000 0.49204  0.01748  0.29784  Biso   1.000  O
  O168     1.0000 0.37533  0.07479  0.32010  Biso   1.000  O
  N252     1.0000 0.28288  0.02562  0.32339  Biso   1.000  N
  C1162    1.0000 0.18306  0.96815  0.32581  Biso   1.000  C
  C1163    1.0000 0.43297  0.04474  0.30920  Biso   1.000  C
  C1164    1.0000 0.77852  0.20685  0.40781  Biso   1.000  C
  C1165    1.0000 0.51319  0.82058  0.28726  Biso   1.000  C
  C1166    1.0000 0.51632  0.88329  0.27003  Biso   1.000  C
  C1167    1.0000 0.17230  0.99479  0.31513  Biso   1.000  C
  C1168    1.0000 0.13889  0.92984  0.33379  Biso   1.000  C
  H739     1.0000 0.40456  0.02463  0.30263  Biso   1.000  H
  H740     1.0000 0.81125  0.23540  0.40294  Biso   1.000  H
  H741     1.0000 0.78534  0.17710  0.41083  Biso   1.000  H
  H742     1.0000 0.77119  0.22344  0.41583  Biso   1.000  H
  C1169    1.0000 0.53087  0.79606  0.27767  Biso   1.000  C
  H743     1.0000 0.50577  0.80712  0.29644  Biso   1.000  H
  C1170    1.0000 0.53278  0.85732  0.26047  Biso   1.000  C
  H744     1.0000 0.51205  0.91384  0.26734  Biso   1.000  H
  C1171    1.0000 0.11861  0.98241  0.31256  Biso   1.000  C
  H745     1.0000 0.20185  0.02143  0.30963  Biso   1.000  H
  C1172    1.0000 0.08550  0.91828  0.33102  Biso   1.000  C
  H746     1.0000 0.14558  0.91155  0.34124  Biso   1.000  H
  C1173    1.0000 0.54006  0.81373  0.26409  Biso   1.000  C
  H747     1.0000 0.53678  0.76664  0.28043  Biso   1.000  H
  H748     1.0000 0.53917  0.87004  0.25124  Biso   1.000  H
  C1174    1.0000 0.07434  0.94355  0.32046  Biso   1.000  C
  H749     1.0000 0.11157  0.00073  0.30524  Biso   1.000  H
  H750     1.0000 0.05588  0.89214  0.33663  Biso   1.000  H
  C1175    1.0000 0.55788  0.78530  0.25368  Biso   1.000  C
  C1176    1.0000 0.01484  0.92863  0.31740  Biso   1.000  C
  H751     1.0000 0.56268  0.80305  0.24463  Biso   1.000  H
  H752     1.0000 0.52938  0.74595  0.25303  Biso   1.000  H
  H753     1.0000 0.59307  0.78846  0.25653  Biso   1.000  H
  H754     1.0000 0.00504  0.91392  0.30804  Biso   1.000  H
  H755     1.0000 0.01139  0.96196  0.31823  Biso   1.000  H
  H756     1.0000 0.98978  0.90046  0.32393  Biso   1.000  H
  O169     1.0000 0.80789  0.15871  0.36883  Biso   1.000  O
  C1177    1.0000 0.77068  0.14944  0.35787  Biso   1.000  C
  C1178    1.0000 0.85091  0.15060  0.36588  Biso   1.000  C
  C1179    1.0000 0.78323  0.19137  0.34867  Biso   1.000  C
  C1180    1.0000 0.72157  0.09965  0.35746  Biso   1.000  C
  N253     1.0000 0.88631  0.16203  0.37629  Biso   1.000  N
  N254     1.0000 0.85319  0.13277  0.35341  Biso   1.000  N
  C1181    1.0000 0.74506  0.18206  0.33840  Biso   1.000  C
  H757     1.0000 0.81707  0.22574  0.34934  Biso   1.000  H
  C1182    1.0000 0.68478  0.09280  0.34705  Biso   1.000  C
  H758     1.0000 0.71326  0.07123  0.36404  Biso   1.000  H
  C1183    1.0000 0.93029  0.15642  0.37272  Biso   1.000  C
  C1184    1.0000 0.89713  0.12687  0.35179  Biso   1.000  C
  O170     1.0000 0.75803  0.22470  0.32884  Biso   1.000  O
  C1185    1.0000 0.69500  0.13311  0.33751  Biso   1.000  C
  O171     1.0000 0.63387  0.04201  0.34657  Biso   1.000  O
  N255     1.0000 0.93782  0.13880  0.36058  Biso   1.000  N
  C1186    1.0000 0.97476  0.17279  0.38320  Biso   1.000  C
  O172     1.0000 0.90312  0.10697  0.33965  Biso   1.000  O
  C1187    1.0000 0.78082  0.22154  0.31691  Biso   1.000  C
  H759     1.0000 0.66868  0.12754  0.33053  Biso   1.000  H
  C1188    1.0000 0.63652  0.99809  0.34136  Biso   1.000  C
  C1189    1.0000 0.96635  0.18298  0.39664  Biso   1.000  C
  C1190    1.0000 0.02592  0.17982  0.37941  Biso   1.000  C
  C1191    1.0000 0.85862  0.08931  0.33034  Biso   1.000  C
  N256     1.0000 0.79199  0.26289  0.30826  Biso   1.000  N
  N257     1.0000 0.79002  0.17969  0.31513  Biso   1.000  N
  N258     1.0000 0.68303  0.00810  0.33522  Biso   1.000  N
  N259     1.0000 0.59061  0.94959  0.34328  Biso   1.000  N
  H760     1.0000 0.93159  0.17874  0.39933  Biso   1.000  H
  C1192    1.0000 0.00881  0.19943  0.40619  Biso   1.000  C
  H761     1.0000 0.03197  0.17242  0.37023  Biso   1.000  H
  C1193    1.0000 0.06813  0.19752  0.38900  Biso   1.000  C
  C1194    1.0000 0.86303  0.12475  0.31997  Biso   1.000  C
  C1195    1.0000 0.81276  0.03665  0.33197  Biso   1.000  C
  C1196    1.0000 0.81427  0.25907  0.29639  Biso   1.000  C
  C1197    1.0000 0.81110  0.18090  0.30287  Biso   1.000  C
  C1198    1.0000 0.68020  0.96235  0.33054  Biso   1.000  C
  C1199    1.0000 0.59441  0.90616  0.33823  Biso   1.000  C
  C1200    1.0000 0.05966  0.20670  0.40258  Biso   1.000  C
  H762     1.0000 0.00247  0.20583  0.41543  Biso   1.000  H
  H763     1.0000 0.10347  0.20342  0.38623  Biso   1.000  H
  C1201    1.0000 0.81956  0.10539  0.31083  Biso   1.000  C
  H764     1.0000 0.89459  0.16095  0.31913  Biso   1.000  H
  C1202    1.0000 0.77127  0.02011  0.32236  Biso   1.000  C
  H765     1.0000 0.81017  0.01313  0.33933  Biso   1.000  H
  C1203    1.0000 0.83288  0.30515  0.28647  Biso   1.000  C
  N260     1.0000 0.82307  0.21693  0.29289  Biso   1.000  N
  O173     1.0000 0.82308  0.14030  0.29982  Biso   1.000  O
  O174     1.0000 0.72449  0.96630  0.32368  Biso   1.000  O
  N261     1.0000 0.63867  0.91061  0.33152  Biso   1.000  N
  C1204    1.0000 0.54826  0.84977  0.34086  Biso   1.000  C
  C1205    1.0000 0.10592  0.22457  0.41299  Biso   1.000  C
  C1206    1.0000 0.77381  0.05348  0.31158  Biso   1.000  C
  C1207    1.0000 0.84178  0.35656  0.29072  Biso   1.000  C
  C1208    1.0000 0.84631  0.29933  0.27303  Biso   1.000  C
  C1209    1.0000 0.51086  0.83897  0.35153  Biso   1.000  C
  C1210    1.0000 0.54240  0.80560  0.33288  Biso   1.000  C
  H766     1.0000 0.09297  0.22935  0.42203  Biso   1.000  H
  H767     1.0000 0.11676  0.19602  0.41363  Biso   1.000  H
  H768     1.0000 0.13796  0.25973  0.41013  Biso   1.000  H
  H769     1.0000 0.74489  0.04085  0.30493  Biso   1.000  H
  C1211    1.0000 0.86539  0.40177  0.28189  Biso   1.000  C
  H770     1.0000 0.83157  0.36084  0.29973  Biso   1.000  H
  H771     1.0000 0.84048  0.26434  0.26993  Biso   1.000  H
  C1212    1.0000 0.86811  0.34380  0.26408  Biso   1.000  C
  H772     1.0000 0.51378  0.86856  0.35704  Biso   1.000  H
  C1213    1.0000 0.46951  0.78528  0.35411  Biso   1.000  C
  C1214    1.0000 0.50059  0.75220  0.33565  Biso   1.000  C
  H773     1.0000 0.56739  0.81225  0.32543  Biso   1.000  H
  C1215    1.0000 0.87914  0.39587  0.26835  Biso   1.000  C
  H774     1.0000 0.87227  0.43705  0.28503  Biso   1.000  H
  H775     1.0000 0.87569  0.33865  0.25483  Biso   1.000  H
  H776     1.0000 0.44419  0.77825  0.36143  Biso   1.000  H
  C1216    1.0000 0.46412  0.74102  0.34621  Biso   1.000  C
  H777     1.0000 0.49707  0.72257  0.33004  Biso   1.000  H
  C1217    1.0000 0.90499  0.44520  0.25886  Biso   1.000  C
  C1218    1.0000 0.41956  0.68155  0.34927  Biso   1.000  C
  H778     1.0000 0.90917  0.47795  0.26373  Biso   1.000  H
  H779     1.0000 0.94157  0.45206  0.25583  Biso   1.000  H
  H780     1.0000 0.88109  0.43784  0.25084  Biso   1.000  H
  H781     1.0000 0.42266  0.65645  0.34274  Biso   1.000  H
  H782     1.0000 0.42448  0.67174  0.35863  Biso   1.000  H
  H783     1.0000 0.38279  0.67806  0.34843  Biso   1.000  H
  O175     1.0000 0.19211  0.84128  0.63117  Biso   1.000  O
  C1219    1.0000 0.14911  0.84942  0.63412  Biso   1.000  C
  C1220    1.0000 0.22937  0.85059  0.64213  Biso   1.000  C
  N262     1.0000 0.11370  0.83800  0.62371  Biso   1.000  N
  N263     1.0000 0.14681  0.86721  0.64659  Biso   1.000  N
  C1221    1.0000 0.21677  0.80861  0.65133  Biso   1.000  C
  C1222    1.0000 0.27844  0.90037  0.64254  Biso   1.000  C
  C1223    1.0000 0.06970  0.84356  0.62728  Biso   1.000  C
  C1224    1.0000 0.10292  0.87315  0.64821  Biso   1.000  C
  C1225    1.0000 0.25496  0.81792  0.66160  Biso   1.000  C
  H784     1.0000 0.18294  0.77429  0.65066  Biso   1.000  H
  C1226    1.0000 0.31521  0.90719  0.65295  Biso   1.000  C
  H785     1.0000 0.28673  0.92876  0.63596  Biso   1.000  H
  C1227    1.0000 0.02525  0.82723  0.61680  Biso   1.000  C
  N264     1.0000 0.06217  0.86118  0.63942  Biso   1.000  N
  O176     1.0000 0.09689  0.89306  0.66035  Biso   1.000  O
  O177     1.0000 0.24201  0.77533  0.67116  Biso   1.000  O
  C1228    1.0000 0.30501  0.86692  0.66249  Biso   1.000  C
  O178     1.0000 0.36614  0.95801  0.65343  Biso   1.000  O
  C1229    1.0000 0.03364  0.81701  0.60336  Biso   1.000  C
  C1230    1.0000 0.97407  0.82017  0.62059  Biso   1.000  C
  C1231    1.0000 0.14139  0.91072  0.66966  Biso   1.000  C
  C1232    1.0000 0.21917  0.77844  0.68309  Biso   1.000  C
  H786     1.0000 0.33133  0.87249  0.66947  Biso   1.000  H
  C1233    1.0000 0.36349  0.00194  0.65864  Biso   1.000  C
  H787     1.0000 0.06846  0.82129  0.60067  Biso   1.000  H
  C1234    1.0000 0.99122  0.80055  0.59381  Biso   1.000  C
  H788     1.0000 0.96805  0.82756  0.62977  Biso   1.000  H
  C1235    1.0000 0.93188  0.80251  0.61100  Biso   1.000  C
  C1236    1.0000 0.13696  0.87523  0.68003  Biso   1.000  C
  C1237    1.0000 0.18726  0.96337  0.66803  Biso   1.000  C
  N265     1.0000 0.20802  0.73714  0.69174  Biso   1.000  N
  N266     1.0000 0.20997  0.82029  0.68487  Biso   1.000  N
  N267     1.0000 0.31699  0.99192  0.66478  Biso   1.000  N
  N268     1.0000 0.40944  0.05043  0.65672  Biso   1.000  N
  C1238    1.0000 0.94033  0.79328  0.59742  Biso   1.000  C
  H789     1.0000 0.99752  0.79415  0.58457  Biso   1.000  H
  H790     1.0000 0.89652  0.79656  0.61377  Biso   1.000  H
  C1239    1.0000 0.18044  0.89460  0.68917  Biso   1.000  C
  H791     1.0000 0.10542  0.83908  0.68087  Biso   1.000  H
  C1240    1.0000 0.22872  0.97987  0.67764  Biso   1.000  C
  H792     1.0000 0.18984  0.98689  0.66067  Biso   1.000  H
  C1241    1.0000 0.18575  0.74096  0.70361  Biso   1.000  C
  C1242    1.0000 0.18891  0.81913  0.69713  Biso   1.000  C
  C1243    1.0000 0.31980  0.03763  0.66946  Biso   1.000  C
  C1244    1.0000 0.40560  0.09386  0.66177  Biso   1.000  C
  C1245    1.0000 0.89410  0.77545  0.58701  Biso   1.000  C
  O179     1.0000 0.17691  0.85969  0.70018  Biso   1.000  O
  C1246    1.0000 0.22620  0.94654  0.68842  Biso   1.000  C
  O180     1.0000 0.27552  0.03373  0.67632  Biso   1.000  O
  N269     1.0000 0.17692  0.78306  0.70711  Biso   1.000  N
  C1247    1.0000 0.16713  0.69487  0.71353  Biso   1.000  C
  N270     1.0000 0.36134  0.08941  0.66848  Biso   1.000  N
  C1248    1.0000 0.45173  0.15021  0.65914  Biso   1.000  C
  H793     1.0000 0.90704  0.77067  0.57797  Biso   1.000  H
  H794     1.0000 0.88323  0.80396  0.58637  Biso   1.000  H
  H795     1.0000 0.86203  0.74025  0.58987  Biso   1.000  H
  H796     1.0000 0.25512  0.95918  0.69507  Biso   1.000  H
  C1249    1.0000 0.15368  0.70065  0.72697  Biso   1.000  C
  C1250    1.0000 0.15823  0.64347  0.70928  Biso   1.000  C
  C1251    1.0000 0.48917  0.16102  0.64847  Biso   1.000  C
  C1252    1.0000 0.45761  0.19443  0.66712  Biso   1.000  C
  H797     1.0000 0.15953  0.73568  0.73007  Biso   1.000  H
  C1253    1.0000 0.13188  0.65618  0.73592  Biso   1.000  C
  C1254    1.0000 0.13462  0.59825  0.71811  Biso   1.000  C
  H798     1.0000 0.16844  0.63919  0.70027  Biso   1.000  H
  H799     1.0000 0.48623  0.13147  0.64296  Biso   1.000  H
  C1255    1.0000 0.53048  0.21471  0.64589  Biso   1.000  C
  C1256    1.0000 0.49946  0.24783  0.66435  Biso   1.000  C
  H800     1.0000 0.43264  0.18774  0.67457  Biso   1.000  H
  H801     1.0000 0.12433  0.66138  0.74517  Biso   1.000  H
  C1257    1.0000 0.12085  0.60411  0.73165  Biso   1.000  C
  H802     1.0000 0.12774  0.56297  0.71497  Biso   1.000  H
  H803     1.0000 0.55580  0.22173  0.63857  Biso   1.000  H
  C1258    1.0000 0.53588  0.25897  0.65379  Biso   1.000  C
  H804     1.0000 0.50294  0.27746  0.66996  Biso   1.000  H
  C1259    1.0000 0.09500  0.55478  0.74114  Biso   1.000  C
  C1260    1.0000 0.58046  0.31848  0.65073  Biso   1.000  C
  H805     1.0000 0.09085  0.52208  0.73627  Biso   1.000  H
  H806     1.0000 0.05844  0.54797  0.74417  Biso   1.000  H
  H807     1.0000 0.11892  0.56218  0.74916  Biso   1.000  H
  H808     1.0000 0.57733  0.34354  0.65726  Biso   1.000  H
  H809     1.0000 0.57552  0.32824  0.64137  Biso   1.000  H
  H810     1.0000 0.61722  0.32197  0.65157  Biso   1.000  H
  C1261    1.0000 0.54021  0.44520  0.75885  Biso   1.000  C
  C1262    1.0000 0.51673  0.39587  0.76834  Biso   1.000  C
  H811     1.0000 0.56878  0.47795  0.76373  Biso   1.000  H
  H812     1.0000 0.51049  0.45206  0.75583  Biso   1.000  H
  H813     1.0000 0.55679  0.43784  0.75083  Biso   1.000  H
  C1263    1.0000 0.47569  0.34380  0.76408  Biso   1.000  C
  C1264    1.0000 0.53638  0.40177  0.78190  Biso   1.000  C
  C1265    1.0000 0.45302  0.29933  0.77303  Biso   1.000  C
  H814     1.0000 0.46296  0.33865  0.75484  Biso   1.000  H
  H815     1.0000 0.56478  0.43705  0.78504  Biso   1.000  H
  C1266    1.0000 0.51478  0.35656  0.79072  Biso   1.000  C
  C1267    1.0000 0.47227  0.30515  0.78648  Biso   1.000  C
  H816     1.0000 0.42387  0.26434  0.76994  Biso   1.000  H
  H817     1.0000 0.52926  0.36084  0.79974  Biso   1.000  H
  C1268    1.0000 0.44484  0.25907  0.79638  Biso   1.000  C
  N271     1.0000 0.47090  0.26289  0.80827  Biso   1.000  N
  N272     1.0000 0.39386  0.21693  0.79288  Biso   1.000  N
  C1269    1.0000 0.44072  0.22154  0.81692  Biso   1.000  C
  C1270    1.0000 0.36980  0.18090  0.80288  Biso   1.000  C
  O181     1.0000 0.46670  0.22470  0.82885  Biso   1.000  O
  N273     1.0000 0.38971  0.17969  0.81514  Biso   1.000  N
  O182     1.0000 0.31721  0.14030  0.79983  Biso   1.000  O
  C1271    1.0000 0.43703  0.18206  0.83840  Biso   1.000  C
  C1272    1.0000 0.28583  0.10539  0.81082  Biso   1.000  C
  C1273    1.0000 0.43811  0.13311  0.83751  Biso   1.000  C
  C1274    1.0000 0.40814  0.19137  0.84866  Biso   1.000  C
  C1275    1.0000 0.27968  0.05348  0.81158  Biso   1.000  C
  C1276    1.0000 0.26172  0.12475  0.81997  Biso   1.000  C
  C1277    1.0000 0.40802  0.09280  0.84706  Biso   1.000  C
  H818     1.0000 0.45886  0.12754  0.83054  Biso   1.000  H
  H819     1.0000 0.40867  0.22574  0.84933  Biso   1.000  H
  C1278    1.0000 0.37879  0.14944  0.85788  Biso   1.000  C
  C1279    1.0000 0.24885  0.02011  0.82235  Biso   1.000  C
  H820     1.0000 0.29596  0.04085  0.80493  Biso   1.000  H
  H821     1.0000 0.26636  0.16095  0.81913  Biso   1.000  H
  C1280    1.0000 0.23068  0.08931  0.83034  Biso   1.000  C
  O183     1.0000 0.40814  0.04201  0.84657  Biso   1.000  O
  C1281    1.0000 0.37809  0.09965  0.85746  Biso   1.000  C
  O184     1.0000 0.35086  0.15871  0.86884  Biso   1.000  O
  C1282    1.0000 0.22390  0.03665  0.83198  Biso   1.000  C
  O185     1.0000 0.24180  0.96630  0.82368  Biso   1.000  O
  O186     1.0000 0.20385  0.10697  0.83966  Biso   1.000  O
  C1283    1.0000 0.36156  0.99809  0.84136  Biso   1.000  C
  H822     1.0000 0.35797  0.07123  0.86403  Biso   1.000  H
  C1284    1.0000 0.29969  0.15060  0.86588  Biso   1.000  C
  H823     1.0000 0.20296  0.01313  0.83934  Biso   1.000  H
  C1285    1.0000 0.28215  0.96235  0.83055  Biso   1.000  C
  C1286    1.0000 0.22978  0.12687  0.85178  Biso   1.000  C
  N274     1.0000 0.32508  0.00810  0.83522  Biso   1.000  N
  N275     1.0000 0.35898  0.94959  0.84328  Biso   1.000  N
  N276     1.0000 0.27572  0.16203  0.87628  Biso   1.000  N
  N277     1.0000 0.27959  0.13277  0.85342  Biso   1.000  N
  N278     1.0000 0.27194  0.91061  0.83151  Biso   1.000  N
  N279     1.0000 0.20098  0.13880  0.86057  Biso   1.000  N
  C1287    1.0000 0.31175  0.90616  0.83823  Biso   1.000  C
  C1288    1.0000 0.22613  0.15642  0.87272  Biso   1.000  C
  C1289    1.0000 0.30151  0.84977  0.84086  Biso   1.000  C
  C1290    1.0000 0.19804  0.17279  0.88321  Biso   1.000  C
  C1291    1.0000 0.32811  0.83897  0.85153  Biso   1.000  C
  C1292    1.0000 0.26320  0.80560  0.83287  Biso   1.000  C
  C1293    1.0000 0.15390  0.17982  0.87941  Biso   1.000  C
  C1294    1.0000 0.21662  0.18298  0.89663  Biso   1.000  C
  H824     1.0000 0.35478  0.86856  0.85703  Biso   1.000  H
  C1295    1.0000 0.31576  0.78528  0.85412  Biso   1.000  C
  C1296    1.0000 0.25161  0.75220  0.83564  Biso   1.000  C
  H825     1.0000 0.24485  0.81225  0.82543  Biso   1.000  H
  H826     1.0000 0.14045  0.17242  0.87024  Biso   1.000  H
  C1297    1.0000 0.12939  0.19752  0.88899  Biso   1.000  C
  C1298    1.0000 0.19062  0.19943  0.90619  Biso   1.000  C
  H827     1.0000 0.24718  0.17874  0.89934  Biso   1.000  H
  H828     1.0000 0.33406  0.77825  0.86144  Biso   1.000  H
  C1299    1.0000 0.27690  0.74102  0.84620  Biso   1.000  C
  H829     1.0000 0.22550  0.72257  0.83003  Biso   1.000  H
  H830     1.0000 0.09995  0.20342  0.88623  Biso   1.000  H
  C1300    1.0000 0.14704  0.20670  0.90257  Biso   1.000  C
  H831     1.0000 0.20336  0.20583  0.91544  Biso   1.000  H
  C1301    1.0000 0.26199  0.68155  0.84927  Biso   1.000  C
  C1302    1.0000 0.11866  0.22457  0.91300  Biso   1.000  C
  H832     1.0000 0.23379  0.65645  0.84273  Biso   1.000  H
  H833     1.0000 0.24727  0.67174  0.85864  Biso   1.000  H
  H834     1.0000 0.29527  0.67806  0.84844  Biso   1.000  H
  H835     1.0000 0.13638  0.22935  0.92204  Biso   1.000  H
  H836     1.0000 0.07926  0.19602  0.91364  Biso   1.000  H
  H837     1.0000 0.12177  0.25973  0.91014  Biso   1.000  H
  C1303    1.0000 0.44212  0.22744  0.24633  Biso   1.000  C
  C1304    1.0000 0.45994  0.27365  0.23591  Biso   1.000  C
  H838     1.0000 0.43732  0.24037  0.25537  Biso   1.000  H
  H839     1.0000 0.47062  0.21655  0.24697  Biso   1.000  H
  H840     1.0000 0.40694  0.19536  0.24347  Biso   1.000  H
  C1305    1.0000 0.46725  0.32456  0.23952  Biso   1.000  C
  C1306    1.0000 0.46914  0.26522  0.22232  Biso   1.000  C
  H841     1.0000 0.46084  0.33088  0.24877  Biso   1.000  H
  C1307    1.0000 0.48368  0.36699  0.22997  Biso   1.000  C
  C1308    1.0000 0.48685  0.30740  0.21275  Biso   1.000  C
  H842     1.0000 0.46323  0.22985  0.21956  Biso   1.000  H
  C1309    1.0000 0.49392  0.35859  0.21654  Biso   1.000  C
  H843     1.0000 0.48794  0.40177  0.23267  Biso   1.000  H
  H844     1.0000 0.49424  0.30137  0.20357  Biso   1.000  H
  C1310    1.0000 0.51023  0.40302  0.20606  Biso   1.000  C
  N280     1.0000 0.50466  0.44703  0.20962  Biso   1.000  N
  N281     1.0000 0.52788  0.39550  0.19390  Biso   1.000  N
  C1311    1.0000 0.51610  0.48243  0.19921  Biso   1.000  C
  C1312    1.0000 0.53978  0.43622  0.18512  Biso   1.000  C
  O187     1.0000 0.50795  0.52545  0.20217  Biso   1.000  O
  N282     1.0000 0.53389  0.48015  0.18675  Biso   1.000  N
  O188     1.0000 0.55972  0.43024  0.17299  Biso   1.000  O
  C1313    1.0000 0.51725  0.56268  0.19121  Biso   1.000  C
  C1314    1.0000 0.57738  0.47470  0.16368  Biso   1.000  C
  C1315    1.0000 0.47529  0.55009  0.18199  Biso   1.000  C
  C1316    1.0000 0.56702  0.61176  0.19079  Biso   1.000  C
  C1317    1.0000 0.54192  0.47030  0.15330  Biso   1.000  C
  C1318    1.0000 0.63005  0.52058  0.16531  Biso   1.000  C
  C1319    1.0000 0.48460  0.58828  0.17174  Biso   1.000  C
  H845     1.0000 0.44092  0.51626  0.18267  Biso   1.000  H
  C1320    1.0000 0.57385  0.64854  0.18039  Biso   1.000  C
  H846     1.0000 0.59543  0.62007  0.19737  Biso   1.000  H
  C1321    1.0000 0.56130  0.51381  0.14415  Biso   1.000  C
  H847     1.0000 0.50575  0.43876  0.15247  Biso   1.000  H
  C1322    1.0000 0.64654  0.56206  0.15568  Biso   1.000  C
  H848     1.0000 0.65354  0.52316  0.17267  Biso   1.000  H
  O189     1.0000 0.44198  0.57531  0.16218  Biso   1.000  O
  C1323    1.0000 0.53355  0.63831  0.17084  Biso   1.000  C
  O190     1.0000 0.62467  0.69949  0.17990  Biso   1.000  O
  O191     1.0000 0.52637  0.51024  0.13316  Biso   1.000  O
  C1324    1.0000 0.61320  0.55952  0.14491  Biso   1.000  C
  O192     1.0000 0.70042  0.60885  0.15702  Biso   1.000  O
  C1325    1.0000 0.44513  0.55254  0.15025  Biso   1.000  C
  H849     1.0000 0.53913  0.66466  0.16387  Biso   1.000  H
  C1326    1.0000 0.66861  0.69683  0.17469  Biso   1.000  C
  C1327    1.0000 0.48577  0.52225  0.13621  Biso   1.000  C
  H850     1.0000 0.62585  0.58849  0.13826  Biso   1.000  H
  C1328    1.0000 0.70436  0.65315  0.16388  Biso   1.000  C
  N283     1.0000 0.40381  0.54136  0.14160  Biso   1.000  N
  N284     1.0000 0.48695  0.54332  0.14847  Biso   1.000  N
  N285     1.0000 0.71709  0.74275  0.17662  Biso   1.000  N
  N286     1.0000 0.65857  0.65032  0.16856  Biso   1.000  N
  N287     1.0000 0.44973  0.51028  0.12622  Biso   1.000  N
  N288     1.0000 0.75606  0.69467  0.16484  Biso   1.000  N
  C1329    1.0000 0.40760  0.51909  0.12972  Biso   1.000  C
  C1330    1.0000 0.76052  0.73892  0.17156  Biso   1.000  C
  C1331    1.0000 0.36151  0.50047  0.11981  Biso   1.000  C
  C1332    1.0000 0.81693  0.78509  0.17420  Biso   1.000  C
  C1333    1.0000 0.36731  0.48701  0.10636  Biso   1.000  C
  C1334    1.0000 0.31014  0.49158  0.12406  Biso   1.000  C
  C1335    1.0000 0.82772  0.82249  0.18486  Biso   1.000  C
  C1336    1.0000 0.86111  0.79095  0.16620  Biso   1.000  C
  H851     1.0000 0.40234  0.49287  0.10327  Biso   1.000  H
  C1337    1.0000 0.32288  0.46523  0.09742  Biso   1.000  C
  C1338    1.0000 0.26490  0.46797  0.11523  Biso   1.000  C
  H852     1.0000 0.30583  0.50176  0.13307  Biso   1.000  H
  H853     1.0000 0.79815  0.81959  0.19037  Biso   1.000  H
  C1339    1.0000 0.88141  0.86380  0.18745  Biso   1.000  C
  C1340    1.0000 0.91449  0.83280  0.16898  Biso   1.000  C
  H854     1.0000 0.85445  0.76598  0.15877  Biso   1.000  H
  H855     1.0000 0.32802  0.45767  0.08817  Biso   1.000  H
  C1341    1.0000 0.27080  0.45422  0.10168  Biso   1.000  C
  H856     1.0000 0.22964  0.46107  0.11837  Biso   1.000  H
  H857     1.0000 0.88845  0.88919  0.19477  Biso   1.000  H
  C1342    1.0000 0.92568  0.86920  0.17953  Biso   1.000  C
  H858     1.0000 0.94417  0.83629  0.16337  Biso   1.000  H
  C1343    1.0000 0.22149  0.42837  0.09219  Biso   1.000  C
  C1344    1.0000 0.98515  0.91380  0.18261  Biso   1.000  C
  H859     1.0000 0.18873  0.42417  0.09707  Biso   1.000  H
  H860     1.0000 0.21463  0.39176  0.08916  Biso   1.000  H
  H861     1.0000 0.22883  0.45226  0.08417  Biso   1.000  H
  H862     1.0000 0.99493  0.90889  0.19197  Biso   1.000  H
  H863     1.0000 0.98864  0.95057  0.18177  Biso   1.000  H
  H864     1.0000 0.01022  0.91068  0.17606  Biso   1.000  H
  C1345    1.0000 0.45979  0.55478  0.24115  Biso   1.000  C
  C1346    1.0000 0.48326  0.60411  0.23166  Biso   1.000  C
  H865     1.0000 0.43123  0.52208  0.23627  Biso   1.000  H
  H866     1.0000 0.48952  0.54797  0.24417  Biso   1.000  H
  H867     1.0000 0.44326  0.56218  0.24917  Biso   1.000  H
  C1347    1.0000 0.52431  0.65618  0.23592  Biso   1.000  C
  C1348    1.0000 0.46363  0.59825  0.21810  Biso   1.000  C
  C1349    1.0000 0.54697  0.70065  0.22697  Biso   1.000  C
  H868     1.0000 0.53705  0.66138  0.24516  Biso   1.000  H
  H869     1.0000 0.43523  0.56297  0.21496  Biso   1.000  H
  C1350    1.0000 0.48523  0.64347  0.20928  Biso   1.000  C
  C1351    1.0000 0.52774  0.69487  0.21352  Biso   1.000  C
  H870     1.0000 0.57615  0.73568  0.23006  Biso   1.000  H
  H871     1.0000 0.47075  0.63919  0.20026  Biso   1.000  H
  C1352    1.0000 0.55521  0.74096  0.20362  Biso   1.000  C
  N289     1.0000 0.52912  0.73714  0.19173  Biso   1.000  N
  N290     1.0000 0.60613  0.78306  0.20712  Biso   1.000  N
  C1353    1.0000 0.55927  0.77844  0.18308  Biso   1.000  C
  C1354    1.0000 0.63021  0.81913  0.19712  Biso   1.000  C
  O193     1.0000 0.53331  0.77533  0.17115  Biso   1.000  O
  N291     1.0000 0.61032  0.82029  0.18486  Biso   1.000  N
  O194     1.0000 0.68278  0.85969  0.20017  Biso   1.000  O
  C1355    1.0000 0.56296  0.81792  0.16160  Biso   1.000  C
  C1356    1.0000 0.71416  0.89460  0.18918  Biso   1.000  C
  C1357    1.0000 0.56191  0.86692  0.16249  Biso   1.000  C
  C1358    1.0000 0.59185  0.80861  0.15134  Biso   1.000  C
  C1359    1.0000 0.72034  0.94654  0.18842  Biso   1.000  C
  C1360    1.0000 0.73827  0.87523  0.18003  Biso   1.000  C
  C1361    1.0000 0.59197  0.90719  0.15294  Biso   1.000  C
  H872     1.0000 0.54115  0.87249  0.16946  Biso   1.000  H
  H873     1.0000 0.59135  0.77429  0.15067  Biso   1.000  H
  C1362    1.0000 0.62122  0.85059  0.14212  Biso   1.000  C
  C1363    1.0000 0.75115  0.97987  0.17765  Biso   1.000  C
  H874     1.0000 0.70405  0.95918  0.19507  Biso   1.000  H
  H875     1.0000 0.73365  0.83908  0.18087  Biso   1.000  H
  C1364    1.0000 0.76933  0.91072  0.16966  Biso   1.000  C
  O195     1.0000 0.59187  0.95801  0.15343  Biso   1.000  O
  C1365    1.0000 0.62193  0.90037  0.14254  Biso   1.000  C
  O196     1.0000 0.64917  0.84128  0.13116  Biso   1.000  O
  C1366    1.0000 0.77612  0.96337  0.16802  Biso   1.000  C
  O197     1.0000 0.75821  0.03373  0.17632  Biso   1.000  O
  O198     1.0000 0.79617  0.89306  0.16034  Biso   1.000  O
  C1367    1.0000 0.63845  0.00194  0.15864  Biso   1.000  C
  H876     1.0000 0.64202  0.92876  0.13597  Biso   1.000  H
  C1368    1.0000 0.70032  0.84942  0.13412  Biso   1.000  C
  H877     1.0000 0.79705  0.98689  0.16066  Biso   1.000  H
  C1369    1.0000 0.71784  0.03763  0.16945  Biso   1.000  C
  C1370    1.0000 0.77023  0.87315  0.14822  Biso   1.000  C
  N292     1.0000 0.67494  0.99192  0.16478  Biso   1.000  N
  N293     1.0000 0.64103  0.05043  0.15672  Biso   1.000  N
  N294     1.0000 0.72430  0.83800  0.12372  Biso   1.000  N
  N295     1.0000 0.72040  0.86721  0.14658  Biso   1.000  N
  N296     1.0000 0.72807  0.08941  0.16849  Biso   1.000  N
  N297     1.0000 0.79901  0.86118  0.13943  Biso   1.000  N
  C1371    1.0000 0.68826  0.09386  0.16177  Biso   1.000  C
  C1372    1.0000 0.77387  0.84356  0.12728  Biso   1.000  C
  C1373    1.0000 0.69848  0.15021  0.15914  Biso   1.000  C
  C1374    1.0000 0.80198  0.82723  0.11679  Biso   1.000  C
  C1375    1.0000 0.67189  0.16102  0.14847  Biso   1.000  C
  C1376    1.0000 0.73682  0.19443  0.16713  Biso   1.000  C
  C1377    1.0000 0.84609  0.82017  0.12059  Biso   1.000  C
  C1378    1.0000 0.78337  0.81701  0.10337  Biso   1.000  C
  H878     1.0000 0.64524  0.13147  0.14297  Biso   1.000  H
  C1379    1.0000 0.68423  0.21471  0.14588  Biso   1.000  C
  C1380    1.0000 0.74840  0.24783  0.16436  Biso   1.000  C
  H879     1.0000 0.75514  0.18774  0.17457  Biso   1.000  H
  H880     1.0000 0.85955  0.82756  0.12976  Biso   1.000  H
  C1381    1.0000 0.87063  0.80251  0.11101  Biso   1.000  C
  C1382    1.0000 0.80937  0.80055  0.09381  Biso   1.000  C
  H881     1.0000 0.75283  0.82129  0.10066  Biso   1.000  H
  H882     1.0000 0.66593  0.22173  0.13856  Biso   1.000  H
  C1383    1.0000 0.72309  0.25897  0.15380  Biso   1.000  C
  H883     1.0000 0.77452  0.27746  0.16997  Biso   1.000  H
  H884     1.0000 0.90004  0.79656  0.11377  Biso   1.000  H
  C1384    1.0000 0.85298  0.79328  0.09743  Biso   1.000  C
  H885     1.0000 0.79663  0.79415  0.08456  Biso   1.000  H
  C1385    1.0000 0.73802  0.31848  0.15073  Biso   1.000  C
  C1386    1.0000 0.88136  0.77545  0.08700  Biso   1.000  C
  H886     1.0000 0.76624  0.34354  0.15727  Biso   1.000  H
  H887     1.0000 0.75273  0.32824  0.14136  Biso   1.000  H
  H888     1.0000 0.70475  0.32197  0.15156  Biso   1.000  H
  H889     1.0000 0.86363  0.77067  0.07796  Biso   1.000  H
  H890     1.0000 0.92073  0.80396  0.08636  Biso   1.000  H
  H891     1.0000 0.87822  0.74025  0.08986  Biso   1.000  H
  C1387    1.0000 0.21469  0.44212  0.75367  Biso   1.000  C
  C1388    1.0000 0.18628  0.45995  0.76409  Biso   1.000  C
  H892     1.0000 0.19697  0.43735  0.74463  Biso   1.000  H
  H893     1.0000 0.25407  0.47063  0.75303  Biso   1.000  H
  H894     1.0000 0.21156  0.40693  0.75653  Biso   1.000  H
  C1389    1.0000 0.20394  0.46914  0.77768  Biso   1.000  C
  C1390    1.0000 0.14270  0.46722  0.76048  Biso   1.000  C
  C1391    1.0000 0.17943  0.48684  0.78725  Biso   1.000  C
  H895     1.0000 0.23338  0.46323  0.78044  Biso   1.000  H
  H896     1.0000 0.12997  0.46082  0.75123  Biso   1.000  H
  C1392    1.0000 0.11671  0.48368  0.77003  Biso   1.000  C
  C1393    1.0000 0.13531  0.49390  0.78346  Biso   1.000  C
  H897     1.0000 0.19288  0.49424  0.79643  Biso   1.000  H
  H898     1.0000 0.08615  0.48792  0.76733  Biso   1.000  H
  C1394    1.0000 0.10720  0.51024  0.79394  Biso   1.000  C
  N298     1.0000 0.05763  0.50467  0.79038  Biso   1.000  N
  N299     1.0000 0.13235  0.52786  0.80610  Biso   1.000  N
  C1395    1.0000 0.03365  0.51610  0.80079  Biso   1.000  C
  C1396    1.0000 0.10355  0.53978  0.81488  Biso   1.000  C
  N300     1.0000 0.05374  0.53388  0.81325  Biso   1.000  N
  O199     1.0000 0.98251  0.50795  0.79783  Biso   1.000  O
  O200     1.0000 0.12948  0.55969  0.82701  Biso   1.000  O
  C1397    1.0000 0.95457  0.51722  0.80879  Biso   1.000  C
  C1398    1.0000 0.10267  0.57739  0.83632  Biso   1.000  C
  C1399    1.0000 0.92518  0.47529  0.81801  Biso   1.000  C
  C1400    1.0000 0.95524  0.56700  0.80921  Biso   1.000  C
  C1401    1.0000 0.07161  0.54190  0.84670  Biso   1.000  C
  C1402    1.0000 0.10945  0.63004  0.83469  Biso   1.000  C
  C1403    1.0000 0.89633  0.48460  0.82826  Biso   1.000  C
  H899     1.0000 0.92466  0.44092  0.81733  Biso   1.000  H
  C1404    1.0000 0.92531  0.57386  0.81961  Biso   1.000  C
  H900     1.0000 0.97536  0.59543  0.80263  Biso   1.000  H
  C1405    1.0000 0.04749  0.56127  0.85585  Biso   1.000  C
  H901     1.0000 0.06699  0.50575  0.84753  Biso   1.000  H
  C1406    1.0000 0.08448  0.64654  0.84432  Biso   1.000  C
  H902     1.0000 0.13037  0.65352  0.82733  Biso   1.000  H
  O201     1.0000 0.86668  0.44200  0.83782  Biso   1.000  O
  C1407    1.0000 0.89522  0.53355  0.82916  Biso   1.000  C
  O202     1.0000 0.92520  0.62468  0.82010  Biso   1.000  O
  O203     1.0000 0.01611  0.52636  0.86684  Biso   1.000  O
  C1408    1.0000 0.05367  0.61321  0.85509  Biso   1.000  C
  O204     1.0000 0.09154  0.70040  0.84298  Biso   1.000  O
  C1409    1.0000 0.89261  0.44512  0.84975  Biso   1.000  C
  H903     1.0000 0.87447  0.53912  0.83613  Biso   1.000  H
  C1410    1.0000 0.97178  0.66861  0.82531  Biso   1.000  C
  C1411    1.0000 0.96355  0.48580  0.86379  Biso   1.000  C
  H904     1.0000 0.03739  0.62585  0.86174  Biso   1.000  H
  C1412    1.0000 0.05120  0.70435  0.83612  Biso   1.000  C
  N301     1.0000 0.86245  0.40381  0.85840  Biso   1.000  N
  N302     1.0000 0.94365  0.48696  0.85153  Biso   1.000  N
  N303     1.0000 0.00825  0.65855  0.83144  Biso   1.000  N
  N304     1.0000 0.97437  0.71711  0.82338  Biso   1.000  N
  N305     1.0000 0.93947  0.44973  0.87378  Biso   1.000  N
  N306     1.0000 0.06141  0.75609  0.83516  Biso   1.000  N
  C1413    1.0000 0.88853  0.40759  0.87028  Biso   1.000  C
  C1414    1.0000 0.02160  0.76053  0.82844  Biso   1.000  C
  C1415    1.0000 0.86108  0.36155  0.88019  Biso   1.000  C
  C1416    1.0000 0.03183  0.81693  0.82580  Biso   1.000  C
  C1417    1.0000 0.88031  0.36732  0.89364  Biso   1.000  C
  C1418    1.0000 0.81857  0.31014  0.87594  Biso   1.000  C
  C1419    1.0000 0.00521  0.82773  0.81514  Biso   1.000  C
  C1420    1.0000 0.07015  0.86110  0.83380  Biso   1.000  C
  H905     1.0000 0.90948  0.40235  0.89673  Biso   1.000  H
  C1421    1.0000 0.85764  0.32286  0.90258  Biso   1.000  C
  C1422    1.0000 0.79697  0.26493  0.88477  Biso   1.000  C
  H906     1.0000 0.80406  0.30582  0.86693  Biso   1.000  H
  C1423    1.0000 0.01758  0.88142  0.81255  Biso   1.000  C
  H907     1.0000 0.97857  0.79814  0.80963  Biso   1.000  H
  C1424    1.0000 0.08170  0.91450  0.83102  Biso   1.000  C
  H908     1.0000 0.08846  0.85445  0.84123  Biso   1.000  H
  H909     1.0000 0.87039  0.32805  0.91183  Biso   1.000  H
  C1425    1.0000 0.81660  0.27078  0.89832  Biso   1.000  C
  H910     1.0000 0.76857  0.22964  0.88163  Biso   1.000  H
  C1426    1.0000 0.05645  0.92568  0.82047  Biso   1.000  C
  H911     1.0000 0.99929  0.88845  0.80523  Biso   1.000  H
  H912     1.0000 0.10785  0.94413  0.83663  Biso   1.000  H
  C1427    1.0000 0.79312  0.22146  0.90781  Biso   1.000  C
  C1428    1.0000 0.07135  0.98515  0.81739  Biso   1.000  C
  H913     1.0000 0.76457  0.18875  0.90293  Biso   1.000  H
  H914     1.0000 0.82286  0.21464  0.91084  Biso   1.000  H
  H915     1.0000 0.77659  0.22885  0.91583  Biso   1.000  H
  H916     1.0000 0.08608  0.99496  0.80803  Biso   1.000  H
  H917     1.0000 0.03808  0.98864  0.81823  Biso   1.000  H
  H918     1.0000 0.09954  0.01021  0.82394  Biso   1.000  H
  C1429    1.0000 0.53280  0.67547  0.76048  Biso   1.000  C
  C1430    1.0000 0.54007  0.72637  0.76409  Biso   1.000  C
  H919     1.0000 0.53917  0.66915  0.75123  Biso   1.000  H
  C1431    1.0000 0.51633  0.63304  0.77003  Biso   1.000  C
  C1432    1.0000 0.55789  0.77258  0.75367  Biso   1.000  C
  C1433    1.0000 0.53087  0.73481  0.77768  Biso   1.000  C
  C1434    1.0000 0.50613  0.64143  0.78346  Biso   1.000  C
  H920     1.0000 0.51208  0.59825  0.76733  Biso   1.000  H
  H921     1.0000 0.56267  0.75962  0.74463  Biso   1.000  H
  H922     1.0000 0.52937  0.78343  0.75303  Biso   1.000  H
  H923     1.0000 0.59306  0.80463  0.75653  Biso   1.000  H
  C1435    1.0000 0.51314  0.69259  0.78725  Biso   1.000  C
  H924     1.0000 0.53676  0.77013  0.78044  Biso   1.000  H
  C1436    1.0000 0.48977  0.59697  0.79394  Biso   1.000  C
  H925     1.0000 0.50577  0.69865  0.79643  Biso   1.000  H
  N307     1.0000 0.49535  0.55300  0.79038  Biso   1.000  N
  N308     1.0000 0.47215  0.60449  0.80610  Biso   1.000  N
  C1437    1.0000 0.48395  0.51759  0.80079  Biso   1.000  C
  C1438    1.0000 0.46021  0.56376  0.81488  Biso   1.000  C
  O205     1.0000 0.49207  0.47454  0.79783  Biso   1.000  O
  N309     1.0000 0.46612  0.51988  0.81325  Biso   1.000  N
  O206     1.0000 0.44030  0.56979  0.82701  Biso   1.000  O
  C1439    1.0000 0.48276  0.43735  0.80879  Biso   1.000  C
  C1440    1.0000 0.42261  0.52528  0.83632  Biso   1.000  C
  C1441    1.0000 0.52470  0.44990  0.81801  Biso   1.000  C
  C1442    1.0000 0.43297  0.38822  0.80921  Biso   1.000  C
  C1443    1.0000 0.45813  0.52973  0.84670  Biso   1.000  C
  C1444    1.0000 0.36997  0.47944  0.83469  Biso   1.000  C
  C1445    1.0000 0.51540  0.41170  0.82826  Biso   1.000  C
  H926     1.0000 0.55907  0.48372  0.81733  Biso   1.000  H
  C1446    1.0000 0.42614  0.35145  0.81961  Biso   1.000  C
  H927     1.0000 0.40458  0.37995  0.80263  Biso   1.000  H
  C1447    1.0000 0.43875  0.48622  0.85585  Biso   1.000  C
  H928     1.0000 0.49428  0.56123  0.84753  Biso   1.000  H
  C1448    1.0000 0.35346  0.43793  0.84432  Biso   1.000  C
  H929     1.0000 0.34645  0.47682  0.82733  Biso   1.000  H
  O207     1.0000 0.55801  0.42467  0.83782  Biso   1.000  O
  C1449    1.0000 0.46645  0.36167  0.82916  Biso   1.000  C
  O208     1.0000 0.37535  0.30054  0.82010  Biso   1.000  O
  O209     1.0000 0.47362  0.48975  0.86684  Biso   1.000  O
  C1450    1.0000 0.38679  0.44046  0.85509  Biso   1.000  C
  O210     1.0000 0.29958  0.39113  0.84298  Biso   1.000  O
  C1451    1.0000 0.55488  0.44748  0.84975  Biso   1.000  C
  H930     1.0000 0.46087  0.33532  0.83613  Biso   1.000  H
  C1452    1.0000 0.33138  0.30316  0.82531  Biso   1.000  C
  C1453    1.0000 0.51422  0.47774  0.86379  Biso   1.000  C
  H931     1.0000 0.37416  0.41154  0.86174  Biso   1.000  H
  C1454    1.0000 0.29566  0.34688  0.83612  Biso   1.000  C
  N310     1.0000 0.59621  0.45866  0.85840  Biso   1.000  N
  N311     1.0000 0.51305  0.45667  0.85153  Biso   1.000  N
  N312     1.0000 0.28290  0.25724  0.82338  Biso   1.000  N
  N313     1.0000 0.34145  0.34970  0.83144  Biso   1.000  N
  N314     1.0000 0.55026  0.48971  0.87378  Biso   1.000  N
  N315     1.0000 0.24393  0.30532  0.83516  Biso   1.000  N
  C1455    1.0000 0.59239  0.48090  0.87028  Biso   1.000  C
  C1456    1.0000 0.23947  0.26106  0.82844  Biso   1.000  C
  C1457    1.0000 0.63850  0.49956  0.88019  Biso   1.000  C
  C1458    1.0000 0.18308  0.21493  0.82580  Biso   1.000  C
  C1459    1.0000 0.63269  0.51298  0.89364  Biso   1.000  C
  C1460    1.0000 0.68988  0.50845  0.87594  Biso   1.000  C
  C1461    1.0000 0.17228  0.17749  0.81514  Biso   1.000  C
  C1462    1.0000 0.13891  0.20907  0.83380  Biso   1.000  C
  H932     1.0000 0.59765  0.50712  0.89673  Biso   1.000  H
  C1463    1.0000 0.67717  0.53480  0.90258  Biso   1.000  C
  C1464    1.0000 0.73511  0.53205  0.88477  Biso   1.000  C
  H933     1.0000 0.69416  0.49823  0.86693  Biso   1.000  H
  H934     1.0000 0.20186  0.18044  0.80963  Biso   1.000  H
  C1465    1.0000 0.11858  0.13618  0.81255  Biso   1.000  C
  C1466    1.0000 0.08552  0.16723  0.83102  Biso   1.000  C
  H935     1.0000 0.14556  0.23405  0.84123  Biso   1.000  H
  H936     1.0000 0.67197  0.54232  0.91183  Biso   1.000  H
  C1467    1.0000 0.72921  0.54581  0.89832  Biso   1.000  C
  H937     1.0000 0.77038  0.53895  0.88163  Biso   1.000  H
  H938     1.0000 0.11156  0.11083  0.80523  Biso   1.000  H
  C1468    1.0000 0.07435  0.13078  0.82047  Biso   1.000  C
  H939     1.0000 0.05588  0.16373  0.83663  Biso   1.000  H
  C1469    1.0000 0.77856  0.57166  0.90781  Biso   1.000  C
  C1470    1.0000 0.01486  0.08623  0.81739  Biso   1.000  C
  H940     1.0000 0.81128  0.57585  0.90293  Biso   1.000  H
  H941     1.0000 0.78536  0.60823  0.91084  Biso   1.000  H
  H942     1.0000 0.77116  0.54772  0.91583  Biso   1.000  H
  H943     1.0000 0.00508  0.09113  0.80803  Biso   1.000  H
  H944     1.0000 0.01137  0.04945  0.81823  Biso   1.000  H
  H945     1.0000 0.98979  0.08935  0.82394  Biso   1.000  H
  C1471    1.0000 0.78532  0.55790  0.24633  Biso   1.000  C
  C1472    1.0000 0.81373  0.54007  0.23591  Biso   1.000  C
  H946     1.0000 0.80304  0.56268  0.25537  Biso   1.000  H
  H947     1.0000 0.74593  0.52935  0.24697  Biso   1.000  H
  H948     1.0000 0.78843  0.59306  0.24347  Biso   1.000  H
  C1473    1.0000 0.79605  0.53085  0.22232  Biso   1.000  C
  C1474    1.0000 0.85735  0.53280  0.23952  Biso   1.000  C
  C1475    1.0000 0.82056  0.51314  0.21275  Biso   1.000  C
  H949     1.0000 0.76663  0.53679  0.21956  Biso   1.000  H
  H950     1.0000 0.87003  0.53916  0.24877  Biso   1.000  H
  C1476    1.0000 0.88329  0.51630  0.22997  Biso   1.000  C
  C1477    1.0000 0.86470  0.50612  0.21654  Biso   1.000  C
  H951     1.0000 0.80717  0.50579  0.20357  Biso   1.000  H
  H952     1.0000 0.91385  0.51206  0.23267  Biso   1.000  H
  C1478    1.0000 0.89279  0.48975  0.20606  Biso   1.000  C
  N316     1.0000 0.94238  0.49536  0.20962  Biso   1.000  N
  N317     1.0000 0.86764  0.47213  0.19390  Biso   1.000  N
  C1479    1.0000 0.96636  0.48393  0.19921  Biso   1.000  C
  C1480    1.0000 0.89644  0.46020  0.18512  Biso   1.000  C
  N318     1.0000 0.94627  0.46614  0.18675  Biso   1.000  N
  O211     1.0000 0.01751  0.49208  0.20217  Biso   1.000  O
  O212     1.0000 0.87051  0.44030  0.17299  Biso   1.000  O
  C1481    1.0000 0.04546  0.48277  0.19121  Biso   1.000  C
  C1482    1.0000 0.89735  0.42263  0.16368  Biso   1.000  C
  C1483    1.0000 0.07483  0.52474  0.18199  Biso   1.000  C
  C1484    1.0000 0.04475  0.43298  0.19079  Biso   1.000  C
  C1485    1.0000 0.92839  0.45808  0.15330  Biso   1.000  C
  C1486    1.0000 0.89056  0.36998  0.16531  Biso   1.000  C
  C1487    1.0000 0.10370  0.51539  0.17174  Biso   1.000  C
  H953     1.0000 0.07533  0.55907  0.18267  Biso   1.000  H
  C1488    1.0000 0.07470  0.42617  0.18039  Biso   1.000  C
  H954     1.0000 0.02463  0.40456  0.19737  Biso   1.000  H
  C1489    1.0000 0.95250  0.43872  0.14415  Biso   1.000  C
  H955     1.0000 0.93306  0.49428  0.15247  Biso   1.000  H
  C1490    1.0000 0.91551  0.35344  0.15568  Biso   1.000  C
  H956     1.0000 0.86962  0.34646  0.17267  Biso   1.000  H
  O213     1.0000 0.13336  0.55803  0.16218  Biso   1.000  O
  C1491    1.0000 0.10477  0.46643  0.17084  Biso   1.000  C
  O214     1.0000 0.07481  0.37534  0.17990  Biso   1.000  O
  O215     1.0000 0.98388  0.47362  0.13316  Biso   1.000  O
  C1492    1.0000 0.94634  0.38681  0.14491  Biso   1.000  C
  O216     1.0000 0.90845  0.29958  0.15702  Biso   1.000  O
  C1493    1.0000 0.10738  0.55487  0.15025  Biso   1.000  C
  H957     1.0000 0.12552  0.46087  0.16387  Biso   1.000  H
  C1494    1.0000 0.02821  0.33137  0.17469  Biso   1.000  C
  C1495    1.0000 0.03646  0.51423  0.13621  Biso   1.000  C
  H958     1.0000 0.96266  0.37418  0.13826  Biso   1.000  H
  C1496    1.0000 0.94882  0.29568  0.16388  Biso   1.000  C
  N319     1.0000 0.13756  0.59622  0.14160  Biso   1.000  N
  N320     1.0000 0.05634  0.51302  0.14847  Biso   1.000  N
  N321     1.0000 0.99174  0.34143  0.16856  Biso   1.000  N
  N322     1.0000 0.02563  0.28288  0.17662  Biso   1.000  N
  N323     1.0000 0.06052  0.55026  0.12622  Biso   1.000  N
  N324     1.0000 0.93860  0.24394  0.16484  Biso   1.000  N
  C1497    1.0000 0.11146  0.59239  0.12972  Biso   1.000  C
  C1498    1.0000 0.97842  0.23949  0.17156  Biso   1.000  C
  C1499    1.0000 0.13893  0.63848  0.11981  Biso   1.000  C
  C1500    1.0000 0.96818  0.18310  0.17420  Biso   1.000  C
  C1501    1.0000 0.11969  0.63266  0.10636  Biso   1.000  C
  C1502    1.0000 0.18144  0.68989  0.12406  Biso   1.000  C
  C1503    1.0000 0.99481  0.17229  0.18486  Biso   1.000  C
  C1504    1.0000 0.92986  0.13892  0.16620  Biso   1.000  C
  H959     1.0000 0.09053  0.59767  0.10327  Biso   1.000  H
  C1505    1.0000 0.14237  0.67717  0.09742  Biso   1.000  C
  C1506    1.0000 0.20304  0.73510  0.11523  Biso   1.000  C
  H960     1.0000 0.19593  0.69417  0.13307  Biso   1.000  H
  C1507    1.0000 0.98243  0.11860  0.18745  Biso   1.000  C
  H961     1.0000 0.02144  0.20188  0.19037  Biso   1.000  H
  C1508    1.0000 0.91831  0.08552  0.16898  Biso   1.000  C
  H962     1.0000 0.91155  0.14557  0.15877  Biso   1.000  H
  H963     1.0000 0.12962  0.67198  0.08817  Biso   1.000  H
  C1509    1.0000 0.18339  0.72920  0.10168  Biso   1.000  C
  H964     1.0000 0.23144  0.77038  0.11837  Biso   1.000  H
  C1510    1.0000 0.94356  0.07435  0.17953  Biso   1.000  C
  H965     1.0000 0.00073  0.11158  0.19477  Biso   1.000  H
  H966     1.0000 0.89214  0.05585  0.16337  Biso   1.000  H
  C1511    1.0000 0.20687  0.77853  0.09219  Biso   1.000  C
  C1512    1.0000 0.92864  0.01484  0.18261  Biso   1.000  C
  H967     1.0000 0.23544  0.81127  0.09707  Biso   1.000  H
  H968     1.0000 0.17715  0.78538  0.08916  Biso   1.000  H
  H969     1.0000 0.22342  0.77117  0.08417  Biso   1.000  H
  H970     1.0000 0.91393  0.00507  0.19197  Biso   1.000  H
  H971     1.0000 0.96197  0.01139  0.18177  Biso   1.000  H
  H972     1.0000 0.90045  0.98978  0.17606  Biso   1.000  H
  O217     1.0000 0.35698  0.58101  0.76450  Biso   1.000  O
  C1513    1.0000 0.34494  0.62489  0.76502  Biso   1.000  C
  C1514    1.0000 0.35185  0.55470  0.77653  Biso   1.000  C
  C1515    1.0000 0.29012  0.61205  0.76492  Biso   1.000  C
  C1516    1.0000 0.38795  0.67808  0.76492  Biso   1.000  C
  N325     1.0000 0.35271  0.50812  0.77549  Biso   1.000  N
  N326     1.0000 0.34575  0.57777  0.78781  Biso   1.000  N
  H973     1.0000 0.26067  0.57452  0.76483  Biso   1.000  H
  C1517    1.0000 0.27995  0.65506  0.76502  Biso   1.000  C
  H974     1.0000 0.42549  0.68615  0.76483  Biso   1.000  H
  C1518    1.0000 0.37511  0.72006  0.76502  Biso   1.000  C
  C1519    1.0000 0.34277  0.48011  0.78740  Biso   1.000  C
  C1520    1.0000 0.33868  0.54772  0.79897  Biso   1.000  C
  O218     1.0000 0.22403  0.64305  0.76450  Biso   1.000  O
  C1521    1.0000 0.32190  0.70988  0.76492  Biso   1.000  C
  O219     1.0000 0.41900  0.77595  0.76450  Biso   1.000  O
  N327     1.0000 0.33578  0.49860  0.79975  Biso   1.000  N
  C1522    1.0000 0.33488  0.42409  0.78685  Biso   1.000  C
  O220     1.0000 0.33266  0.56700  0.81121  Biso   1.000  O
  C1523    1.0000 0.20287  0.64816  0.77653  Biso   1.000  C
  H975     1.0000 0.31389  0.73934  0.76483  Biso   1.000  H
  C1524    1.0000 0.44529  0.79714  0.77653  Biso   1.000  C
  C1525    1.0000 0.36079  0.40983  0.77679  Biso   1.000  C
  C1526    1.0000 0.29743  0.38332  0.79582  Biso   1.000  C
  C1527    1.0000 0.33302  0.61745  0.81113  Biso   1.000  C
  N328     1.0000 0.15543  0.64729  0.77549  Biso   1.000  N
  N329     1.0000 0.23202  0.65427  0.78781  Biso   1.000  N
  N330     1.0000 0.49187  0.84460  0.77549  Biso   1.000  N
  N331     1.0000 0.42224  0.76797  0.78781  Biso   1.000  N
  H976     1.0000 0.38627  0.43705  0.77064  Biso   1.000  H
  C1528    1.0000 0.34876  0.35440  0.77590  Biso   1.000  C
  C1529    1.0000 0.28538  0.32905  0.79447  Biso   1.000  C
  H977     1.0000 0.28027  0.39305  0.80294  Biso   1.000  H
  C1530    1.0000 0.28306  0.61629  0.81129  Biso   1.000  C
  C1531    1.0000 0.38370  0.66678  0.81129  Biso   1.000  C
  C1532    1.0000 0.13733  0.65722  0.78740  Biso   1.000  C
  C1533    1.0000 0.20904  0.66130  0.79897  Biso   1.000  C
  C1534    1.0000 0.51987  0.86268  0.78740  Biso   1.000  C
  C1535    1.0000 0.45227  0.79095  0.79897  Biso   1.000  C
  H978     1.0000 0.36730  0.34476  0.76913  Biso   1.000  H
  C1536    1.0000 0.31079  0.31359  0.78450  Biso   1.000  C
  H979     1.0000 0.25895  0.30154  0.80053  Biso   1.000  H
  C1537    1.0000 0.28440  0.66699  0.81113  Biso   1.000  C
  H980     1.0000 0.24885  0.58213  0.81143  Biso   1.000  H
  C1538    1.0000 0.38254  0.71557  0.81113  Biso   1.000  C
  H981     1.0000 0.41787  0.66674  0.81143  Biso   1.000  H
  N332     1.0000 0.16283  0.66425  0.79975  Biso   1.000  N
  C1539    1.0000 0.08924  0.66512  0.78685  Biso   1.000  C
  O221     1.0000 0.23435  0.66736  0.81121  Biso   1.000  O
  N333     1.0000 0.50141  0.83721  0.79975  Biso   1.000  N
  C1540    1.0000 0.57591  0.91076  0.78685  Biso   1.000  C
  O222     1.0000 0.43301  0.76569  0.81121  Biso   1.000  O
  C1541    1.0000 0.29583  0.25329  0.78318  Biso   1.000  C
  C1542    1.0000 0.33324  0.71694  0.81129  Biso   1.000  C
  C1543    1.0000 0.04905  0.63923  0.77679  Biso   1.000  C
  C1544    1.0000 0.08586  0.70256  0.79582  Biso   1.000  C
  C1545    1.0000 0.59017  0.95095  0.77679  Biso   1.000  C
  C1546    1.0000 0.61671  0.91413  0.79582  Biso   1.000  C
  H982     1.0000 0.31754  0.24972  0.77573  Biso   1.000  H
  H983     1.0000 0.30416  0.24095  0.79183  Biso   1.000  H
  H984     1.0000 0.25607  0.23035  0.78114  Biso   1.000  H
  H985     1.0000 0.33328  0.75114  0.81143  Biso   1.000  H
  H986     1.0000 0.05078  0.61375  0.77064  Biso   1.000  H
  C1547    1.0000 0.00564  0.65124  0.77590  Biso   1.000  C
  C1548    1.0000 0.04368  0.71465  0.79447  Biso   1.000  C
  H987     1.0000 0.11276  0.71972  0.80294  Biso   1.000  H
  H988     1.0000 0.56298  0.94924  0.77064  Biso   1.000  H
  C1549    1.0000 0.64559  0.99433  0.77590  Biso   1.000  C
  C1550    1.0000 0.67097  0.95635  0.79447  Biso   1.000  C
  H989     1.0000 0.60698  0.88724  0.80294  Biso   1.000  H
  C1551    1.0000 0.00282  0.68922  0.78450  Biso   1.000  C
  H990     1.0000 0.97746  0.63275  0.76913  Biso   1.000  H
  H991     1.0000 0.04259  0.74104  0.80053  Biso   1.000  H
  C1552    1.0000 0.68639  0.99720  0.78450  Biso   1.000  C
  H992     1.0000 0.65525  0.02251  0.76913  Biso   1.000  H
  H993     1.0000 0.69847  0.95743  0.80053  Biso   1.000  H
  C1553    1.0000 0.95747  0.70418  0.78318  Biso   1.000  C
  C1554    1.0000 0.74671  0.04254  0.78318  Biso   1.000  C
  H994     1.0000 0.93217  0.68245  0.77573  Biso   1.000  H
  H995     1.0000 0.93677  0.69583  0.79183  Biso   1.000  H
  H996     1.0000 0.97429  0.74395  0.78114  Biso   1.000  H
  H997     1.0000 0.75027  0.06781  0.77573  Biso   1.000  H
  H998     1.0000 0.75907  0.06323  0.79183  Biso   1.000  H
  H999     1.0000 0.76967  0.02571  0.78114  Biso   1.000  H
  O223     1.0000 0.64307  0.41902  0.23550  Biso   1.000  O
  C1555    1.0000 0.65505  0.37509  0.23498  Biso   1.000  C
  C1556    1.0000 0.64818  0.44528  0.22347  Biso   1.000  C
  C1557    1.0000 0.61204  0.32190  0.23508  Biso   1.000  C
  C1558    1.0000 0.70989  0.38798  0.23508  Biso   1.000  C
  N334     1.0000 0.64729  0.49187  0.22451  Biso   1.000  N
  N335     1.0000 0.65430  0.42226  0.21219  Biso   1.000  N
  C1559    1.0000 0.62490  0.27997  0.23498  Biso   1.000  C
  H1000    1.0000 0.57456  0.31388  0.23517  Biso   1.000  H
  C1560    1.0000 0.72006  0.34496  0.23498  Biso   1.000  C
  H1001    1.0000 0.73933  0.42546  0.23517  Biso   1.000  H
  C1561    1.0000 0.65722  0.51988  0.21260  Biso   1.000  C
  C1562    1.0000 0.66132  0.45226  0.20103  Biso   1.000  C
  O224     1.0000 0.58099  0.22403  0.23550  Biso   1.000  O
  C1563    1.0000 0.67809  0.29011  0.23508  Biso   1.000  C
  O225     1.0000 0.77596  0.35693  0.23550  Biso   1.000  O
  N336     1.0000 0.66423  0.50143  0.20025  Biso   1.000  N
  C1564    1.0000 0.66512  0.57590  0.21315  Biso   1.000  C
  O226     1.0000 0.66735  0.43302  0.18879  Biso   1.000  O
  C1565    1.0000 0.55473  0.20288  0.22347  Biso   1.000  C
  H1002    1.0000 0.68616  0.26069  0.23517  Biso   1.000  H
  C1566    1.0000 0.79712  0.35182  0.22347  Biso   1.000  C
  C1567    1.0000 0.63923  0.59019  0.22321  Biso   1.000  C
  C1568    1.0000 0.70258  0.61670  0.20418  Biso   1.000  C
  C1569    1.0000 0.66699  0.38257  0.18887  Biso   1.000  C
  N337     1.0000 0.50814  0.15542  0.22451  Biso   1.000  N
  N338     1.0000 0.57775  0.23201  0.21219  Biso   1.000  N
  N339     1.0000 0.84458  0.35274  0.22451  Biso   1.000  N
  N340     1.0000 0.76798  0.34571  0.21219  Biso   1.000  N
  H1003    1.0000 0.61374  0.56297  0.22936  Biso   1.000  H
  C1570    1.0000 0.65123  0.64559  0.22410  Biso   1.000  C
  C1571    1.0000 0.71464  0.67098  0.20553  Biso   1.000  C
  H1004    1.0000 0.71974  0.60698  0.19706  Biso   1.000  H
  C1572    1.0000 0.61631  0.33324  0.18871  Biso   1.000  C
  C1573    1.0000 0.71693  0.38370  0.18871  Biso   1.000  C
  C1574    1.0000 0.48014  0.13735  0.21260  Biso   1.000  C
  C1575    1.0000 0.54772  0.20903  0.20103  Biso   1.000  C
  C1576    1.0000 0.86268  0.34280  0.21260  Biso   1.000  C
  C1577    1.0000 0.79095  0.33869  0.20103  Biso   1.000  C
  H1005    1.0000 0.63275  0.65527  0.23087  Biso   1.000  H
  C1578    1.0000 0.68920  0.68640  0.21550  Biso   1.000  C
  H1006    1.0000 0.74106  0.69849  0.19947  Biso   1.000  H
  C1579    1.0000 0.61745  0.28442  0.18887  Biso   1.000  C
  H1007    1.0000 0.58214  0.33329  0.18857  Biso   1.000  H
  C1580    1.0000 0.71561  0.33304  0.18887  Biso   1.000  C
  H1008    1.0000 0.75114  0.41785  0.18857  Biso   1.000  H
  C1581    1.0000 0.42408  0.08922  0.21315  Biso   1.000  C
  N341     1.0000 0.49860  0.16282  0.20025  Biso   1.000  N
  O227     1.0000 0.56700  0.23434  0.18879  Biso   1.000  O
  N342     1.0000 0.83718  0.33578  0.20025  Biso   1.000  N
  C1582    1.0000 0.91079  0.33487  0.21315  Biso   1.000  C
  O228     1.0000 0.76570  0.33266  0.18879  Biso   1.000  O
  C1583    1.0000 0.70418  0.74674  0.21682  Biso   1.000  C
  C1584    1.0000 0.66675  0.28304  0.18871  Biso   1.000  C
  C1585    1.0000 0.38332  0.08586  0.20418  Biso   1.000  C
  C1586    1.0000 0.40982  0.04904  0.22321  Biso   1.000  C
  C1587    1.0000 0.95097  0.36080  0.22321  Biso   1.000  C
  C1588    1.0000 0.91413  0.29742  0.20418  Biso   1.000  C
  H1009    1.0000 0.68245  0.75027  0.22427  Biso   1.000  H
  H1010    1.0000 0.69585  0.75908  0.20817  Biso   1.000  H
  H1011    1.0000 0.74394  0.76968  0.21886  Biso   1.000  H
  H1012    1.0000 0.66673  0.24888  0.18857  Biso   1.000  H
  C1589    1.0000 0.32904  0.04368  0.20553  Biso   1.000  C
  H1013    1.0000 0.39304  0.11279  0.19706  Biso   1.000  H
  C1590    1.0000 0.35441  0.00565  0.22410  Biso   1.000  C
  H1014    1.0000 0.43704  0.05078  0.22936  Biso   1.000  H
  H1015    1.0000 0.94924  0.38627  0.22936  Biso   1.000  H
  C1591    1.0000 0.99435  0.34875  0.22410  Biso   1.000  C
  C1592    1.0000 0.95633  0.28537  0.20553  Biso   1.000  C
  H1016    1.0000 0.88723  0.28026  0.19706  Biso   1.000  H
  C1593    1.0000 0.31362  0.00283  0.21550  Biso   1.000  C
  H1017    1.0000 0.30153  0.04255  0.19947  Biso   1.000  H
  H1018    1.0000 0.34474  0.97748  0.23087  Biso   1.000  H
  C1594    1.0000 0.99719  0.31080  0.21550  Biso   1.000  C
  H1019    1.0000 0.02255  0.36728  0.23087  Biso   1.000  H
  H1020    1.0000 0.95746  0.25898  0.19947  Biso   1.000  H
  C1595    1.0000 0.25331  0.95749  0.21682  Biso   1.000  C
  C1596    1.0000 0.04255  0.29584  0.21682  Biso   1.000  C
  H1021    1.0000 0.24972  0.93218  0.22427  Biso   1.000  H
  H1022    1.0000 0.24094  0.93679  0.20817  Biso   1.000  H
  H1023    1.0000 0.23035  0.97428  0.21886  Biso   1.000  H
  H1024    1.0000 0.06784  0.31758  0.22427  Biso   1.000  H
  H1025    1.0000 0.06322  0.30416  0.20817  Biso   1.000  H
  H1026    1.0000 0.02572  0.25607  0.21886  Biso   1.000  H
  O229     1.0000 0.31683  0.55981  0.23087  Biso   1.000  O
  C1597    1.0000 0.32329  0.53991  0.21888  Biso   1.000  C
  C1598    1.0000 0.32520  0.61434  0.23043  Biso   1.000  C
  N343     1.0000 0.32121  0.49141  0.21985  Biso   1.000  N
  N344     1.0000 0.33066  0.56954  0.20769  Biso   1.000  N
  C1599    1.0000 0.37870  0.65843  0.23053  Biso   1.000  C
  C1600    1.0000 0.27972  0.62128  0.23053  Biso   1.000  C
  C1601    1.0000 0.33164  0.47433  0.20791  Biso   1.000  C
  C1602    1.0000 0.33905  0.54739  0.19651  Biso   1.000  C
  H1027    1.0000 0.40974  0.65278  0.23067  Biso   1.000  H
  C1603    1.0000 0.38567  0.71087  0.23043  Biso   1.000  C
  H1028    1.0000 0.24302  0.59027  0.23067  Biso   1.000  H
  C1604    1.0000 0.28914  0.67480  0.23043  Biso   1.000  C
  C1605    1.0000 0.33544  0.42255  0.20845  Biso   1.000  C
  N345     1.0000 0.34145  0.50072  0.19583  Biso   1.000  N
  O230     1.0000 0.34697  0.57432  0.18456  Biso   1.000  O
  O231     1.0000 0.44021  0.75704  0.23087  Biso   1.000  O
  C1606    1.0000 0.34158  0.72031  0.23053  Biso   1.000  C
  O232     1.0000 0.24299  0.68320  0.23087  Biso   1.000  O
  C1607    1.0000 0.31549  0.38806  0.21985  Biso   1.000  C
  C1608    1.0000 0.36091  0.40958  0.19790  Biso   1.000  C
  C1609    1.0000 0.33980  0.62144  0.18472  Biso   1.000  C
  C1610    1.0000 0.46007  0.78339  0.21888  Biso   1.000  C
  H1029    1.0000 0.34724  0.75696  0.23067  Biso   1.000  H
  C1611    1.0000 0.21660  0.67671  0.21888  Biso   1.000  C
  C1612    1.0000 0.31980  0.34060  0.22049  Biso   1.000  C
  H1030    1.0000 0.29892  0.39695  0.22726  Biso   1.000  H
  C1613    1.0000 0.36681  0.36271  0.19924  Biso   1.000  C
  H1031    1.0000 0.37413  0.43228  0.18987  Biso   1.000  H
  C1614    1.0000 0.28684  0.61363  0.18471  Biso   1.000  C
  C1615    1.0000 0.38638  0.67322  0.18471  Biso   1.000  C
  N346     1.0000 0.50862  0.82981  0.21985  Biso   1.000  N
  N347     1.0000 0.43044  0.76111  0.20769  Biso   1.000  N
  N348     1.0000 0.17017  0.67879  0.21985  Biso   1.000  N
  N349     1.0000 0.23885  0.66932  0.20769  Biso   1.000  N
  H1032    1.0000 0.30463  0.31646  0.22817  Biso   1.000  H
  C1616    1.0000 0.34547  0.32751  0.21027  Biso   1.000  C
  H1033    1.0000 0.38613  0.35506  0.19227  Biso   1.000  H
  C1617    1.0000 0.28167  0.66021  0.18472  Biso   1.000  C
  H1034    1.0000 0.25513  0.57735  0.18467  Biso   1.000  H
  C1618    1.0000 0.37854  0.71835  0.18472  Biso   1.000  C
  H1035    1.0000 0.42262  0.67775  0.18467  Biso   1.000  H
  C1619    1.0000 0.52567  0.85728  0.20791  Biso   1.000  C
  C1620    1.0000 0.45262  0.79166  0.19651  Biso   1.000  C
  C1621    1.0000 0.14274  0.66840  0.20791  Biso   1.000  C
  C1622    1.0000 0.20833  0.66096  0.19651  Biso   1.000  C
  C1623    1.0000 0.34890  0.27428  0.21096  Biso   1.000  C
  O233     1.0000 0.22736  0.65303  0.18456  Biso   1.000  O
  C1624    1.0000 0.32678  0.71316  0.18471  Biso   1.000  C
  O234     1.0000 0.42567  0.77267  0.18456  Biso   1.000  O
  N350     1.0000 0.49926  0.84074  0.19583  Biso   1.000  N
  C1625    1.0000 0.57747  0.91288  0.20845  Biso   1.000  C
  N351     1.0000 0.15926  0.65855  0.19583  Biso   1.000  N
  C1626    1.0000 0.08713  0.66458  0.20845  Biso   1.000  C
  H1036    1.0000 0.33192  0.25458  0.21956  Biso   1.000  H
  H1037    1.0000 0.32903  0.25038  0.20306  Biso   1.000  H
  H1038    1.0000 0.38793  0.28375  0.21067  Biso   1.000  H
  H1039    1.0000 0.32223  0.74487  0.18467  Biso   1.000  H
  C1627    1.0000 0.61197  0.92747  0.21985  Biso   1.000  C
  C1628    1.0000 0.59043  0.95132  0.19790  Biso   1.000  C
  C1629    1.0000 0.07256  0.68453  0.21985  Biso   1.000  C
  C1630    1.0000 0.04870  0.63910  0.19790  Biso   1.000  C
  H1040    1.0000 0.60305  0.90199  0.22726  Biso   1.000  H
  C1631    1.0000 0.65940  0.97921  0.22049  Biso   1.000  C
  H1041    1.0000 0.56776  0.94189  0.18987  Biso   1.000  H
  C1632    1.0000 0.63730  0.00410  0.19924  Biso   1.000  C
  H1042    1.0000 0.09803  0.70107  0.22726  Biso   1.000  H
  C1633    1.0000 0.02080  0.68020  0.22049  Biso   1.000  C
  H1043    1.0000 0.05814  0.62589  0.18987  Biso   1.000  H
  C1634    1.0000 0.99590  0.63320  0.19924  Biso   1.000  C
  H1044    1.0000 0.68354  0.98818  0.22817  Biso   1.000  H
  C1635    1.0000 0.67247  0.01794  0.21027  Biso   1.000  C
  H1045    1.0000 0.64495  0.03107  0.19227  Biso   1.000  H
  H1046    1.0000 0.01183  0.69537  0.22817  Biso   1.000  H
  C1636    1.0000 0.98205  0.65452  0.21027  Biso   1.000  C
  H1047    1.0000 0.96893  0.61388  0.19227  Biso   1.000  H
  C1637    1.0000 0.72575  0.07462  0.21096  Biso   1.000  C
  C1638    1.0000 0.92536  0.65111  0.21096  Biso   1.000  C
  H1048    1.0000 0.74544  0.07736  0.21956  Biso   1.000  H
  H1049    1.0000 0.74965  0.07865  0.20306  Biso   1.000  H
  H1050    1.0000 0.71623  0.10417  0.21067  Biso   1.000  H
  H1051    1.0000 0.92264  0.66807  0.21956  Biso   1.000  H
  H1052    1.0000 0.92136  0.67098  0.20306  Biso   1.000  H
  H1053    1.0000 0.89582  0.61205  0.21067  Biso   1.000  H
  O235     1.0000 0.68318  0.44021  0.76913  Biso   1.000  O
  C1639    1.0000 0.67481  0.38569  0.76957  Biso   1.000  C
  C1640    1.0000 0.67670  0.46008  0.78112  Biso   1.000  C
  C1641    1.0000 0.62129  0.34156  0.76947  Biso   1.000  C
  C1642    1.0000 0.72030  0.37871  0.76947  Biso   1.000  C
  N352     1.0000 0.67880  0.50862  0.78015  Biso   1.000  N
  N353     1.0000 0.66934  0.43045  0.79231  Biso   1.000  N
  C1643    1.0000 0.61432  0.28911  0.76957  Biso   1.000  C
  H1054    1.0000 0.59027  0.34725  0.76933  Biso   1.000  H
  C1644    1.0000 0.71087  0.32522  0.76957  Biso   1.000  C
  H1055    1.0000 0.75699  0.40975  0.76933  Biso   1.000  H
  C1645    1.0000 0.66839  0.52565  0.79209  Biso   1.000  C
  C1646    1.0000 0.66098  0.45260  0.80349  Biso   1.000  C
  O236     1.0000 0.55981  0.24298  0.76913  Biso   1.000  O
  C1647    1.0000 0.65843  0.27972  0.76947  Biso   1.000  C
  O237     1.0000 0.75703  0.31683  0.76913  Biso   1.000  O
  N354     1.0000 0.65854  0.49926  0.80417  Biso   1.000  N
  C1648    1.0000 0.66461  0.57747  0.79155  Biso   1.000  C
  O238     1.0000 0.65302  0.42567  0.81544  Biso   1.000  O
  C1649    1.0000 0.53992  0.21659  0.78112  Biso   1.000  C
  H1056    1.0000 0.65275  0.24302  0.76933  Biso   1.000  H
  C1650    1.0000 0.78341  0.32331  0.78112  Biso   1.000  C
  C1651    1.0000 0.68452  0.61197  0.78015  Biso   1.000  C
  C1652    1.0000 0.63908  0.59040  0.80210  Biso   1.000  C
  C1653    1.0000 0.66019  0.37854  0.81528  Biso   1.000  C
  N355     1.0000 0.49141  0.17018  0.78015  Biso   1.000  N
  N356     1.0000 0.56955  0.23887  0.79231  Biso   1.000  N
  N357     1.0000 0.82982  0.32119  0.78015  Biso   1.000  N
  N358     1.0000 0.76114  0.33067  0.79231  Biso   1.000  N
  H1057    1.0000 0.70107  0.60303  0.77274  Biso   1.000  H
  C1654    1.0000 0.68019  0.65938  0.77951  Biso   1.000  C
  C1655    1.0000 0.63321  0.63732  0.80076  Biso   1.000  C
  H1058    1.0000 0.62588  0.56775  0.81013  Biso   1.000  H
  C1656    1.0000 0.61366  0.32680  0.81529  Biso   1.000  C
  C1657    1.0000 0.71315  0.38635  0.81529  Biso   1.000  C
  C1658    1.0000 0.47433  0.14271  0.79209  Biso   1.000  C
  C1659    1.0000 0.54739  0.20837  0.80349  Biso   1.000  C
  C1660    1.0000 0.85728  0.33162  0.79209  Biso   1.000  C
  C1661    1.0000 0.79166  0.33902  0.80349  Biso   1.000  C
  H1059    1.0000 0.69536  0.68353  0.77183  Biso   1.000  H
  C1662    1.0000 0.65453  0.67247  0.78973  Biso   1.000  C
  H1060    1.0000 0.61387  0.64492  0.80773  Biso   1.000  H
  C1663    1.0000 0.62147  0.28167  0.81528  Biso   1.000  C
  H1061    1.0000 0.57737  0.32223  0.81533  Biso   1.000  H
  C1664    1.0000 0.71835  0.33981  0.81528  Biso   1.000  C
  H1062    1.0000 0.74486  0.42263  0.81533  Biso   1.000  H
  N359     1.0000 0.50073  0.15925  0.80417  Biso   1.000  N
  C1665    1.0000 0.42252  0.08710  0.79155  Biso   1.000  C
  O239     1.0000 0.57434  0.22736  0.81544  Biso   1.000  O
  N360     1.0000 0.84075  0.34147  0.80417  Biso   1.000  N
  C1666    1.0000 0.91286  0.33541  0.79155  Biso   1.000  C
  O240     1.0000 0.77263  0.34696  0.81544  Biso   1.000  O
  C1667    1.0000 0.65111  0.72575  0.78904  Biso   1.000  C
  C1668    1.0000 0.67323  0.28687  0.81529  Biso   1.000  C
  C1669    1.0000 0.38804  0.07256  0.78015  Biso   1.000  C
  C1670    1.0000 0.40956  0.04866  0.80210  Biso   1.000  C
  C1671    1.0000 0.92745  0.31550  0.78015  Biso   1.000  C
  C1672    1.0000 0.95132  0.36092  0.80210  Biso   1.000  C
  H1063    1.0000 0.66809  0.74545  0.78044  Biso   1.000  H
  H1064    1.0000 0.67098  0.74965  0.79694  Biso   1.000  H
  H1065    1.0000 0.61206  0.71623  0.78933  Biso   1.000  H
  H1066    1.0000 0.67776  0.25512  0.81533  Biso   1.000  H
  H1067    1.0000 0.39696  0.09803  0.77274  Biso   1.000  H
  C1673    1.0000 0.34061  0.02082  0.77951  Biso   1.000  C
  H1068    1.0000 0.43226  0.05814  0.81013  Biso   1.000  H
  C1674    1.0000 0.36272  0.99593  0.80076  Biso   1.000  C
  H1069    1.0000 0.90196  0.29892  0.77274  Biso   1.000  H
  C1675    1.0000 0.97921  0.31982  0.77951  Biso   1.000  C
  H1070    1.0000 0.94187  0.37414  0.81013  Biso   1.000  H
  C1676    1.0000 0.00411  0.36682  0.80076  Biso   1.000  C
  H1071    1.0000 0.31647  0.01184  0.77183  Biso   1.000  H
  C1677    1.0000 0.32754  0.98209  0.78973  Biso   1.000  C
  H1072    1.0000 0.35506  0.96896  0.80773  Biso   1.000  H
  H1073    1.0000 0.98818  0.30465  0.77183  Biso   1.000  H
  C1678    1.0000 0.01794  0.34546  0.78973  Biso   1.000  C
  H1074    1.0000 0.03109  0.38615  0.80773  Biso   1.000  H
  C1679    1.0000 0.27428  0.92536  0.78904  Biso   1.000  C
  C1680    1.0000 0.07466  0.34891  0.78904  Biso   1.000  C
  H1075    1.0000 0.25457  0.92266  0.78044  Biso   1.000  H
  H1076    1.0000 0.25040  0.92137  0.79694  Biso   1.000  H
  H1077    1.0000 0.28378  0.89586  0.78933  Biso   1.000  H
  H1078    1.0000 0.07735  0.33192  0.78044  Biso   1.000  H
  H1079    1.0000 0.07869  0.32905  0.79694  Biso   1.000  H
  H1080    1.0000 0.10417  0.38793  0.78933  Biso   1.000  H
  C1681    1.0000 0.13190  0.47570  0.23592  Biso   1.000  C
  C1682    1.0000 0.15366  0.45301  0.22697  Biso   1.000  C
  H1081    1.0000 0.12435  0.46299  0.24516  Biso   1.000  H
  C1683    1.0000 0.12086  0.51676  0.23166  Biso   1.000  C
  C1684    1.0000 0.16716  0.47229  0.21352  Biso   1.000  C
  H1082    1.0000 0.15954  0.42388  0.23006  Biso   1.000  H
  C1685    1.0000 0.13463  0.53638  0.21810  Biso   1.000  C
  C1686    1.0000 0.09503  0.54024  0.24115  Biso   1.000  C
  C1687    1.0000 0.18574  0.44483  0.20362  Biso   1.000  C
  C1688    1.0000 0.15823  0.51477  0.20928  Biso   1.000  C
  H1083    1.0000 0.12773  0.56476  0.21496  Biso   1.000  H
  H1084    1.0000 0.09084  0.56879  0.23627  Biso   1.000  H
  H1085    1.0000 0.05845  0.51049  0.24417  Biso   1.000  H
  H1086    1.0000 0.11892  0.55678  0.24917  Biso   1.000  H
  N361     1.0000 0.17693  0.39388  0.20712  Biso   1.000  N
  N362     1.0000 0.20802  0.47088  0.19173  Biso   1.000  N
  H1087    1.0000 0.16843  0.52927  0.20026  Biso   1.000  H
  C1689    1.0000 0.18894  0.36982  0.19712  Biso   1.000  C
  C1690    1.0000 0.21919  0.44075  0.18308  Biso   1.000  C
  O241     1.0000 0.17692  0.31720  0.20017  Biso   1.000  O
  N363     1.0000 0.20999  0.38968  0.18486  Biso   1.000  N
  O242     1.0000 0.24198  0.46668  0.17115  Biso   1.000  O
  C1691    1.0000 0.18045  0.28583  0.18918  Biso   1.000  C
  C1692    1.0000 0.25496  0.43701  0.16160  Biso   1.000  C
  C1693    1.0000 0.22621  0.27968  0.18842  Biso   1.000  C
  C1694    1.0000 0.13694  0.26173  0.18003  Biso   1.000  C
  C1695    1.0000 0.30499  0.43809  0.16249  Biso   1.000  C
  C1696    1.0000 0.21677  0.40813  0.15134  Biso   1.000  C
  C1697    1.0000 0.22872  0.24884  0.17765  Biso   1.000  C
  H1088    1.0000 0.25512  0.29597  0.19507  Biso   1.000  H
  H1089    1.0000 0.10544  0.26638  0.18087  Biso   1.000  H
  C1698    1.0000 0.14140  0.23068  0.16966  Biso   1.000  C
  C1699    1.0000 0.31521  0.40801  0.15294  Biso   1.000  C
  H1090    1.0000 0.33132  0.45887  0.16946  Biso   1.000  H
  H1091    1.0000 0.18292  0.40867  0.15067  Biso   1.000  H
  C1700    1.0000 0.22934  0.37879  0.14212  Biso   1.000  C
  O243     1.0000 0.27554  0.24178  0.17632  Biso   1.000  O
  C1701    1.0000 0.18722  0.22387  0.16802  Biso   1.000  C
  O244     1.0000 0.09688  0.20384  0.16034  Biso   1.000  O
  O245     1.0000 0.36613  0.40813  0.15343  Biso   1.000  O
  C1702    1.0000 0.27844  0.37808  0.14254  Biso   1.000  C
  O246     1.0000 0.19213  0.35087  0.13116  Biso   1.000  O
  C1703    1.0000 0.31979  0.28213  0.16945  Biso   1.000  C
  H1092    1.0000 0.18984  0.20296  0.16066  Biso   1.000  H
  C1704    1.0000 0.10290  0.22977  0.14822  Biso   1.000  C
  C1705    1.0000 0.36349  0.36155  0.15864  Biso   1.000  C
  H1093    1.0000 0.28674  0.35797  0.13597  Biso   1.000  H
  C1706    1.0000 0.14908  0.29967  0.13412  Biso   1.000  C
  N364     1.0000 0.36134  0.27195  0.16849  Biso   1.000  N
  N365     1.0000 0.31698  0.32510  0.16478  Biso   1.000  N
  N366     1.0000 0.06216  0.20097  0.13943  Biso   1.000  N
  N367     1.0000 0.14682  0.27959  0.14658  Biso   1.000  N
  N368     1.0000 0.40942  0.35897  0.15672  Biso   1.000  N
  N369     1.0000 0.11370  0.27569  0.12372  Biso   1.000  N
  C1707    1.0000 0.40561  0.31176  0.16177  Biso   1.000  C
  C1708    1.0000 0.06969  0.22611  0.12728  Biso   1.000  C
  C1709    1.0000 0.45176  0.30150  0.15914  Biso   1.000  C
  C1710    1.0000 0.02523  0.19802  0.11679  Biso   1.000  C
  C1711    1.0000 0.48916  0.32813  0.14847  Biso   1.000  C
  C1712    1.0000 0.45762  0.26318  0.16713  Biso   1.000  C
  C1713    1.0000 0.03364  0.21664  0.10337  Biso   1.000  C
  C1714    1.0000 0.97409  0.15389  0.12059  Biso   1.000  C
  H1094    1.0000 0.48625  0.35477  0.14297  Biso   1.000  H
  C1715    1.0000 0.53047  0.31575  0.14588  Biso   1.000  C
  C1716    1.0000 0.49945  0.25163  0.16436  Biso   1.000  C
  H1095    1.0000 0.43262  0.24485  0.17457  Biso   1.000  H
  H1096    1.0000 0.06845  0.24718  0.10066  Biso   1.000  H
  C1717    1.0000 0.99121  0.19066  0.09381  Biso   1.000  C
  H1097    1.0000 0.96802  0.14046  0.12976  Biso   1.000  H
  C1718    1.0000 0.93190  0.12941  0.11101  Biso   1.000  C
  H1098    1.0000 0.55583  0.33408  0.13856  Biso   1.000  H
  C1719    1.0000 0.53588  0.27689  0.15380  Biso   1.000  C
  H1099    1.0000 0.50294  0.22549  0.16997  Biso   1.000  H
  C1720    1.0000 0.94032  0.14703  0.09743  Biso   1.000  C
  H1100    1.0000 0.99754  0.20338  0.08456  Biso   1.000  H
  H1101    1.0000 0.89653  0.09999  0.11377  Biso   1.000  H
  C1721    1.0000 0.58046  0.26197  0.15073  Biso   1.000  C
  C1722    1.0000 0.89410  0.11865  0.08700  Biso   1.000  C
  H1102    1.0000 0.57733  0.23376  0.15727  Biso   1.000  H
  H1103    1.0000 0.57555  0.24726  0.14136  Biso   1.000  H
  H1104    1.0000 0.61722  0.29526  0.15156  Biso   1.000  H
  H1105    1.0000 0.90701  0.13635  0.07796  Biso   1.000  H
  H1106    1.0000 0.88321  0.07925  0.08636  Biso   1.000  H
  H1107    1.0000 0.86204  0.12176  0.08986  Biso   1.000  H
  C1723    1.0000 0.55481  0.09500  0.75885  Biso   1.000  C
  C1724    1.0000 0.60411  0.12085  0.76834  Biso   1.000  C
  H1108    1.0000 0.52206  0.09084  0.76373  Biso   1.000  H
  H1109    1.0000 0.54796  0.05843  0.75583  Biso   1.000  H
  H1110    1.0000 0.56217  0.11894  0.75083  Biso   1.000  H
  C1725    1.0000 0.65621  0.13190  0.76408  Biso   1.000  C
  C1726    1.0000 0.59824  0.13464  0.78190  Biso   1.000  C
  C1727    1.0000 0.70064  0.15368  0.77303  Biso   1.000  C
  H1111    1.0000 0.66136  0.12434  0.75484  Biso   1.000  H
  H1112    1.0000 0.56297  0.12775  0.78504  Biso   1.000  H
  C1728    1.0000 0.64345  0.15821  0.79072  Biso   1.000  C
  C1729    1.0000 0.69485  0.16714  0.78648  Biso   1.000  C
  H1113    1.0000 0.73567  0.15954  0.76994  Biso   1.000  H
  H1114    1.0000 0.63917  0.16843  0.79974  Biso   1.000  H
  C1730    1.0000 0.74094  0.18576  0.79638  Biso   1.000  C
  N370     1.0000 0.73714  0.20803  0.80827  Biso   1.000  N
  N371     1.0000 0.78307  0.17695  0.79288  Biso   1.000  N
  C1731    1.0000 0.77847  0.21921  0.81692  Biso   1.000  C
  C1732    1.0000 0.81914  0.18892  0.80288  Biso   1.000  C
  O247     1.0000 0.77532  0.24199  0.82885  Biso   1.000  O
  N372     1.0000 0.82028  0.20999  0.81514  Biso   1.000  N
  O248     1.0000 0.85971  0.17691  0.79983  Biso   1.000  O
  C1733    1.0000 0.81793  0.25495  0.83840  Biso   1.000  C
  C1734    1.0000 0.89462  0.18044  0.81082  Biso   1.000  C
  C1735    1.0000 0.86688  0.30499  0.83751  Biso   1.000  C
  C1736    1.0000 0.80863  0.21676  0.84866  Biso   1.000  C
  C1737    1.0000 0.94654  0.22619  0.81158  Biso   1.000  C
  C1738    1.0000 0.87526  0.13697  0.81997  Biso   1.000  C
  C1739    1.0000 0.90719  0.31521  0.84706  Biso   1.000  C
  H1115    1.0000 0.87246  0.33133  0.83054  Biso   1.000  H
  H1116    1.0000 0.77426  0.18293  0.84933  Biso   1.000  H
  C1740    1.0000 0.85059  0.22935  0.85788  Biso   1.000  C
  C1741    1.0000 0.97987  0.22873  0.82235  Biso   1.000  C
  H1117    1.0000 0.95916  0.25512  0.80493  Biso   1.000  H
  H1118    1.0000 0.83908  0.10543  0.81913  Biso   1.000  H
  C1742    1.0000 0.91072  0.14138  0.83034  Biso   1.000  C
  O249     1.0000 0.95800  0.36616  0.84657  Biso   1.000  O
  C1743    1.0000 0.90035  0.27843  0.85746  Biso   1.000  C
  O250     1.0000 0.84129  0.19212  0.86884  Biso   1.000  O
  C1744    1.0000 0.96338  0.18726  0.83198  Biso   1.000  C
  O251     1.0000 0.03375  0.27552  0.82368  Biso   1.000  O
  O252     1.0000 0.89303  0.09687  0.83966  Biso   1.000  O
  C1745    1.0000 0.00195  0.36350  0.84136  Biso   1.000  C
  H1119    1.0000 0.92877  0.28674  0.86403  Biso   1.000  H
  C1746    1.0000 0.84944  0.14911  0.86588  Biso   1.000  C
  H1120    1.0000 0.98688  0.18983  0.83934  Biso   1.000  H
  C1747    1.0000 0.03769  0.31982  0.83055  Biso   1.000  C
  C1748    1.0000 0.87312  0.10289  0.85178  Biso   1.000  C
  N373     1.0000 0.99190  0.31700  0.83522  Biso   1.000  N
  N374     1.0000 0.05042  0.40942  0.84328  Biso   1.000  N
  N375     1.0000 0.83800  0.11370  0.87628  Biso   1.000  N
  N376     1.0000 0.86723  0.14682  0.85342  Biso   1.000  N
  N377     1.0000 0.08940  0.36134  0.83151  Biso   1.000  N
  N378     1.0000 0.86121  0.06217  0.86057  Biso   1.000  N
  C1749    1.0000 0.09386  0.40560  0.83823  Biso   1.000  C
  C1750    1.0000 0.84360  0.06969  0.87272  Biso   1.000  C
  C1751    1.0000 0.15027  0.45177  0.84086  Biso   1.000  C
  C1752    1.0000 0.82725  0.02527  0.88321  Biso   1.000  C
  C1753    1.0000 0.16105  0.48917  0.85153  Biso   1.000  C
  C1754    1.0000 0.19444  0.45762  0.83287  Biso   1.000  C
  C1755    1.0000 0.81702  0.03366  0.89663  Biso   1.000  C
  C1756    1.0000 0.82021  0.97411  0.87941  Biso   1.000  C
  H1121    1.0000 0.13149  0.48626  0.85703  Biso   1.000  H
  C1757    1.0000 0.21474  0.53047  0.85412  Biso   1.000  C
  C1758    1.0000 0.24781  0.49943  0.83564  Biso   1.000  C
  H1122    1.0000 0.18778  0.43265  0.82543  Biso   1.000  H
  H1123    1.0000 0.82127  0.06844  0.89934  Biso   1.000  H
  C1759    1.0000 0.80059  0.99123  0.90619  Biso   1.000  C
  H1124    1.0000 0.82758  0.96804  0.87024  Biso   1.000  H
  C1760    1.0000 0.80248  0.93189  0.88899  Biso   1.000  C
  H1125    1.0000 0.22177  0.55582  0.86144  Biso   1.000  H
  C1761    1.0000 0.25898  0.53588  0.84620  Biso   1.000  C
  H1126    1.0000 0.27745  0.50292  0.83003  Biso   1.000  H
  C1762    1.0000 0.79327  0.94032  0.90257  Biso   1.000  C
  H1127    1.0000 0.79417  0.99755  0.91544  Biso   1.000  H
  H1128    1.0000 0.79659  0.89656  0.88623  Biso   1.000  H
  C1763    1.0000 0.31849  0.58047  0.84927  Biso   1.000  C
  C1764    1.0000 0.77546  0.89411  0.91300  Biso   1.000  C
  H1129    1.0000 0.34356  0.57735  0.84273  Biso   1.000  H
  H1130    1.0000 0.32825  0.57552  0.85864  Biso   1.000  H
  H1131    1.0000 0.32197  0.61724  0.84844  Biso   1.000  H
  H1132    1.0000 0.77066  0.90704  0.92204  Biso   1.000  H
  H1133    1.0000 0.80397  0.88327  0.91364  Biso   1.000  H
  H1134    1.0000 0.74029  0.86207  0.91014  Biso   1.000  H
  C1765    1.0000 0.86811  0.52432  0.76408  Biso   1.000  C
  C1766    1.0000 0.87915  0.48327  0.76834  Biso   1.000  C
  C1767    1.0000 0.84633  0.54697  0.77303  Biso   1.000  C
  H1135    1.0000 0.87566  0.53704  0.75484  Biso   1.000  H
  C1768    1.0000 0.90498  0.45979  0.75885  Biso   1.000  C
  C1769    1.0000 0.86540  0.46361  0.78190  Biso   1.000  C
  C1770    1.0000 0.83286  0.52773  0.78648  Biso   1.000  C
  H1136    1.0000 0.84047  0.57615  0.76994  Biso   1.000  H
  H1137    1.0000 0.90917  0.43124  0.76373  Biso   1.000  H
  H1138    1.0000 0.94156  0.48954  0.75583  Biso   1.000  H
  H1139    1.0000 0.88109  0.44325  0.75083  Biso   1.000  H
  H1140    1.0000 0.87226  0.43523  0.78504  Biso   1.000  H
  C1771    1.0000 0.84176  0.48522  0.79072  Biso   1.000  C
  C1772    1.0000 0.81427  0.55520  0.79638  Biso   1.000  C
  H1141    1.0000 0.83158  0.47076  0.79974  Biso   1.000  H
  N379     1.0000 0.79198  0.52910  0.80827  Biso   1.000  N
  N380     1.0000 0.82306  0.60611  0.79288  Biso   1.000  N
  C1773    1.0000 0.78082  0.55927  0.81692  Biso   1.000  C
  C1774    1.0000 0.81111  0.63021  0.80288  Biso   1.000  C
  O253     1.0000 0.75803  0.53334  0.82885  Biso   1.000  O
  N381     1.0000 0.79000  0.61030  0.81514  Biso   1.000  N
  O254     1.0000 0.82307  0.68278  0.79983  Biso   1.000  O
  C1775    1.0000 0.74503  0.56297  0.83840  Biso   1.000  C
  C1776    1.0000 0.81954  0.71416  0.81082  Biso   1.000  C
  C1777    1.0000 0.69500  0.56189  0.83751  Biso   1.000  C
  C1778    1.0000 0.78322  0.59185  0.84866  Biso   1.000  C
  C1779    1.0000 0.77380  0.72035  0.81158  Biso   1.000  C
  C1780    1.0000 0.86305  0.73826  0.81997  Biso   1.000  C
  C1781    1.0000 0.68478  0.59198  0.84706  Biso   1.000  C
  H1142    1.0000 0.66869  0.54115  0.83054  Biso   1.000  H
  H1143    1.0000 0.81709  0.59135  0.84933  Biso   1.000  H
  C1782    1.0000 0.77067  0.62123  0.85788  Biso   1.000  C
  C1783    1.0000 0.77127  0.75114  0.82235  Biso   1.000  C
  H1144    1.0000 0.74489  0.70406  0.80493  Biso   1.000  H
  H1145    1.0000 0.89457  0.73365  0.81913  Biso   1.000  H
  C1784    1.0000 0.85862  0.76934  0.83034  Biso   1.000  C
  O255     1.0000 0.63387  0.59185  0.84657  Biso   1.000  O
  C1785    1.0000 0.72155  0.62190  0.85746  Biso   1.000  C
  O256     1.0000 0.80788  0.64916  0.86884  Biso   1.000  O
  O257     1.0000 0.72449  0.75821  0.82368  Biso   1.000  O
  C1786    1.0000 0.81277  0.77612  0.83198  Biso   1.000  C
  O258     1.0000 0.90311  0.79615  0.83966  Biso   1.000  O
  C1787    1.0000 0.63650  0.63844  0.84136  Biso   1.000  C
  H1146    1.0000 0.71328  0.64205  0.86403  Biso   1.000  H
  C1788    1.0000 0.85091  0.70032  0.86588  Biso   1.000  C
  C1789    1.0000 0.68020  0.71785  0.83055  Biso   1.000  C
  H1147    1.0000 0.81016  0.79702  0.83934  Biso   1.000  H
  C1790    1.0000 0.89711  0.77026  0.85178  Biso   1.000  C
  N382     1.0000 0.59057  0.64102  0.84328  Biso   1.000  N
  N383     1.0000 0.68303  0.67493  0.83522  Biso   1.000  N
  N384     1.0000 0.88630  0.72430  0.87628  Biso   1.000  N
  N385     1.0000 0.85318  0.72039  0.85342  Biso   1.000  N
  N386     1.0000 0.63867  0.72808  0.83151  Biso   1.000  N
  N387     1.0000 0.93784  0.79901  0.86057  Biso   1.000  N
  C1791    1.0000 0.59440  0.68827  0.83823  Biso   1.000  C
  C1792    1.0000 0.93030  0.77387  0.87272  Biso   1.000  C
  C1793    1.0000 0.54827  0.69849  0.84086  Biso   1.000  C
  C1794    1.0000 0.97476  0.80197  0.88321  Biso   1.000  C
  C1795    1.0000 0.51085  0.67189  0.85153  Biso   1.000  C
  C1796    1.0000 0.54240  0.73685  0.83287  Biso   1.000  C
  C1797    1.0000 0.96637  0.78339  0.89663  Biso   1.000  C
  C1798    1.0000 0.02591  0.84610  0.87941  Biso   1.000  C
  H1148    1.0000 0.51377  0.64525  0.85703  Biso   1.000  H
  C1799    1.0000 0.46954  0.68428  0.85412  Biso   1.000  C
  C1800    1.0000 0.50056  0.74840  0.83564  Biso   1.000  C
  H1149    1.0000 0.56737  0.75513  0.82543  Biso   1.000  H
  H1150    1.0000 0.93159  0.75285  0.89934  Biso   1.000  H
  C1801    1.0000 0.00880  0.80936  0.90619  Biso   1.000  C
  H1151    1.0000 0.03197  0.85952  0.87024  Biso   1.000  H
  C1802    1.0000 0.06811  0.87062  0.88899  Biso   1.000  C
  H1152    1.0000 0.44418  0.66595  0.86144  Biso   1.000  H
  C1803    1.0000 0.46414  0.72313  0.84620  Biso   1.000  C
  H1153    1.0000 0.49707  0.77454  0.83003  Biso   1.000  H
  C1804    1.0000 0.05967  0.85296  0.90257  Biso   1.000  C
  H1154    1.0000 0.00248  0.79665  0.91544  Biso   1.000  H
  H1155    1.0000 0.10348  0.90004  0.88623  Biso   1.000  H
  C1805    1.0000 0.41955  0.73805  0.84927  Biso   1.000  C
  C1806    1.0000 0.10590  0.88134  0.91300  Biso   1.000  C
  H1156    1.0000 0.42267  0.76623  0.84273  Biso   1.000  H
  H1157    1.0000 0.42448  0.75272  0.85864  Biso   1.000  H
  H1158    1.0000 0.38277  0.70472  0.84844  Biso   1.000  H
  H1159    1.0000 0.09298  0.86364  0.92204  Biso   1.000  H
  H1160    1.0000 0.11678  0.92074  0.91364  Biso   1.000  H
  H1161    1.0000 0.13795  0.87822  0.91014  Biso   1.000  H
  C1807    1.0000 0.77257  0.21468  0.24633  Biso   1.000  C
  C1808    1.0000 0.72635  0.18630  0.23591  Biso   1.000  C
  H1162    1.0000 0.75965  0.19698  0.25537  Biso   1.000  H
  H1163    1.0000 0.78345  0.25408  0.24697  Biso   1.000  H
  H1164    1.0000 0.80462  0.21157  0.24347  Biso   1.000  H
  C1809    1.0000 0.73482  0.20396  0.22232  Biso   1.000  C
  C1810    1.0000 0.67547  0.14271  0.23952  Biso   1.000  C
  C1811    1.0000 0.69261  0.17944  0.21275  Biso   1.000  C
  H1165    1.0000 0.77015  0.23338  0.21956  Biso   1.000  H
  C1812    1.0000 0.63302  0.11669  0.22997  Biso   1.000  C
  H1166    1.0000 0.66913  0.12995  0.24877  Biso   1.000  H
  C1813    1.0000 0.64143  0.13531  0.21654  Biso   1.000  C
  H1167    1.0000 0.69864  0.19287  0.20357  Biso   1.000  H
  H1168    1.0000 0.59825  0.08615  0.23267  Biso   1.000  H
  C1814    1.0000 0.59698  0.10722  0.20606  Biso   1.000  C
  N388     1.0000 0.60451  0.13236  0.19390  Biso   1.000  N
  N389     1.0000 0.55297  0.05764  0.20962  Biso   1.000  N
  C1815    1.0000 0.56376  0.10356  0.18512  Biso   1.000  C
  C1816    1.0000 0.51759  0.03366  0.19921  Biso   1.000  C
  O259     1.0000 0.56978  0.12949  0.17299  Biso   1.000  O
  N390     1.0000 0.51985  0.05373  0.18675  Biso   1.000  N
  O260     1.0000 0.47455  0.98250  0.20217  Biso   1.000  O
  C1817    1.0000 0.52527  0.10265  0.16368  Biso   1.000  C
  C1818    1.0000 0.43734  0.95458  0.19121  Biso   1.000  C
  C1819    1.0000 0.47944  0.10946  0.16531  Biso   1.000  C
  C1820    1.0000 0.52972  0.07160  0.15330  Biso   1.000  C
  C1821    1.0000 0.38824  0.95528  0.19079  Biso   1.000  C
  C1822    1.0000 0.44989  0.92520  0.18199  Biso   1.000  C
  C1823    1.0000 0.43795  0.08449  0.15568  Biso   1.000  C
  H1169    1.0000 0.47683  0.13036  0.17267  Biso   1.000  H
  C1824    1.0000 0.48621  0.04750  0.14415  Biso   1.000  C
  H1170    1.0000 0.56122  0.06695  0.15247  Biso   1.000  H
  C1825    1.0000 0.35145  0.92532  0.18039  Biso   1.000  C
  H1171    1.0000 0.37995  0.97540  0.19737  Biso   1.000  H
  C1826    1.0000 0.41172  0.89636  0.17174  Biso   1.000  C
  H1172    1.0000 0.48376  0.92470  0.18267  Biso   1.000  H
  O261     1.0000 0.39116  0.09155  0.15702  Biso   1.000  O
  C1827    1.0000 0.44045  0.05365  0.14491  Biso   1.000  C
  O262     1.0000 0.48974  0.01612  0.13316  Biso   1.000  O
  O263     1.0000 0.30056  0.92524  0.17990  Biso   1.000  O
  C1828    1.0000 0.36170  0.89528  0.17084  Biso   1.000  C
  O264     1.0000 0.42471  0.86669  0.16218  Biso   1.000  O
  C1829    1.0000 0.34688  0.05120  0.16388  Biso   1.000  C
  H1173    1.0000 0.41154  0.03736  0.13826  Biso   1.000  H
  C1830    1.0000 0.47775  0.96355  0.13621  Biso   1.000  C
  C1831    1.0000 0.30317  0.97178  0.17469  Biso   1.000  C
  H1174    1.0000 0.33536  0.87450  0.16387  Biso   1.000  H
  C1832    1.0000 0.44750  0.89262  0.15025  Biso   1.000  C
  N391     1.0000 0.30535  0.06142  0.16484  Biso   1.000  N
  N392     1.0000 0.34968  0.00823  0.16856  Biso   1.000  N
  N393     1.0000 0.48976  0.93949  0.12622  Biso   1.000  N
  N394     1.0000 0.45667  0.94365  0.14847  Biso   1.000  N
  N395     1.0000 0.25724  0.97436  0.17662  Biso   1.000  N
  N396     1.0000 0.45867  0.86249  0.14160  Biso   1.000  N
  C1833    1.0000 0.26105  0.02157  0.17156  Biso   1.000  C
  C1834    1.0000 0.48095  0.88854  0.12972  Biso   1.000  C
  C1835    1.0000 0.21494  0.03183  0.17420  Biso   1.000  C
  C1836    1.0000 0.49953  0.86108  0.11981  Biso   1.000  C
  C1837    1.0000 0.17753  0.00524  0.18486  Biso   1.000  C
  C1838    1.0000 0.20905  0.07015  0.16620  Biso   1.000  C
  C1839    1.0000 0.51300  0.88032  0.10636  Biso   1.000  C
  C1840    1.0000 0.50845  0.81860  0.12406  Biso   1.000  C
  C1841    1.0000 0.13619  0.01758  0.18745  Biso   1.000  C
  H1175    1.0000 0.18044  0.97860  0.19037  Biso   1.000  H
  C1842    1.0000 0.16721  0.08170  0.16898  Biso   1.000  C
  H1176    1.0000 0.23405  0.08847  0.15877  Biso   1.000  H
  H1177    1.0000 0.50715  0.90949  0.10327  Biso   1.000  H
  C1843    1.0000 0.53479  0.85767  0.09742  Biso   1.000  C
  C1844    1.0000 0.53203  0.79695  0.11523  Biso   1.000  C
  H1178    1.0000 0.49825  0.80410  0.13307  Biso   1.000  H
  C1845    1.0000 0.13079  0.05643  0.17953  Biso   1.000  C
  H1179    1.0000 0.11085  0.99929  0.19477  Biso   1.000  H
  H1180    1.0000 0.16374  0.10788  0.16337  Biso   1.000  H
  H1181    1.0000 0.54233  0.87038  0.08817  Biso   1.000  H
  C1846    1.0000 0.54582  0.81661  0.10168  Biso   1.000  C
  H1182    1.0000 0.53893  0.76857  0.11837  Biso   1.000  H
  C1847    1.0000 0.08621  0.07135  0.18261  Biso   1.000  C
  C1848    1.0000 0.57165  0.79313  0.09219  Biso   1.000  C
  H1183    1.0000 0.08934  0.09957  0.17606  Biso   1.000  H
  H1184    1.0000 0.09115  0.08606  0.19197  Biso   1.000  H
  H1185    1.0000 0.04944  0.03807  0.18177  Biso   1.000  H
  H1186    1.0000 0.57584  0.76458  0.09707  Biso   1.000  H
  H1187    1.0000 0.60823  0.82288  0.08916  Biso   1.000  H
  H1188    1.0000 0.54776  0.77659  0.08417  Biso   1.000  H
  C1849    1.0000 0.22742  0.78530  0.75367  Biso   1.000  C
  C1850    1.0000 0.27367  0.81373  0.76409  Biso   1.000  C
  H1189    1.0000 0.24036  0.80305  0.74463  Biso   1.000  H
  H1190    1.0000 0.21656  0.74595  0.75303  Biso   1.000  H
  H1191    1.0000 0.19539  0.78846  0.75653  Biso   1.000  H
  C1851    1.0000 0.26520  0.79606  0.77768  Biso   1.000  C
  C1852    1.0000 0.32454  0.85732  0.76048  Biso   1.000  C
  C1853    1.0000 0.30740  0.82058  0.78725  Biso   1.000  C
  H1192    1.0000 0.22986  0.76664  0.78044  Biso   1.000  H
  H1193    1.0000 0.33086  0.87004  0.75123  Biso   1.000  H
  C1854    1.0000 0.36697  0.88329  0.77003  Biso   1.000  C
  C1855    1.0000 0.35858  0.86472  0.78346  Biso   1.000  C
  H1194    1.0000 0.30135  0.80712  0.79643  Biso   1.000  H
  H1195    1.0000 0.40178  0.91384  0.76733  Biso   1.000  H
  C1856    1.0000 0.40304  0.89281  0.79394  Biso   1.000  C
  N397     1.0000 0.44704  0.94239  0.79038  Biso   1.000  N
  N398     1.0000 0.39550  0.86767  0.80610  Biso   1.000  N
  C1857    1.0000 0.48243  0.96636  0.80079  Biso   1.000  C
  C1858    1.0000 0.43623  0.89642  0.81488  Biso   1.000  C
  N399     1.0000 0.48014  0.94625  0.81325  Biso   1.000  N
  O265     1.0000 0.52544  0.01748  0.79783  Biso   1.000  O
  O266     1.0000 0.43023  0.87053  0.82701  Biso   1.000  O
  C1859    1.0000 0.56267  0.04545  0.80879  Biso   1.000  C
  C1860    1.0000 0.47473  0.89734  0.83632  Biso   1.000  C
  C1861    1.0000 0.55010  0.07479  0.81801  Biso   1.000  C
  C1862    1.0000 0.61177  0.04474  0.80921  Biso   1.000  C
  C1863    1.0000 0.47027  0.92838  0.84670  Biso   1.000  C
  C1864    1.0000 0.52057  0.89056  0.83469  Biso   1.000  C
  C1865    1.0000 0.58829  0.10367  0.82826  Biso   1.000  C
  H1196    1.0000 0.51625  0.07533  0.81733  Biso   1.000  H
  C1866    1.0000 0.64854  0.07466  0.81961  Biso   1.000  C
  H1197    1.0000 0.62007  0.02463  0.80263  Biso   1.000  H
  C1867    1.0000 0.51380  0.95253  0.85585  Biso   1.000  C
  H1198    1.0000 0.43877  0.93304  0.84753  Biso   1.000  H
  C1868    1.0000 0.56207  0.91554  0.84432  Biso   1.000  C
  H1199    1.0000 0.52316  0.86962  0.82733  Biso   1.000  H
  O267     1.0000 0.57534  0.13334  0.83782  Biso   1.000  O
  C1869    1.0000 0.63832  0.10475  0.82916  Biso   1.000  C
  O268     1.0000 0.69949  0.07479  0.82010  Biso   1.000  O
  O269     1.0000 0.51027  0.98390  0.86684  Biso   1.000  O
  C1870    1.0000 0.55954  0.94633  0.85509  Biso   1.000  C
  O270     1.0000 0.60888  0.90848  0.84298  Biso   1.000  O
  C1871    1.0000 0.55252  0.10741  0.84975  Biso   1.000  C
  H1200    1.0000 0.66469  0.12553  0.83613  Biso   1.000  H
  C1872    1.0000 0.69682  0.02820  0.82531  Biso   1.000  C
  C1873    1.0000 0.52225  0.03643  0.86379  Biso   1.000  C
  H1201    1.0000 0.58845  0.96262  0.86174  Biso   1.000  H
  C1874    1.0000 0.65314  0.94883  0.83612  Biso   1.000  C
  N400     1.0000 0.54134  0.13754  0.85840  Biso   1.000  N
  N401     1.0000 0.54332  0.05634  0.85153  Biso   1.000  N
  N402     1.0000 0.65031  0.99176  0.83144  Biso   1.000  N
  N403     1.0000 0.74275  0.02562  0.82338  Biso   1.000  N
  N404     1.0000 0.51029  0.06053  0.87378  Biso   1.000  N
  N405     1.0000 0.69467  0.93860  0.83516  Biso   1.000  N
  C1875    1.0000 0.51910  0.11148  0.87028  Biso   1.000  C
  C1876    1.0000 0.73894  0.97842  0.82844  Biso   1.000  C
  C1877    1.0000 0.50046  0.13891  0.88019  Biso   1.000  C
  C1878    1.0000 0.78509  0.96815  0.82580  Biso   1.000  C
  C1879    1.0000 0.48699  0.11967  0.89364  Biso   1.000  C
  C1880    1.0000 0.49156  0.18142  0.87594  Biso   1.000  C
  C1881    1.0000 0.82249  0.99479  0.81514  Biso   1.000  C
  C1882    1.0000 0.79095  0.92984  0.83380  Biso   1.000  C
  H1202    1.0000 0.49287  0.09054  0.89673  Biso   1.000  H
  C1883    1.0000 0.46523  0.14236  0.90258  Biso   1.000  C
  C1884    1.0000 0.46796  0.20303  0.88477  Biso   1.000  C
  H1203    1.0000 0.50176  0.19593  0.86693  Biso   1.000  H
  C1885    1.0000 0.86380  0.98241  0.81255  Biso   1.000  C
  H1204    1.0000 0.81957  0.02143  0.80963  Biso   1.000  H
  C1886    1.0000 0.83278  0.91828  0.83102  Biso   1.000  C
  H1205    1.0000 0.76597  0.91155  0.84123  Biso   1.000  H
  H1206    1.0000 0.45766  0.12960  0.91183  Biso   1.000  H
  C1887    1.0000 0.45417  0.18337  0.89832  Biso   1.000  C
  H1207    1.0000 0.46106  0.23141  0.88163  Biso   1.000  H
  C1888    1.0000 0.86921  0.94355  0.82047  Biso   1.000  C
  H1208    1.0000 0.88916  0.00073  0.80523  Biso   1.000  H
  H1209    1.0000 0.83627  0.89214  0.83663  Biso   1.000  H
  C1889    1.0000 0.42834  0.20685  0.90781  Biso   1.000  C
  C1890    1.0000 0.91379  0.92863  0.81739  Biso   1.000  C
  H1210    1.0000 0.42415  0.23540  0.90293  Biso   1.000  H
  H1211    1.0000 0.39176  0.17710  0.91084  Biso   1.000  H
  H1212    1.0000 0.45229  0.22344  0.91583  Biso   1.000  H
  H1213    1.0000 0.91068  0.90046  0.82394  Biso   1.000  H
  H1214    1.0000 0.90888  0.91392  0.80803  Biso   1.000  H
  H1215    1.0000 0.95057  0.96196  0.81823  Biso   1.000  H
  C1891    1.0000 0.44519  0.90499  0.24115  Biso   1.000  C
  C1892    1.0000 0.39588  0.87914  0.23166  Biso   1.000  C
  H1216    1.0000 0.47795  0.90918  0.23627  Biso   1.000  H
  H1217    1.0000 0.45203  0.94156  0.24417  Biso   1.000  H
  H1218    1.0000 0.43785  0.88109  0.24917  Biso   1.000  H
  C1893    1.0000 0.40178  0.86538  0.21810  Biso   1.000  C
  C1894    1.0000 0.34380  0.86812  0.23592  Biso   1.000  C
  C1895    1.0000 0.35654  0.84178  0.20928  Biso   1.000  C
  H1219    1.0000 0.43704  0.87228  0.21496  Biso   1.000  H
  C1896    1.0000 0.29935  0.84631  0.22697  Biso   1.000  C
  H1220    1.0000 0.33866  0.87569  0.24516  Biso   1.000  H
  C1897    1.0000 0.30516  0.83288  0.21352  Biso   1.000  C
  H1221    1.0000 0.36082  0.83155  0.20026  Biso   1.000  H
  H1222    1.0000 0.26434  0.84049  0.23006  Biso   1.000  H
  C1898    1.0000 0.25907  0.81427  0.20362  Biso   1.000  C
  N406     1.0000 0.26287  0.79199  0.19173  Biso   1.000  N
  N407     1.0000 0.21694  0.82308  0.20712  Biso   1.000  N
  C1899    1.0000 0.22154  0.78081  0.18308  Biso   1.000  C
  C1900    1.0000 0.18091  0.81111  0.19712  Biso   1.000  C
  O271     1.0000 0.22468  0.75800  0.17115  Biso   1.000  O
  N408     1.0000 0.17971  0.79000  0.18486  Biso   1.000  N
  O272     1.0000 0.14029  0.82308  0.20017  Biso   1.000  O
  C1901    1.0000 0.18206  0.74503  0.16160  Biso   1.000  C
  C1902    1.0000 0.10537  0.81954  0.18918  Biso   1.000  C
  C1903    1.0000 0.13311  0.69500  0.16249  Biso   1.000  C
  C1904    1.0000 0.19137  0.78322  0.15134  Biso   1.000  C
  C1905    1.0000 0.05345  0.77379  0.18842  Biso   1.000  C
  C1906    1.0000 0.12475  0.86305  0.18003  Biso   1.000  C
  C1907    1.0000 0.09282  0.68482  0.15294  Biso   1.000  C
  H1223    1.0000 0.12753  0.66865  0.16946  Biso   1.000  H
  H1224    1.0000 0.22576  0.81709  0.15067  Biso   1.000  H
  C1908    1.0000 0.14943  0.77067  0.14212  Biso   1.000  C
  C1909    1.0000 0.02012  0.77125  0.17765  Biso   1.000  C
  H1225    1.0000 0.04083  0.74487  0.19507  Biso   1.000  H
  H1226    1.0000 0.16091  0.89455  0.18087  Biso   1.000  H
  C1910    1.0000 0.08928  0.85861  0.16966  Biso   1.000  C
  O273     1.0000 0.04201  0.63387  0.15343  Biso   1.000  O
  C1911    1.0000 0.09964  0.72155  0.14254  Biso   1.000  C
  O274     1.0000 0.15870  0.80787  0.13116  Biso   1.000  O
  C1912    1.0000 0.03663  0.81277  0.16802  Biso   1.000  C
  O275     1.0000 0.96628  0.72446  0.17632  Biso   1.000  O
  O276     1.0000 0.10696  0.90311  0.16034  Biso   1.000  O
  C1913    1.0000 0.99805  0.63649  0.15864  Biso   1.000  C
  H1227    1.0000 0.07125  0.71328  0.13597  Biso   1.000  H
  C1914    1.0000 0.15057  0.85092  0.13412  Biso   1.000  C
  H1228    1.0000 0.01312  0.81015  0.16066  Biso   1.000  H
  C1915    1.0000 0.96236  0.68020  0.16945  Biso   1.000  C
  C1916    1.0000 0.12689  0.89713  0.14822  Biso   1.000  C
  N409     1.0000 0.00811  0.68303  0.16478  Biso   1.000  N
  N410     1.0000 0.94957  0.59057  0.15672  Biso   1.000  N
  N411     1.0000 0.16201  0.88633  0.12372  Biso   1.000  N
  N412     1.0000 0.13279  0.85321  0.14658  Biso   1.000  N
  N413     1.0000 0.91059  0.63865  0.16849  Biso   1.000  N
  N414     1.0000 0.13878  0.93781  0.13943  Biso   1.000  N
  C1917    1.0000 0.90613  0.59439  0.16177  Biso   1.000  C
  C1918    1.0000 0.15643  0.93029  0.12728  Biso   1.000  C
  C1919    1.0000 0.84974  0.54826  0.15914  Biso   1.000  C
  C1920    1.0000 0.17276  0.97476  0.11679  Biso   1.000  C
  C1921    1.0000 0.83896  0.51086  0.14847  Biso   1.000  C
  C1922    1.0000 0.80557  0.54240  0.16713  Biso   1.000  C
  C1923    1.0000 0.18300  0.96636  0.10337  Biso   1.000  C
  C1924    1.0000 0.17980  0.02592  0.12059  Biso   1.000  C
  H1229    1.0000 0.86852  0.51377  0.14297  Biso   1.000  H
  C1925    1.0000 0.78525  0.46951  0.14588  Biso   1.000  C
  C1926    1.0000 0.75218  0.50055  0.16436  Biso   1.000  C
  H1230    1.0000 0.81223  0.56738  0.17457  Biso   1.000  H
  H1231    1.0000 0.17874  0.93158  0.10066  Biso   1.000  H
  C1927    1.0000 0.19946  0.00879  0.09381  Biso   1.000  C
  H1232    1.0000 0.17242  0.03194  0.12976  Biso   1.000  H
  C1928    1.0000 0.19751  0.06810  0.11101  Biso   1.000  C
  H1233    1.0000 0.77822  0.44416  0.13856  Biso   1.000  H
  C1929    1.0000 0.74102  0.46411  0.15380  Biso   1.000  C
  H1234    1.0000 0.72255  0.49706  0.16997  Biso   1.000  H
  C1930    1.0000 0.20672  0.05966  0.09743  Biso   1.000  C
  H1235    1.0000 0.20582  0.00244  0.08456  Biso   1.000  H
  H1236    1.0000 0.20343  0.10346  0.11377  Biso   1.000  H
  C1931    1.0000 0.68153  0.41956  0.15073  Biso   1.000  C
  C1932    1.0000 0.22453  0.10587  0.08700  Biso   1.000  C
  H1237    1.0000 0.65645  0.42268  0.15727  Biso   1.000  H
  H1238    1.0000 0.67174  0.42446  0.14136  Biso   1.000  H
  H1239    1.0000 0.67804  0.38278  0.15156  Biso   1.000  H
  H1240    1.0000 0.22934  0.09295  0.07796  Biso   1.000  H
  H1241    1.0000 0.19604  0.11676  0.08636  Biso   1.000  H
  H1242    1.0000 0.25972  0.13795  0.08986  Biso   1.000  H
  O277     1.0000 0.56070  0.31970  0.85123  Biso   1.000  O
  C1933    1.0000 0.54171  0.32763  0.86318  Biso   1.000  C
  C1934    1.0000 0.61500  0.32689  0.85138  Biso   1.000  C
  N415     1.0000 0.49260  0.32522  0.86250  Biso   1.000  N
  N416     1.0000 0.57219  0.33599  0.87436  Biso   1.000  N
  C1935    1.0000 0.62018  0.28030  0.85137  Biso   1.000  C
  C1936    1.0000 0.66012  0.37983  0.85137  Biso   1.000  C
  C1937    1.0000 0.47605  0.33503  0.87458  Biso   1.000  C
  C1938    1.0000 0.54998  0.34338  0.88555  Biso   1.000  C
  C1939    1.0000 0.67314  0.28811  0.85138  Biso   1.000  C
  H1243    1.0000 0.58847  0.24402  0.85133  Biso   1.000  H
  C1940    1.0000 0.71187  0.38502  0.85138  Biso   1.000  C
  H1244    1.0000 0.65556  0.41154  0.85133  Biso   1.000  H
  N417     1.0000 0.50355  0.34546  0.88652  Biso   1.000  N
  C1941    1.0000 0.42047  0.33125  0.87512  Biso   1.000  C
  O278     1.0000 0.57630  0.34983  0.89754  Biso   1.000  O
  O279     1.0000 0.68031  0.24099  0.85123  Biso   1.000  O
  C1942    1.0000 0.71972  0.33989  0.85137  Biso   1.000  C
  O280     1.0000 0.75899  0.43930  0.85123  Biso   1.000  O
  C1943    1.0000 0.40587  0.35116  0.88652  Biso   1.000  C
  C1944    1.0000 0.38203  0.30578  0.86457  Biso   1.000  C
  C1945    1.0000 0.62247  0.34147  0.89710  Biso   1.000  C
  C1946    1.0000 0.67239  0.21406  0.86318  Biso   1.000  C
  H1245    1.0000 0.75596  0.34442  0.85133  Biso   1.000  H
  C1947    1.0000 0.78596  0.45833  0.86318  Biso   1.000  C
  H1246    1.0000 0.43137  0.36774  0.89393  Biso   1.000  H
  C1948    1.0000 0.35414  0.34688  0.88715  Biso   1.000  C
  C1949    1.0000 0.32924  0.29987  0.86591  Biso   1.000  C
  H1247    1.0000 0.39145  0.29252  0.85654  Biso   1.000  H
  C1950    1.0000 0.61306  0.28795  0.89720  Biso   1.000  C
  C1951    1.0000 0.67490  0.38694  0.89720  Biso   1.000  C
  N418     1.0000 0.67478  0.16739  0.86250  Biso   1.000  N
  N419     1.0000 0.66399  0.23621  0.87436  Biso   1.000  N
  N420     1.0000 0.83263  0.50741  0.86250  Biso   1.000  N
  N421     1.0000 0.76377  0.42779  0.87436  Biso   1.000  N
  H1248    1.0000 0.34517  0.36204  0.89483  Biso   1.000  H
  C1952    1.0000 0.31539  0.32119  0.87693  Biso   1.000  C
  H1249    1.0000 0.30226  0.28055  0.85894  Biso   1.000  H
  H1250    1.0000 0.57636  0.25695  0.89733  Biso   1.000  H
  C1953    1.0000 0.65853  0.28101  0.89710  Biso   1.000  C
  H1251    1.0000 0.68058  0.42363  0.89733  Biso   1.000  H
  C1954    1.0000 0.71900  0.37754  0.89710  Biso   1.000  C
  C1955    1.0000 0.66497  0.14100  0.87458  Biso   1.000  C
  C1956    1.0000 0.65663  0.20658  0.88555  Biso   1.000  C
  C1957    1.0000 0.85900  0.52395  0.87458  Biso   1.000  C
  C1958    1.0000 0.79341  0.45006  0.88555  Biso   1.000  C
  C1959    1.0000 0.25869  0.31779  0.87762  Biso   1.000  C
  O281     1.0000 0.65017  0.22649  0.89754  Biso   1.000  O
  C1960    1.0000 0.71207  0.32510  0.89720  Biso   1.000  C
  O282     1.0000 0.77354  0.42371  0.89754  Biso   1.000  O
  N422     1.0000 0.65455  0.15808  0.88652  Biso   1.000  N
  C1961    1.0000 0.66877  0.08922  0.87512  Biso   1.000  C
  N423     1.0000 0.84196  0.49648  0.88652  Biso   1.000  N
  C1962    1.0000 0.91081  0.57955  0.87512  Biso   1.000  C
  H1252    1.0000 0.25598  0.33474  0.88623  Biso   1.000  H
  H1253    1.0000 0.25466  0.33765  0.86973  Biso   1.000  H
  H1254    1.0000 0.22915  0.27872  0.87733  Biso   1.000  H
  H1255    1.0000 0.74308  0.31945  0.89733  Biso   1.000  H
  C1963    1.0000 0.64883  0.05473  0.88652  Biso   1.000  C
  C1964    1.0000 0.69425  0.07626  0.86457  Biso   1.000  C
  C1965    1.0000 0.94529  0.59410  0.88652  Biso   1.000  C
  C1966    1.0000 0.92377  0.61799  0.86457  Biso   1.000  C
  H1256    1.0000 0.63226  0.06362  0.89393  Biso   1.000  H
  C1967    1.0000 0.65314  0.00727  0.88715  Biso   1.000  C
  C1968    1.0000 0.70014  0.02938  0.86591  Biso   1.000  C
  H1257    1.0000 0.70747  0.09895  0.85654  Biso   1.000  H
  H1258    1.0000 0.93637  0.56862  0.89393  Biso   1.000  H
  C1969    1.0000 0.99274  0.64588  0.88715  Biso   1.000  C
  C1970    1.0000 0.97063  0.67077  0.86591  Biso   1.000  C
  H1259    1.0000 0.90107  0.60852  0.85654  Biso   1.000  H
  H1260    1.0000 0.63799  0.98317  0.89483  Biso   1.000  H
  C1971    1.0000 0.67882  0.99422  0.87693  Biso   1.000  C
  H1261    1.0000 0.71946  0.02173  0.85894  Biso   1.000  H
  H1262    1.0000 0.01687  0.65485  0.89483  Biso   1.000  H
  C1972    1.0000 0.00580  0.68461  0.87693  Biso   1.000  C
  H1263    1.0000 0.97829  0.69774  0.85894  Biso   1.000  H
  C1973    1.0000 0.68224  0.94095  0.87762  Biso   1.000  C
  C1974    1.0000 0.05907  0.74133  0.87762  Biso   1.000  C
  H1264    1.0000 0.66526  0.92125  0.88623  Biso   1.000  H
  H1265    1.0000 0.66237  0.91705  0.86973  Biso   1.000  H
  H1266    1.0000 0.72129  0.95046  0.87733  Biso   1.000  H
  H1267    1.0000 0.07878  0.74404  0.88623  Biso   1.000  H
  H1268    1.0000 0.08295  0.74532  0.86973  Biso   1.000  H
  H1269    1.0000 0.04957  0.77084  0.87733  Biso   1.000  H
  O283     1.0000 0.43931  0.68033  0.14877  Biso   1.000  O
  C1975    1.0000 0.38501  0.67314  0.14862  Biso   1.000  C
  C1976    1.0000 0.45834  0.67239  0.13682  Biso   1.000  C
  C1977    1.0000 0.33990  0.62020  0.14863  Biso   1.000  C
  C1978    1.0000 0.37982  0.71968  0.14863  Biso   1.000  C
  N424     1.0000 0.50741  0.67480  0.13750  Biso   1.000  N
  N425     1.0000 0.42780  0.66400  0.12564  Biso   1.000  N
  C1979    1.0000 0.28814  0.61500  0.14862  Biso   1.000  C
  H1270    1.0000 0.34445  0.58849  0.14867  Biso   1.000  H
  C1980    1.0000 0.32686  0.71187  0.14862  Biso   1.000  C
  H1271    1.0000 0.41152  0.75596  0.14867  Biso   1.000  H
  C1981    1.0000 0.52394  0.66495  0.12542  Biso   1.000  C
  C1982    1.0000 0.45007  0.65664  0.11445  Biso   1.000  C
  O284     1.0000 0.24101  0.56069  0.14877  Biso   1.000  O
  C1983    1.0000 0.28029  0.66013  0.14863  Biso   1.000  C
  O285     1.0000 0.31968  0.75900  0.14877  Biso   1.000  O
  N426     1.0000 0.49648  0.65452  0.11348  Biso   1.000  N
  C1984    1.0000 0.57953  0.66873  0.12488  Biso   1.000  C
  O286     1.0000 0.42369  0.65016  0.10246  Biso   1.000  O
  C1985    1.0000 0.21406  0.54169  0.13682  Biso   1.000  C
  H1272    1.0000 0.24403  0.65556  0.14867  Biso   1.000  H
  C1986    1.0000 0.32763  0.78597  0.13682  Biso   1.000  C
  C1987    1.0000 0.59412  0.64883  0.11348  Biso   1.000  C
  C1988    1.0000 0.61798  0.69425  0.13543  Biso   1.000  C
  C1989    1.0000 0.37754  0.65855  0.10290  Biso   1.000  C
  N427     1.0000 0.16742  0.49262  0.13750  Biso   1.000  N
  N428     1.0000 0.23622  0.57220  0.12564  Biso   1.000  N
  N429     1.0000 0.32521  0.83259  0.13750  Biso   1.000  N
  N430     1.0000 0.33600  0.76377  0.12564  Biso   1.000  N
  H1273    1.0000 0.56865  0.63229  0.10607  Biso   1.000  H
  C1990    1.0000 0.64587  0.65315  0.11285  Biso   1.000  C
  C1991    1.0000 0.67078  0.70015  0.13409  Biso   1.000  C
  H1274    1.0000 0.60854  0.70746  0.14346  Biso   1.000  H
  C1992    1.0000 0.32509  0.61305  0.10280  Biso   1.000  C
  C1993    1.0000 0.38693  0.71204  0.10280  Biso   1.000  C
  C1994    1.0000 0.14099  0.47603  0.12542  Biso   1.000  C
  C1995    1.0000 0.20660  0.54996  0.11445  Biso   1.000  C
  C1996    1.0000 0.33504  0.85902  0.12542  Biso   1.000  C
  C1997    1.0000 0.34337  0.79340  0.11445  Biso   1.000  C
  H1275    1.0000 0.65484  0.63798  0.10517  Biso   1.000  H
  C1998    1.0000 0.68461  0.67879  0.12307  Biso   1.000  C
  H1276    1.0000 0.69775  0.71947  0.14106  Biso   1.000  H
  C1999    1.0000 0.28101  0.62248  0.10290  Biso   1.000  C
  H1277    1.0000 0.31942  0.57635  0.10267  Biso   1.000  H
  C2000    1.0000 0.34148  0.71902  0.10290  Biso   1.000  C
  H1278    1.0000 0.42365  0.74308  0.10267  Biso   1.000  H
  N431     1.0000 0.15806  0.50355  0.11348  Biso   1.000  N
  C2001    1.0000 0.08920  0.42047  0.12488  Biso   1.000  C
  O287     1.0000 0.22647  0.57631  0.10246  Biso   1.000  O
  N432     1.0000 0.34547  0.84194  0.11348  Biso   1.000  N
  C2002    1.0000 0.33124  0.91080  0.12488  Biso   1.000  C
  O288     1.0000 0.34985  0.77354  0.10246  Biso   1.000  O
  C2003    1.0000 0.74132  0.68224  0.12238  Biso   1.000  C
  C2004    1.0000 0.28798  0.67493  0.10280  Biso   1.000  C
  C2005    1.0000 0.05470  0.40589  0.11348  Biso   1.000  C
  C2006    1.0000 0.07625  0.38203  0.13543  Biso   1.000  C
  C2007    1.0000 0.35118  0.94530  0.11348  Biso   1.000  C
  C2008    1.0000 0.30576  0.92377  0.13543  Biso   1.000  C
  H1279    1.0000 0.74404  0.66528  0.11377  Biso   1.000  H
  H1280    1.0000 0.74535  0.66238  0.13027  Biso   1.000  H
  H1281    1.0000 0.77084  0.72126  0.12267  Biso   1.000  H
  H1282    1.0000 0.25694  0.68058  0.10267  Biso   1.000  H
  H1283    1.0000 0.06363  0.43136  0.10607  Biso   1.000  H
  C2009    1.0000 0.00728  0.35415  0.11285  Biso   1.000  C
  C2010    1.0000 0.02936  0.32921  0.13409  Biso   1.000  C
  H1284    1.0000 0.09892  0.39147  0.14346  Biso   1.000  H
  H1285    1.0000 0.36773  0.93636  0.10607  Biso   1.000  H
  C2011    1.0000 0.34688  0.99275  0.11285  Biso   1.000  C
  C2012    1.0000 0.29987  0.97064  0.13409  Biso   1.000  C
  H1286    1.0000 0.29255  0.90108  0.14346  Biso   1.000  H
  H1287    1.0000 0.98314  0.34517  0.10517  Biso   1.000  H
  C2013    1.0000 0.99419  0.31538  0.12307  Biso   1.000  C
  H1288    1.0000 0.02172  0.30229  0.14106  Biso   1.000  H
  H1289    1.0000 0.36202  0.01686  0.10517  Biso   1.000  H
  C2014    1.0000 0.32119  0.00580  0.12307  Biso   1.000  C
  H1290    1.0000 0.28055  0.97829  0.14106  Biso   1.000  H
  C2015    1.0000 0.94094  0.25869  0.12238  Biso   1.000  C
  C2016    1.0000 0.31778  0.05908  0.12238  Biso   1.000  C
  H1291    1.0000 0.92122  0.25595  0.11377  Biso   1.000  H
  H1292    1.0000 0.91704  0.25466  0.13027  Biso   1.000  H
  H1293    1.0000 0.95045  0.22919  0.12267  Biso   1.000  H
  H1294    1.0000 0.33473  0.07873  0.11377  Biso   1.000  H
  H1295    1.0000 0.33762  0.08293  0.13027  Biso   1.000  H
  H1296    1.0000 0.27872  0.04956  0.12267  Biso   1.000  H
  O289     1.0000 0.09966  0.09899  0.14455  Biso   1.000  O
  C2017    1.0000 0.11894  0.12430  0.13230  Biso   1.000  C
  C2018    1.0000 0.04922  0.04891  0.14447  Biso   1.000  C
  N433     1.0000 0.16807  0.17051  0.13308  Biso   1.000  N
  N434     1.0000 0.08891  0.10132  0.12115  Biso   1.000  N
  C2019    1.0000 0.05035  0.00008  0.14462  Biso   1.000  C
  C2020    1.0000 0.99991  0.05028  0.14462  Biso   1.000  C
  C2021    1.0000 0.18655  0.19602  0.12073  Biso   1.000  C
  C2022    1.0000 0.11194  0.13045  0.10986  Biso   1.000  C
  H1297    1.0000 0.08454  0.00008  0.14477  Biso   1.000  H
  C2023    1.0000 0.99969  0.95080  0.14447  Biso   1.000  C
  C2024    1.0000 0.95111  0.00033  0.14447  Biso   1.000  C
  H1298    1.0000 0.99996  0.08449  0.14477  Biso   1.000  H
  N435     1.0000 0.15852  0.17791  0.10882  Biso   1.000  N
  C2025    1.0000 0.24258  0.24411  0.12019  Biso   1.000  C
  O290     1.0000 0.08567  0.10929  0.09784  Biso   1.000  O
  O291     1.0000 0.99933  0.90035  0.14455  Biso   1.000  O
  C2026    1.0000 0.94973  0.94963  0.14462  Biso   1.000  C
  O292     1.0000 0.90100  0.00066  0.14455  Biso   1.000  O
  C2027    1.0000 0.25684  0.28429  0.11012  Biso   1.000  C
  C2028    1.0000 0.28338  0.24747  0.12915  Biso   1.000  C
  C2029    1.0000 0.04178  0.05340  0.09835  Biso   1.000  C
  C2030    1.0000 0.00537  0.88111  0.13230  Biso   1.000  C
  H1299    1.0000 0.91556  0.91547  0.14477  Biso   1.000  H
  C2031    1.0000 0.87571  0.99464  0.13230  Biso   1.000  C
  H1300    1.0000 0.22965  0.28259  0.10397  Biso   1.000  H
  C2032    1.0000 0.31226  0.32768  0.10923  Biso   1.000  C
  C2033    1.0000 0.33762  0.28965  0.12780  Biso   1.000  C
  H1301    1.0000 0.27365  0.22058  0.13627  Biso   1.000  H
  C2034    1.0000 0.05462  0.01143  0.09825  Biso   1.000  C
  C2035    1.0000 0.98861  0.04322  0.09825  Biso   1.000  C
  N436     1.0000 0.00245  0.83194  0.13308  Biso   1.000  N
  N437     1.0000 0.01238  0.91111  0.12115  Biso   1.000  N
  N438     1.0000 0.82950  0.99759  0.13308  Biso   1.000  N
  N439     1.0000 0.89871  0.98766  0.12115  Biso   1.000  N
  H1302    1.0000 0.32192  0.35585  0.10246  Biso   1.000  H
  C2036    1.0000 0.35306  0.33054  0.11783  Biso   1.000  C
  H1303    1.0000 0.36514  0.29077  0.13387  Biso   1.000  H
  H1304    1.0000 0.09214  0.01945  0.09817  Biso   1.000  H
  C2037    1.0000 0.01164  0.95828  0.09835  Biso   1.000  C
  C2038    1.0000 0.94662  0.98841  0.09835  Biso   1.000  C
  H1305    1.0000 0.98056  0.07268  0.09817  Biso   1.000  H
  C2039    1.0000 0.00944  0.81345  0.12073  Biso   1.000  C
  C2040    1.0000 0.01851  0.88809  0.10986  Biso   1.000  C
  C2041    1.0000 0.80400  0.99057  0.12073  Biso   1.000  C
  C2042    1.0000 0.86954  0.98151  0.10986  Biso   1.000  C
  C2043    1.0000 0.41338  0.37588  0.11651  Biso   1.000  C
  C2044    1.0000 0.95679  0.94539  0.09825  Biso   1.000  C
  O293     1.0000 0.02361  0.91435  0.09784  Biso   1.000  O
  O294     1.0000 0.89070  0.97640  0.09784  Biso   1.000  O
  N440     1.0000 0.01940  0.84150  0.10882  Biso   1.000  N
  C2045    1.0000 0.00155  0.75743  0.12019  Biso   1.000  C
  N441     1.0000 0.82210  0.98063  0.10882  Biso   1.000  N
  C2046    1.0000 0.75593  0.99850  0.12019  Biso   1.000  C
  H1306    1.0000 0.41694  0.40115  0.10906  Biso   1.000  H
  H1307    1.0000 0.42574  0.39658  0.12517  Biso   1.000  H
  H1308    1.0000 0.43631  0.35905  0.11447  Biso   1.000  H
  H1309    1.0000 0.92734  0.90787  0.09817  Biso   1.000  H
  C2047    1.0000 0.96411  0.71666  0.12915  Biso   1.000  C
  C2048    1.0000 0.02746  0.74318  0.11012  Biso   1.000  C
  C2049    1.0000 0.71572  0.97257  0.11012  Biso   1.000  C
  C2050    1.0000 0.75253  0.03591  0.12915  Biso   1.000  C
  C2051    1.0000 0.95205  0.66239  0.12780  Biso   1.000  C
  H1310    1.0000 0.94694  0.72639  0.13627  Biso   1.000  H
  H1311    1.0000 0.05295  0.77040  0.10397  Biso   1.000  H
  C2052    1.0000 0.01545  0.68778  0.10923  Biso   1.000  C
  H1312    1.0000 0.71745  0.94710  0.10397  Biso   1.000  H
  C2053    1.0000 0.67231  0.98458  0.10923  Biso   1.000  C
  C2054    1.0000 0.71033  0.04796  0.12780  Biso   1.000  C
  H1313    1.0000 0.77943  0.05307  0.13627  Biso   1.000  H
  C2055    1.0000 0.97749  0.64697  0.11783  Biso   1.000  C
  H1314    1.0000 0.92566  0.63488  0.13387  Biso   1.000  H
  H1315    1.0000 0.03393  0.67810  0.10246  Biso   1.000  H
  H1316    1.0000 0.64413  0.96609  0.10246  Biso   1.000  H
  C2056    1.0000 0.66947  0.02252  0.11783  Biso   1.000  C
  H1317    1.0000 0.70926  0.07439  0.13387  Biso   1.000  H
  C2057    1.0000 0.96250  0.58663  0.11651  Biso   1.000  C
  C2058    1.0000 0.62414  0.03753  0.11651  Biso   1.000  C
  H1318    1.0000 0.98427  0.58310  0.10906  Biso   1.000  H
  H1319    1.0000 0.97084  0.57429  0.12517  Biso   1.000  H
  H1320    1.0000 0.92275  0.56369  0.11447  Biso   1.000  H
  H1321    1.0000 0.59882  0.01575  0.10906  Biso   1.000  H
  H1322    1.0000 0.60344  0.02917  0.12517  Biso   1.000  H
  H1323    1.0000 0.64094  0.07725  0.11447  Biso   1.000  H
  C2059    1.0000 0.05027  0.05037  0.85538  Biso   1.000  C
  C2060    1.0000 0.00033  0.04924  0.85553  Biso   1.000  C
  H1324    1.0000 0.08448  0.08453  0.85523  Biso   1.000  H
  C2061    1.0000 0.04894  0.99971  0.85553  Biso   1.000  C
  O295     1.0000 0.00069  0.09970  0.85545  Biso   1.000  O
  C2062    1.0000 0.94965  0.99992  0.85538  Biso   1.000  C
  O296     1.0000 0.09900  0.99934  0.85545  Biso   1.000  O
  C2063    1.0000 0.00011  0.94976  0.85538  Biso   1.000  C
  C2064    1.0000 0.99465  0.11894  0.86770  Biso   1.000  C
  C2065    1.0000 0.95078  0.95109  0.85553  Biso   1.000  C
  H1325    1.0000 0.91548  0.99996  0.85523  Biso   1.000  H
  C2066    1.0000 0.12429  0.00536  0.86770  Biso   1.000  C
  H1326    1.0000 0.00007  0.91556  0.85523  Biso   1.000  H
  N442     1.0000 0.99757  0.16810  0.86692  Biso   1.000  N
  N443     1.0000 0.98764  0.08893  0.87885  Biso   1.000  N
  O297     1.0000 0.90034  0.90101  0.85545  Biso   1.000  O
  N444     1.0000 0.17052  0.00245  0.86692  Biso   1.000  N
  N445     1.0000 0.10131  0.01238  0.87885  Biso   1.000  N
  C2067    1.0000 0.99056  0.18655  0.87927  Biso   1.000  C
  C2068    1.0000 0.98152  0.11195  0.89014  Biso   1.000  C
  C2069    1.0000 0.88108  0.87574  0.86770  Biso   1.000  C
  C2070    1.0000 0.19600  0.00943  0.87927  Biso   1.000  C
  C2071    1.0000 0.13046  0.01849  0.89014  Biso   1.000  C
  N446     1.0000 0.98062  0.15854  0.89118  Biso   1.000  N
  C2072    1.0000 0.99845  0.24257  0.87981  Biso   1.000  C
  O298     1.0000 0.97641  0.08569  0.90216  Biso   1.000  O
  N447     1.0000 0.83193  0.82949  0.86692  Biso   1.000  N
  N448     1.0000 0.91111  0.89873  0.87885  Biso   1.000  N
  N449     1.0000 0.17790  0.01937  0.89118  Biso   1.000  N
  C2073    1.0000 0.24409  0.00154  0.87981  Biso   1.000  C
  O299     1.0000 0.10930  0.02360  0.90216  Biso   1.000  O
  C2074    1.0000 0.03592  0.28338  0.87085  Biso   1.000  C
  C2075    1.0000 0.97254  0.25682  0.88988  Biso   1.000  C
  C2076    1.0000 0.98838  0.04176  0.90165  Biso   1.000  C
  C2077    1.0000 0.81347  0.80402  0.87927  Biso   1.000  C
  C2078    1.0000 0.88806  0.86955  0.89014  Biso   1.000  C
  C2079    1.0000 0.28430  0.02747  0.88988  Biso   1.000  C
  C2080    1.0000 0.24749  0.96414  0.87085  Biso   1.000  C
  C2081    1.0000 0.05340  0.01164  0.90165  Biso   1.000  C
  C2082    1.0000 0.04797  0.33765  0.87220  Biso   1.000  C
  H1327    1.0000 0.05308  0.27365  0.86373  Biso   1.000  H
  H1328    1.0000 0.94708  0.22964  0.89603  Biso   1.000  H
  C2083    1.0000 0.98457  0.31226  0.89077  Biso   1.000  C
  C2084    1.0000 0.04323  0.05465  0.90175  Biso   1.000  C
  C2085    1.0000 0.94540  0.98861  0.90175  Biso   1.000  C
  N450     1.0000 0.84148  0.82209  0.89118  Biso   1.000  N
  C2086    1.0000 0.75742  0.75589  0.87981  Biso   1.000  C
  O300     1.0000 0.91433  0.89071  0.90216  Biso   1.000  O
  H1329    1.0000 0.28257  0.05294  0.89603  Biso   1.000  H
  C2087    1.0000 0.32769  0.01542  0.89077  Biso   1.000  C
  C2088    1.0000 0.28967  0.95204  0.87220  Biso   1.000  C
  H1330    1.0000 0.22059  0.94697  0.86373  Biso   1.000  H
  C2089    1.0000 0.01145  0.95682  0.90175  Biso   1.000  C
  C2090    1.0000 0.02254  0.35307  0.88217  Biso   1.000  C
  H1331    1.0000 0.07438  0.36512  0.86613  Biso   1.000  H
  H1332    1.0000 0.96609  0.32194  0.89754  Biso   1.000  H
  H1333    1.0000 0.07266  0.09213  0.90183  Biso   1.000  H
  H1334    1.0000 0.90790  0.98055  0.90183  Biso   1.000  H
  C2091    1.0000 0.95824  0.94664  0.90165  Biso   1.000  C
  C2092    1.0000 0.74318  0.71575  0.88988  Biso   1.000  C
  C2093    1.0000 0.71667  0.75257  0.87085  Biso   1.000  C
  H1335    1.0000 0.35589  0.03395  0.89754  Biso   1.000  H
  C2094    1.0000 0.33053  0.97748  0.88217  Biso   1.000  C
  H1336    1.0000 0.29076  0.92565  0.86613  Biso   1.000  H
  H1337    1.0000 0.01946  0.92736  0.90183  Biso   1.000  H
  C2095    1.0000 0.03750  0.41337  0.88349  Biso   1.000  C
  H1338    1.0000 0.77037  0.71745  0.89603  Biso   1.000  H
  C2096    1.0000 0.68774  0.67232  0.89077  Biso   1.000  C
  C2097    1.0000 0.66238  0.71035  0.87220  Biso   1.000  C
  H1339    1.0000 0.72637  0.77946  0.86373  Biso   1.000  H
  C2098    1.0000 0.37588  0.96252  0.88349  Biso   1.000  C
  H1340    1.0000 0.01578  0.41694  0.89094  Biso   1.000  H
  H1341    1.0000 0.02919  0.42575  0.87483  Biso   1.000  H
  H1342    1.0000 0.07728  0.43635  0.88553  Biso   1.000  H
  H1343    1.0000 0.67808  0.64415  0.89754  Biso   1.000  H
  C2099    1.0000 0.64696  0.66950  0.88217  Biso   1.000  C
  H1344    1.0000 0.63488  0.70927  0.86613  Biso   1.000  H
  H1345    1.0000 0.40118  0.98425  0.89094  Biso   1.000  H
  H1346    1.0000 0.39658  0.97087  0.87483  Biso   1.000  H
  H1347    1.0000 0.35906  0.92275  0.88553  Biso   1.000  H
  C2100    1.0000 0.58664  0.62416  0.88349  Biso   1.000  C
  H1348    1.0000 0.58309  0.59885  0.89094  Biso   1.000  H
  H1349    1.0000 0.57428  0.60346  0.87483  Biso   1.000  H
  H1350    1.0000 0.56369  0.64095  0.88553  Biso   1.000  H
  C2101    1.0000 0.54803  0.43926  0.92034  Biso   1.000  C
  C2102    1.0000 0.51961  0.39300  0.93076  Biso   1.000  C
  H1351    1.0000 0.53028  0.42629  0.91130  Biso   1.000  H
  H1352    1.0000 0.58739  0.45010  0.91970  Biso   1.000  H
  H1353    1.0000 0.54490  0.47130  0.92320  Biso   1.000  H
  C2103    1.0000 0.53728  0.40148  0.94434  Biso   1.000  C
  C2104    1.0000 0.47604  0.34214  0.92714  Biso   1.000  C
  C2105    1.0000 0.51278  0.35926  0.95392  Biso   1.000  C
  H1354    1.0000 0.56671  0.43680  0.94710  Biso   1.000  H
  H1355    1.0000 0.46331  0.33582  0.91790  Biso   1.000  H
  C2106    1.0000 0.45002  0.29967  0.93670  Biso   1.000  C
  C2107    1.0000 0.46867  0.30810  0.95013  Biso   1.000  C
  H1356    1.0000 0.52620  0.36529  0.96310  Biso   1.000  H
  H1357    1.0000 0.41949  0.26488  0.93400  Biso   1.000  H
  C2108    1.0000 0.44054  0.26364  0.96061  Biso   1.000  C
  N451     1.0000 0.39096  0.21963  0.95705  Biso   1.000  N
  N452     1.0000 0.46571  0.27116  0.97276  Biso   1.000  N
  C2109    1.0000 0.36700  0.18422  0.96745  Biso   1.000  C
  C2110    1.0000 0.43689  0.23043  0.98155  Biso   1.000  C
  O301     1.0000 0.31584  0.14121  0.96450  Biso   1.000  O
  N453     1.0000 0.38709  0.18655  0.97992  Biso   1.000  N
  O302     1.0000 0.46283  0.23646  0.99368  Biso   1.000  O
  C2111    1.0000 0.28790  0.10398  0.97546  Biso   1.000  C
  C2112    1.0000 0.43600  0.19195  0.00299  Biso   1.000  C
  C2113    1.0000 0.25853  0.11657  0.98467  Biso   1.000  C
  C2114    1.0000 0.28859  0.05490  0.97587  Biso   1.000  C
  C2115    1.0000 0.40495  0.19636  0.01336  Biso   1.000  C
  C2116    1.0000 0.44279  0.14607  0.00136  Biso   1.000  C
  C2117    1.0000 0.22964  0.07838  0.99493  Biso   1.000  C
  H1358    1.0000 0.25799  0.15039  0.98400  Biso   1.000  H
  C2118    1.0000 0.25865  0.01812  0.98628  Biso   1.000  C
  H1359    1.0000 0.30869  0.04659  0.96930  Biso   1.000  H
  C2119    1.0000 0.38084  0.15289  0.02251  Biso   1.000  C
  H1360    1.0000 0.40032  0.22790  0.01419  Biso   1.000  H
  H1361    1.0000 0.46371  0.14350  0.99400  Biso   1.000  H
  C2120    1.0000 0.41781  0.10460  0.01098  Biso   1.000  C
  C2121    1.0000 0.22856  0.02834  0.99582  Biso   1.000  C
  O303     1.0000 0.19999  0.09134  0.00449  Biso   1.000  O
  O304     1.0000 0.25853  0.96721  0.98676  Biso   1.000  O
  O305     1.0000 0.34946  0.15642  0.03351  Biso   1.000  O
  C2122    1.0000 0.38701  0.10713  0.02175  Biso   1.000  C
  O306     1.0000 0.42489  0.05781  0.00966  Biso   1.000  O
  H1362    1.0000 0.20779  0.00199  0.00280  Biso   1.000  H
  C2123    1.0000 0.22594  0.11416  0.01642  Biso   1.000  C
  C2124    1.0000 0.30513  0.96987  0.99197  Biso   1.000  C
  C2125    1.0000 0.29685  0.14441  0.03046  Biso   1.000  C
  H1363    1.0000 0.37071  0.07821  0.02840  Biso   1.000  H
  C2126    1.0000 0.38455  0.01355  0.00279  Biso   1.000  C
  N454     1.0000 0.19579  0.12534  0.02507  Biso   1.000  N
  N455     1.0000 0.27696  0.12334  0.01820  Biso   1.000  N
  N456     1.0000 0.34157  0.01633  0.99811  Biso   1.000  N
  N457     1.0000 0.30769  0.92395  0.99005  Biso   1.000  N
  N458     1.0000 0.27278  0.15638  0.04044  Biso   1.000  N
  N459     1.0000 0.39475  0.97203  0.00182  Biso   1.000  N
  C2127    1.0000 0.22184  0.14757  0.03695  Biso   1.000  C
  C2128    1.0000 0.35493  0.92773  0.99510  Biso   1.000  C
  C2129    1.0000 0.19437  0.16619  0.04686  Biso   1.000  C
  C2130    1.0000 0.36519  0.88160  0.99247  Biso   1.000  C
  C2131    1.0000 0.21363  0.17965  0.06030  Biso   1.000  C
  C2132    1.0000 0.15191  0.17512  0.04261  Biso   1.000  C
  C2133    1.0000 0.33857  0.84420  0.98180  Biso   1.000  C
  C2134    1.0000 0.40350  0.87574  0.00046  Biso   1.000  C
  H1364    1.0000 0.24280  0.17379  0.06340  Biso   1.000  H
  C2135    1.0000 0.19100  0.20147  0.06925  Biso   1.000  C
  C2136    1.0000 0.13028  0.19873  0.05144  Biso   1.000  C
  H1365    1.0000 0.13740  0.16490  0.03360  Biso   1.000  H
  H1366    1.0000 0.31192  0.84711  0.97630  Biso   1.000  H
  C2137    1.0000 0.35093  0.80285  0.97922  Biso   1.000  C
  C2138    1.0000 0.41504  0.83390  0.99769  Biso   1.000  C
  H1367    1.0000 0.42182  0.90072  0.00790  Biso   1.000  H
  H1368    1.0000 0.20368  0.20899  0.07850  Biso   1.000  H
  C2139    1.0000 0.14993  0.21248  0.06499  Biso   1.000  C
  H1369    1.0000 0.10189  0.20558  0.04830  Biso   1.000  H
  H1370    1.0000 0.33261  0.77750  0.97190  Biso   1.000  H
  C2140    1.0000 0.38976  0.79745  0.98713  Biso   1.000  C
  H1371    1.0000 0.44119  0.83041  0.00330  Biso   1.000  H
  C2141    1.0000 0.12647  0.23833  0.07449  Biso   1.000  C
  C2142    1.0000 0.40470  0.75290  0.98406  Biso   1.000  C
  H1372    1.0000 0.09789  0.24248  0.06960  Biso   1.000  H
  H1373    1.0000 0.15620  0.27490  0.07750  Biso   1.000  H
  H1374    1.0000 0.10990  0.21439  0.08250  Biso   1.000  H
  H1375    1.0000 0.43289  0.75602  0.99060  Biso   1.000  H
  H1376    1.0000 0.41939  0.75781  0.97470  Biso   1.000  H
  H1377    1.0000 0.37141  0.71612  0.98490  Biso   1.000  H
  C2143    1.0000 0.45198  0.56077  0.07966  Biso   1.000  C
  C2144    1.0000 0.48038  0.60698  0.06924  Biso   1.000  C
  H1378    1.0000 0.46971  0.57369  0.08870  Biso   1.000  H
  H1379    1.0000 0.41262  0.54992  0.08030  Biso   1.000  H
  H1380    1.0000 0.45509  0.52869  0.07680  Biso   1.000  H
  C2145    1.0000 0.46274  0.59854  0.05566  Biso   1.000  C
  C2146    1.0000 0.52401  0.65789  0.07286  Biso   1.000  C
  C2147    1.0000 0.48721  0.64072  0.04608  Biso   1.000  C
  H1381    1.0000 0.43331  0.56322  0.05290  Biso   1.000  H
  H1382    1.0000 0.53670  0.66420  0.08210  Biso   1.000  H
  C2148    1.0000 0.54997  0.70032  0.06330  Biso   1.000  C
  C2149    1.0000 0.53138  0.69192  0.04987  Biso   1.000  C
  H1383    1.0000 0.47380  0.63470  0.03690  Biso   1.000  H
  H1384    1.0000 0.58050  0.73510  0.06600  Biso   1.000  H
  C2150    1.0000 0.55946  0.73635  0.03939  Biso   1.000  C
  N460     1.0000 0.60903  0.78036  0.04295  Biso   1.000  N
  N461     1.0000 0.53432  0.72883  0.02724  Biso   1.000  N
  C2151    1.0000 0.63303  0.81576  0.03255  Biso   1.000  C
  C2152    1.0000 0.56310  0.76955  0.01845  Biso   1.000  C
  O307     1.0000 0.68421  0.85882  0.03550  Biso   1.000  O
  N462     1.0000 0.61292  0.81348  0.02008  Biso   1.000  N
  O308     1.0000 0.53719  0.76357  0.00632  Biso   1.000  O
  C2153    1.0000 0.71209  0.89601  0.02454  Biso   1.000  C
  C2154    1.0000 0.56401  0.80807  0.99701  Biso   1.000  C
  C2155    1.0000 0.74146  0.88342  0.01533  Biso   1.000  C
  C2156    1.0000 0.71141  0.94509  0.02413  Biso   1.000  C
  C2157    1.0000 0.59508  0.80363  0.98664  Biso   1.000  C
  C2158    1.0000 0.55720  0.85391  0.99864  Biso   1.000  C
  C2159    1.0000 0.77035  0.92161  0.00507  Biso   1.000  C
  H1385    1.0000 0.74200  0.84959  0.01600  Biso   1.000  H
  C2160    1.0000 0.74135  0.98187  0.01372  Biso   1.000  C
  H1386    1.0000 0.69130  0.95340  0.03070  Biso   1.000  H
  C2161    1.0000 0.61921  0.84714  0.97749  Biso   1.000  C
  H1387    1.0000 0.59971  0.77209  0.98581  Biso   1.000  H
  H1388    1.0000 0.53628  0.85649  0.00600  Biso   1.000  H
  C2162    1.0000 0.58221  0.89543  0.98902  Biso   1.000  C
  C2163    1.0000 0.77145  0.97168  0.00418  Biso   1.000  C
  O309     1.0000 0.80002  0.90868  0.99551  Biso   1.000  O
  O310     1.0000 0.74148  0.03281  0.01324  Biso   1.000  O
  O311     1.0000 0.65055  0.84361  0.96649  Biso   1.000  O
  C2164    1.0000 0.61300  0.89289  0.97825  Biso   1.000  C
  O312     1.0000 0.57510  0.94218  0.99034  Biso   1.000  O
  H1389    1.0000 0.79220  0.99799  0.99720  Biso   1.000  H
  C2165    1.0000 0.77407  0.88587  0.98358  Biso   1.000  C
  C2166    1.0000 0.69488  0.03015  0.00803  Biso   1.000  C
  C2167    1.0000 0.70314  0.85557  0.96954  Biso   1.000  C
  H1390    1.0000 0.62930  0.92182  0.97160  Biso   1.000  H
  C2168    1.0000 0.61546  0.98648  0.99721  Biso   1.000  C
  N463     1.0000 0.80422  0.87469  0.97493  Biso   1.000  N
  N464     1.0000 0.72305  0.87668  0.98180  Biso   1.000  N
  N465     1.0000 0.65842  0.98365  0.00189  Biso   1.000  N
  N466     1.0000 0.69232  0.07607  0.00995  Biso   1.000  N
  N467     1.0000 0.72721  0.84361  0.95956  Biso   1.000  N
  N468     1.0000 0.60527  0.02799  0.99818  Biso   1.000  N
  C2169    1.0000 0.77815  0.85242  0.96305  Biso   1.000  C
  C2170    1.0000 0.64507  0.07225  0.00490  Biso   1.000  C
  C2171    1.0000 0.80562  0.83380  0.95314  Biso   1.000  C
  C2172    1.0000 0.63480  0.11838  0.00753  Biso   1.000  C
  C2173    1.0000 0.78638  0.82038  0.93970  Biso   1.000  C
  C2174    1.0000 0.84810  0.82490  0.95739  Biso   1.000  C
  C2175    1.0000 0.59649  0.12424  0.99954  Biso   1.000  C
  C2176    1.0000 0.66144  0.15582  0.01820  Biso   1.000  C
  H1391    1.0000 0.75719  0.82619  0.93660  Biso   1.000  H
  C2177    1.0000 0.80905  0.79856  0.93075  Biso   1.000  C
  C2178    1.0000 0.86974  0.80130  0.94856  Biso   1.000  C
  H1392    1.0000 0.86259  0.83509  0.96640  Biso   1.000  H
  H1393    1.0000 0.57819  0.09931  0.99210  Biso   1.000  H
  C2179    1.0000 0.58495  0.16609  0.00231  Biso   1.000  C
  H1394    1.0000 0.68807  0.15287  0.02370  Biso   1.000  H
  C2180    1.0000 0.64906  0.19713  0.02078  Biso   1.000  C
  H1395    1.0000 0.79631  0.79099  0.92150  Biso   1.000  H
  C2181    1.0000 0.85008  0.78755  0.93501  Biso   1.000  C
  H1396    1.0000 0.89810  0.79440  0.95170  Biso   1.000  H
  H1397    1.0000 0.55880  0.16958  0.99670  Biso   1.000  H
  C2182    1.0000 0.61023  0.20253  0.01287  Biso   1.000  C
  H1398    1.0000 0.66738  0.22248  0.02810  Biso   1.000  H
  C2183    1.0000 0.87358  0.76170  0.92551  Biso   1.000  C
  C2184    1.0000 0.59531  0.24712  0.01594  Biso   1.000  C
  H1399    1.0000 0.90211  0.75750  0.93040  Biso   1.000  H
  H1400    1.0000 0.84379  0.72509  0.92250  Biso   1.000  H
  H1401    1.0000 0.89010  0.78559  0.91750  Biso   1.000  H
  H1402    1.0000 0.56712  0.24401  0.00940  Biso   1.000  H
  H1403    1.0000 0.58060  0.24218  0.02530  Biso   1.000  H
  H1404    1.0000 0.62860  0.28390  0.01510  Biso   1.000  H
  C2185    1.0000 0.10878  0.54801  0.07966  Biso   1.000  C
  C2186    1.0000 0.12662  0.51963  0.06924  Biso   1.000  C
  H1405    1.0000 0.10399  0.53031  0.08870  Biso   1.000  H
  H1406    1.0000 0.13729  0.58741  0.08030  Biso   1.000  H
  H1407    1.0000 0.07361  0.54489  0.07680  Biso   1.000  H
  C2187    1.0000 0.13390  0.47603  0.07286  Biso   1.000  C
  C2188    1.0000 0.13581  0.53729  0.05566  Biso   1.000  C
  H1408    1.0000 0.12751  0.46332  0.08210  Biso   1.000  H
  C2189    1.0000 0.15033  0.45002  0.06330  Biso   1.000  C
  C2190    1.0000 0.15349  0.51277  0.04608  Biso   1.000  C
  H1409    1.0000 0.12990  0.56671  0.05290  Biso   1.000  H
  C2191    1.0000 0.16054  0.46864  0.04987  Biso   1.000  C
  H1410    1.0000 0.15462  0.41952  0.06600  Biso   1.000  H
  H1411    1.0000 0.16089  0.52619  0.03690  Biso   1.000  H
  C2192    1.0000 0.17691  0.44054  0.03939  Biso   1.000  C
  N469     1.0000 0.17133  0.39097  0.04295  Biso   1.000  N
  N470     1.0000 0.19451  0.46569  0.02724  Biso   1.000  N
  C2193    1.0000 0.18274  0.36699  0.03255  Biso   1.000  C
  C2194    1.0000 0.20646  0.43689  0.01845  Biso   1.000  C
  O313     1.0000 0.17462  0.31583  0.03550  Biso   1.000  O
  N471     1.0000 0.20055  0.38706  0.02008  Biso   1.000  N
  O314     1.0000 0.22637  0.46282  0.00632  Biso   1.000  O
  C2195    1.0000 0.18390  0.28791  0.02454  Biso   1.000  C
  C2196    1.0000 0.24404  0.43597  0.99701  Biso   1.000  C
  C2197    1.0000 0.14197  0.25853  0.01533  Biso   1.000  C
  C2198    1.0000 0.23368  0.28857  0.02413  Biso   1.000  C
  C2199    1.0000 0.20855  0.40493  0.98664  Biso   1.000  C
  C2200    1.0000 0.29668  0.44279  0.99864  Biso   1.000  C
  C2201    1.0000 0.15128  0.22964  0.00507  Biso   1.000  C
  H1412    1.0000 0.10758  0.25799  0.01600  Biso   1.000  H
  C2202    1.0000 0.24053  0.25865  0.01372  Biso   1.000  C
  H1413    1.0000 0.26209  0.30868  0.03070  Biso   1.000  H
  C2203    1.0000 0.22795  0.38083  0.97749  Biso   1.000  C
  H1414    1.0000 0.17241  0.40032  0.98581  Biso   1.000  H
  H1415    1.0000 0.32020  0.46369  0.00600  Biso   1.000  H
  C2204    1.0000 0.31320  0.41781  0.98902  Biso   1.000  C
  C2205    1.0000 0.20022  0.22856  0.00418  Biso   1.000  C
  O315     1.0000 0.10862  0.19997  0.99551  Biso   1.000  O
  O316     1.0000 0.29132  0.25853  0.01324  Biso   1.000  O
  O317     1.0000 0.19304  0.34945  0.96649  Biso   1.000  O
  C2206    1.0000 0.27988  0.38702  0.97825  Biso   1.000  C
  O318     1.0000 0.36709  0.42488  0.99034  Biso   1.000  O
  H1416    1.0000 0.20578  0.20778  0.99720  Biso   1.000  H
  C2207    1.0000 0.11178  0.22594  0.98358  Biso   1.000  C
  C2208    1.0000 0.33527  0.30511  0.00803  Biso   1.000  C
  C2209    1.0000 0.15247  0.29688  0.96954  Biso   1.000  C
  H1417    1.0000 0.29248  0.37069  0.97160  Biso   1.000  H
  C2210    1.0000 0.37099  0.38453  0.99721  Biso   1.000  C
  N472     1.0000 0.07046  0.19577  0.97493  Biso   1.000  N
  N473     1.0000 0.15364  0.27698  0.98180  Biso   1.000  N
  N474     1.0000 0.38378  0.30769  0.00995  Biso   1.000  N
  N475     1.0000 0.32523  0.34160  0.00189  Biso   1.000  N
  N476     1.0000 0.11638  0.27278  0.95956  Biso   1.000  N
  N477     1.0000 0.42274  0.39475  0.99818  Biso   1.000  N
  C2211    1.0000 0.07424  0.22183  0.96305  Biso   1.000  C
  C2212    1.0000 0.42720  0.35494  0.00490  Biso   1.000  C
  C2213    1.0000 0.02821  0.19440  0.95314  Biso   1.000  C
  C2214    1.0000 0.48360  0.36516  0.00753  Biso   1.000  C
  C2215    1.0000 0.97679  0.15189  0.95739  Biso   1.000  C
  C2216    1.0000 0.03398  0.21364  0.93970  Biso   1.000  C
  C2217    1.0000 0.49437  0.33856  0.01820  Biso   1.000  C
  C2218    1.0000 0.52777  0.40348  0.99954  Biso   1.000  C
  C2219    1.0000 0.93158  0.13028  0.94856  Biso   1.000  C
  H1418    1.0000 0.97249  0.13739  0.96640  Biso   1.000  H
  C2220    1.0000 0.98952  0.19095  0.93075  Biso   1.000  C
  H1419    1.0000 0.06901  0.24282  0.93660  Biso   1.000  H
  H1420    1.0000 0.46480  0.31188  0.02370  Biso   1.000  H
  C2221    1.0000 0.54805  0.35091  0.02078  Biso   1.000  C
  C2222    1.0000 0.58118  0.41507  0.00231  Biso   1.000  C
  H1421    1.0000 0.52109  0.42180  0.99210  Biso   1.000  H
  C2223    1.0000 0.93745  0.14994  0.93501  Biso   1.000  C
  H1422    1.0000 0.89630  0.10190  0.95170  Biso   1.000  H
  H1423    1.0000 0.99472  0.20371  0.92150  Biso   1.000  H
  H1424    1.0000 0.55510  0.33262  0.02810  Biso   1.000  H
  C2224    1.0000 0.59231  0.38976  0.01287  Biso   1.000  C
  H1425    1.0000 0.61080  0.44121  0.99670  Biso   1.000  H
  C2225    1.0000 0.88814  0.12646  0.92551  Biso   1.000  C
  C2226    1.0000 0.65183  0.40472  0.01594  Biso   1.000  C
  H1426    1.0000 0.85540  0.09791  0.93040  Biso   1.000  H
  H1427    1.0000 0.88132  0.15621  0.92250  Biso   1.000  H
  H1428    1.0000 0.89553  0.10992  0.91750  Biso   1.000  H
  H1429    1.0000 0.67690  0.43290  0.00940  Biso   1.000  H
  H1430    1.0000 0.66161  0.41939  0.02530  Biso   1.000  H
  H1431    1.0000 0.65529  0.37139  0.01510  Biso   1.000  H
  O319     1.0000 0.30970  0.55736  0.06882  Biso   1.000  O
  C2227    1.0000 0.31482  0.53621  0.05680  Biso   1.000  C
  C2228    1.0000 0.32173  0.61330  0.06832  Biso   1.000  C
  N478     1.0000 0.31394  0.48875  0.05784  Biso   1.000  N
  N479     1.0000 0.32095  0.56538  0.04553  Biso   1.000  N
  C2229    1.0000 0.27868  0.62344  0.06841  Biso   1.000  C
  C2230    1.0000 0.37654  0.65527  0.06841  Biso   1.000  C
  C2231    1.0000 0.32387  0.47067  0.04593  Biso   1.000  C
  C2232    1.0000 0.32797  0.54236  0.03436  Biso   1.000  C
  H1432    1.0000 0.24122  0.59401  0.06850  Biso   1.000  H
  C2233    1.0000 0.29157  0.67829  0.06832  Biso   1.000  C
  H1433    1.0000 0.40602  0.64721  0.06850  Biso   1.000  H
  C2234    1.0000 0.38671  0.70842  0.06832  Biso   1.000  C
  C2235    1.0000 0.33180  0.42255  0.04648  Biso   1.000  C
  N480     1.0000 0.33089  0.49615  0.03359  Biso   1.000  N
  O320     1.0000 0.33400  0.56767  0.02211  Biso   1.000  O
  O321     1.0000 0.24766  0.69030  0.06882  Biso   1.000  O
  C2236    1.0000 0.34474  0.72130  0.06841  Biso   1.000  C
  O322     1.0000 0.44265  0.75235  0.06882  Biso   1.000  O
  C2237    1.0000 0.30588  0.38237  0.05654  Biso   1.000  C
  C2238    1.0000 0.36924  0.41918  0.03751  Biso   1.000  C
  C2239    1.0000 0.33363  0.61774  0.02220  Biso   1.000  C
  C2240    1.0000 0.22138  0.68519  0.05680  Biso   1.000  C
  H1434    1.0000 0.35280  0.75879  0.06850  Biso   1.000  H
  C2241    1.0000 0.46380  0.77861  0.05680  Biso   1.000  C
  C2242    1.0000 0.31791  0.33898  0.05744  Biso   1.000  C
  H1435    1.0000 0.28041  0.38411  0.06270  Biso   1.000  H
  C2243    1.0000 0.38130  0.37700  0.03887  Biso   1.000  C
  H1436    1.0000 0.38641  0.44611  0.03040  Biso   1.000  H
  C2244    1.0000 0.28298  0.61641  0.02205  Biso   1.000  C
  C2245    1.0000 0.38360  0.66657  0.02205  Biso   1.000  C
  N481     1.0000 0.17482  0.68606  0.05784  Biso   1.000  N
  N482     1.0000 0.24440  0.67904  0.04553  Biso   1.000  N
  N483     1.0000 0.51124  0.82520  0.05784  Biso   1.000  N
  N484     1.0000 0.43466  0.75559  0.04553  Biso   1.000  N
  H1437    1.0000 0.29940  0.31080  0.06420  Biso   1.000  H
  C2246    1.0000 0.35587  0.33615  0.04883  Biso   1.000  C
  H1438    1.0000 0.40769  0.37588  0.03280  Biso   1.000  H
  C2247    1.0000 0.28409  0.66637  0.02220  Biso   1.000  C
  H1439    1.0000 0.24882  0.58221  0.02190  Biso   1.000  H
  C2248    1.0000 0.38224  0.71590  0.02220  Biso   1.000  C
  H1440    1.0000 0.41781  0.66661  0.02190  Biso   1.000  H
  C2249    1.0000 0.14678  0.67613  0.04593  Biso   1.000  C
  C2250    1.0000 0.21440  0.67202  0.03436  Biso   1.000  C
  C2251    1.0000 0.52934  0.85325  0.04593  Biso   1.000  C
  C2252    1.0000 0.45761  0.78559  0.03436  Biso   1.000  C
  C2253    1.0000 0.37082  0.29077  0.05015  Biso   1.000  C
  O323     1.0000 0.23366  0.66599  0.02211  Biso   1.000  O
  C2254    1.0000 0.33345  0.71706  0.02205  Biso   1.000  C
  O324     1.0000 0.43234  0.76635  0.02211  Biso   1.000  O
  N485     1.0000 0.16526  0.66911  0.03359  Biso   1.000  N
  C2255    1.0000 0.09077  0.66819  0.04648  Biso   1.000  C
  N486     1.0000 0.50386  0.83475  0.03359  Biso   1.000  N
  C2256    1.0000 0.57746  0.90927  0.04648  Biso   1.000  C
  H1441    1.0000 0.34912  0.26551  0.05760  Biso   1.000  H
  H1442    1.0000 0.36251  0.27012  0.04150  Biso   1.000  H
  H1443    1.0000 0.41059  0.30760  0.05220  Biso   1.000  H
  H1444    1.0000 0.33340  0.75122  0.02190  Biso   1.000  H
  C2257    1.0000 0.07649  0.69413  0.05654  Biso   1.000  C
  C2258    1.0000 0.04997  0.63079  0.03751  Biso   1.000  C
  C2259    1.0000 0.61763  0.92352  0.05654  Biso   1.000  C
  C2260    1.0000 0.58079  0.95003  0.03751  Biso   1.000  C
  H1445    1.0000 0.10370  0.71960  0.06270  Biso   1.000  H
  C2261    1.0000 0.02108  0.68212  0.05744  Biso   1.000  C
  H1446    1.0000 0.05969  0.61359  0.03040  Biso   1.000  H
  C2262    1.0000 0.99570  0.61870  0.03887  Biso   1.000  C
  H1447    1.0000 0.61590  0.89630  0.06270  Biso   1.000  H
  C2263    1.0000 0.66102  0.97891  0.05744  Biso   1.000  C
  H1448    1.0000 0.55390  0.94031  0.03040  Biso   1.000  H
  C2264    1.0000 0.62298  0.00426  0.03887  Biso   1.000  C
  H1449    1.0000 0.01139  0.70061  0.06420  Biso   1.000  H
  C2265    1.0000 0.98028  0.64413  0.04883  Biso   1.000  C
  H1450    1.0000 0.96822  0.59231  0.03280  Biso   1.000  H
  H1451    1.0000 0.68922  0.98860  0.06420  Biso   1.000  H
  C2266    1.0000 0.66386  0.01972  0.04883  Biso   1.000  C
  H1452    1.0000 0.62411  0.03178  0.03280  Biso   1.000  H
  C2267    1.0000 0.91996  0.62917  0.05015  Biso   1.000  C
  C2268    1.0000 0.70920  0.08002  0.05015  Biso   1.000  C
  H1453    1.0000 0.91640  0.65091  0.05760  Biso   1.000  H
  H1454    1.0000 0.90762  0.63752  0.04150  Biso   1.000  H
  H1455    1.0000 0.89702  0.58940  0.05220  Biso   1.000  H
  H1456    1.0000 0.73452  0.08360  0.05760  Biso   1.000  H
  H1457    1.0000 0.72987  0.09237  0.04150  Biso   1.000  H
  H1458    1.0000 0.69240  0.10300  0.05220  Biso   1.000  H
  C2269    1.0000 0.56077  0.10880  0.92034  Biso   1.000  C
  C2270    1.0000 0.60700  0.12662  0.93076  Biso   1.000  C
  H1459    1.0000 0.57371  0.10402  0.91130  Biso   1.000  H
  H1460    1.0000 0.54990  0.13730  0.91970  Biso   1.000  H
  H1461    1.0000 0.52870  0.07360  0.92320  Biso   1.000  H
  C2271    1.0000 0.59853  0.13581  0.94434  Biso   1.000  C
  C2272    1.0000 0.65789  0.13390  0.92714  Biso   1.000  C
  C2273    1.0000 0.64074  0.15351  0.95392  Biso   1.000  C
  H1462    1.0000 0.56319  0.12991  0.94710  Biso   1.000  H
  H1463    1.0000 0.66419  0.12750  0.91790  Biso   1.000  H
  C2274    1.0000 0.70031  0.15035  0.93670  Biso   1.000  C
  C2275    1.0000 0.69193  0.16058  0.95013  Biso   1.000  C
  H1464    1.0000 0.63473  0.16091  0.96310  Biso   1.000  H
  H1465    1.0000 0.73511  0.15459  0.93400  Biso   1.000  H
  C2276    1.0000 0.73637  0.17691  0.96061  Biso   1.000  C
  N487     1.0000 0.78037  0.17134  0.95705  Biso   1.000  N
  N488     1.0000 0.72884  0.19453  0.97276  Biso   1.000  N
  C2277    1.0000 0.81578  0.18277  0.96745  Biso   1.000  C
  C2278    1.0000 0.76957  0.20645  0.98155  Biso   1.000  C
  O325     1.0000 0.85881  0.17462  0.96450  Biso   1.000  O
  N489     1.0000 0.81348  0.20055  0.97992  Biso   1.000  N
  O326     1.0000 0.76354  0.22636  0.99368  Biso   1.000  O
  C2279    1.0000 0.89602  0.18389  0.97546  Biso   1.000  C
  C2280    1.0000 0.80804  0.24402  0.00299  Biso   1.000  C
  C2281    1.0000 0.88344  0.14196  0.98467  Biso   1.000  C
  C2282    1.0000 0.94510  0.23367  0.97587  Biso   1.000  C
  C2283    1.0000 0.80363  0.20857  0.01336  Biso   1.000  C
  C2284    1.0000 0.85393  0.29672  0.00136  Biso   1.000  C
  C2285    1.0000 0.92164  0.15127  0.99493  Biso   1.000  C
  H1466    1.0000 0.84959  0.10759  0.98400  Biso   1.000  H
  C2286    1.0000 0.98189  0.24053  0.98628  Biso   1.000  C
  H1467    1.0000 0.95341  0.26210  0.96930  Biso   1.000  H
  C2287    1.0000 0.84711  0.22794  0.02251  Biso   1.000  C
  H1468    1.0000 0.77213  0.17242  0.01419  Biso   1.000  H
  H1469    1.0000 0.85649  0.32020  0.99400  Biso   1.000  H
  C2288    1.0000 0.89540  0.31321  0.01098  Biso   1.000  C
  C2289    1.0000 0.97166  0.20022  0.99582  Biso   1.000  C
  O327     1.0000 0.90869  0.10867  0.00449  Biso   1.000  O
  O328     1.0000 0.03282  0.29136  0.98676  Biso   1.000  O
  O329     1.0000 0.84358  0.19303  0.03351  Biso   1.000  O
  C2290    1.0000 0.89288  0.27989  0.02175  Biso   1.000  C
  O330     1.0000 0.94219  0.36707  0.00966  Biso   1.000  O
  H1470    1.0000 0.99799  0.20579  0.00280  Biso   1.000  H
  C2291    1.0000 0.88588  0.11179  0.01642  Biso   1.000  C
  C2292    1.0000 0.03016  0.33528  0.99197  Biso   1.000  C
  C2293    1.0000 0.85556  0.15243  0.03046  Biso   1.000  C
  H1471    1.0000 0.92183  0.29252  0.02840  Biso   1.000  H
  C2294    1.0000 0.98649  0.37102  0.00279  Biso   1.000  C
  N490     1.0000 0.87469  0.07048  0.02507  Biso   1.000  N
  N491     1.0000 0.87668  0.15364  0.01820  Biso   1.000  N
  N492     1.0000 0.98364  0.32522  0.99811  Biso   1.000  N
  N493     1.0000 0.07608  0.38378  0.99005  Biso   1.000  N
  N494     1.0000 0.84363  0.11640  0.04044  Biso   1.000  N
  N495     1.0000 0.02801  0.42276  0.00182  Biso   1.000  N
  C2295    1.0000 0.85243  0.07426  0.03695  Biso   1.000  C
  C2296    1.0000 0.07227  0.42721  0.99510  Biso   1.000  C
  C2297    1.0000 0.83378  0.02818  0.04686  Biso   1.000  C
  C2298    1.0000 0.11843  0.48360  0.99247  Biso   1.000  C
  C2299    1.0000 0.82491  0.97681  0.04261  Biso   1.000  C
  C2300    1.0000 0.82035  0.03399  0.06030  Biso   1.000  C
  C2301    1.0000 0.15582  0.49440  0.98180  Biso   1.000  C
  C2302    1.0000 0.12428  0.52777  0.00046  Biso   1.000  C
  C2303    1.0000 0.80129  0.93160  0.05144  Biso   1.000  C
  H1472    1.0000 0.83511  0.97253  0.03360  Biso   1.000  H
  C2304    1.0000 0.79855  0.98953  0.06925  Biso   1.000  C
  H1473    1.0000 0.82619  0.06898  0.06340  Biso   1.000  H
  H1474    1.0000 0.15291  0.46481  0.97630  Biso   1.000  H
  C2305    1.0000 0.19717  0.54809  0.97922  Biso   1.000  C
  C2306    1.0000 0.16610  0.58117  0.99769  Biso   1.000  C
  H1475    1.0000 0.09929  0.52112  0.00790  Biso   1.000  H
  C2307    1.0000 0.78754  0.93750  0.06499  Biso   1.000  C
  H1476    1.0000 0.79441  0.89632  0.04830  Biso   1.000  H
  H1477    1.0000 0.79100  0.99472  0.07850  Biso   1.000  H
  H1478    1.0000 0.22249  0.55512  0.97190  Biso   1.000  H
  C2308    1.0000 0.20257  0.59235  0.98713  Biso   1.000  C
  H1479    1.0000 0.16961  0.61080  0.00330  Biso   1.000  H
  C2309    1.0000 0.76169  0.88817  0.07449  Biso   1.000  C
  C2310    1.0000 0.24713  0.65182  0.98406  Biso   1.000  C
  H1480    1.0000 0.75752  0.85542  0.06960  Biso   1.000  H
  H1481    1.0000 0.72512  0.88131  0.07750  Biso   1.000  H
  H1482    1.0000 0.78563  0.89553  0.08250  Biso   1.000  H
  H1483    1.0000 0.24402  0.67692  0.99060  Biso   1.000  H
  H1484    1.0000 0.24219  0.66159  0.97470  Biso   1.000  H
  H1485    1.0000 0.28389  0.65531  0.98490  Biso   1.000  H
  O331     1.0000 0.69029  0.44262  0.93118  Biso   1.000  O
  C2311    1.0000 0.67828  0.38673  0.93168  Biso   1.000  C
  C2312    1.0000 0.68517  0.46378  0.94320  Biso   1.000  C
  C2313    1.0000 0.62347  0.34476  0.93159  Biso   1.000  C
  C2314    1.0000 0.72131  0.37655  0.93159  Biso   1.000  C
  N496     1.0000 0.68605  0.51123  0.94216  Biso   1.000  N
  N497     1.0000 0.67907  0.43464  0.95447  Biso   1.000  N
  C2315    1.0000 0.61328  0.29156  0.93168  Biso   1.000  C
  H1486    1.0000 0.59403  0.35282  0.93150  Biso   1.000  H
  C2316    1.0000 0.70842  0.32169  0.93168  Biso   1.000  C
  H1487    1.0000 0.75883  0.40601  0.93150  Biso   1.000  H
  C2317    1.0000 0.67614  0.52935  0.95407  Biso   1.000  C
  C2318    1.0000 0.67202  0.45762  0.96564  Biso   1.000  C
  O332     1.0000 0.55738  0.24764  0.93118  Biso   1.000  O
  C2319    1.0000 0.65527  0.27872  0.93159  Biso   1.000  C
  O333     1.0000 0.75236  0.30972  0.93118  Biso   1.000  O
  N498     1.0000 0.66911  0.50384  0.96641  Biso   1.000  N
  C2320    1.0000 0.66819  0.57743  0.95352  Biso   1.000  C
  O334     1.0000 0.66601  0.43236  0.97789  Biso   1.000  O
  C2321    1.0000 0.53622  0.22137  0.94320  Biso   1.000  C
  H1488    1.0000 0.64719  0.24120  0.93150  Biso   1.000  H
  C2322    1.0000 0.77863  0.31484  0.94320  Biso   1.000  C
  C2323    1.0000 0.69411  0.61762  0.94346  Biso   1.000  C
  C2324    1.0000 0.63079  0.58080  0.96249  Biso   1.000  C
  C2325    1.0000 0.66636  0.38224  0.97780  Biso   1.000  C
  N499     1.0000 0.48875  0.17479  0.94216  Biso   1.000  N
  N500     1.0000 0.56537  0.24440  0.95447  Biso   1.000  N
  N501     1.0000 0.82520  0.31396  0.94216  Biso   1.000  N
  N502     1.0000 0.75559  0.32094  0.95447  Biso   1.000  N
  H1489    1.0000 0.71960  0.61592  0.93730  Biso   1.000  H
  C2326    1.0000 0.68208  0.66100  0.94256  Biso   1.000  C
  C2327    1.0000 0.61872  0.62302  0.96113  Biso   1.000  C
  H1490    1.0000 0.61360  0.55391  0.96960  Biso   1.000  H
  C2328    1.0000 0.61641  0.33345  0.97795  Biso   1.000  C
  C2329    1.0000 0.71703  0.38361  0.97795  Biso   1.000  C
  C2330    1.0000 0.47068  0.14678  0.95407  Biso   1.000  C
  C2331    1.0000 0.54238  0.21439  0.96564  Biso   1.000  C
  C2332    1.0000 0.85323  0.32389  0.95407  Biso   1.000  C
  C2333    1.0000 0.78559  0.32797  0.96564  Biso   1.000  C
  H1491    1.0000 0.70062  0.68922  0.93580  Biso   1.000  H
  C2334    1.0000 0.64414  0.66387  0.95117  Biso   1.000  C
  H1492    1.0000 0.59230  0.62410  0.96720  Biso   1.000  H
  C2335    1.0000 0.61775  0.28408  0.97780  Biso   1.000  C
  H1493    1.0000 0.58220  0.33341  0.97810  Biso   1.000  H
  C2336    1.0000 0.71592  0.33366  0.97780  Biso   1.000  C
  H1494    1.0000 0.75119  0.41781  0.97810  Biso   1.000  H
  N503     1.0000 0.49615  0.16527  0.96641  Biso   1.000  N
  C2337    1.0000 0.42255  0.09076  0.95352  Biso   1.000  C
  O335     1.0000 0.56766  0.23363  0.97789  Biso   1.000  O
  N504     1.0000 0.83475  0.33092  0.96641  Biso   1.000  N
  C2338    1.0000 0.90926  0.33179  0.95352  Biso   1.000  C
  O336     1.0000 0.76636  0.33399  0.97789  Biso   1.000  O
  C2339    1.0000 0.62917  0.70921  0.94985  Biso   1.000  C
  C2340    1.0000 0.66657  0.28296  0.97795  Biso   1.000  C
  C2341    1.0000 0.38238  0.07651  0.94346  Biso   1.000  C
  C2342    1.0000 0.41920  0.04995  0.96249  Biso   1.000  C
  C2343    1.0000 0.92352  0.30590  0.94346  Biso   1.000  C
  C2344    1.0000 0.95004  0.36923  0.96249  Biso   1.000  C
  H1495    1.0000 0.65093  0.73452  0.94240  Biso   1.000  H
  H1496    1.0000 0.63750  0.72991  0.95850  Biso   1.000  H
  H1497    1.0000 0.58943  0.69242  0.94780  Biso   1.000  H
  H1498    1.0000 0.66662  0.24880  0.97810  Biso   1.000  H
  H1499    1.0000 0.38410  0.10368  0.93730  Biso   1.000  H
  C2345    1.0000 0.33897  0.02107  0.94256  Biso   1.000  C
  H1500    1.0000 0.44611  0.05972  0.96960  Biso   1.000  H
  C2346    1.0000 0.37701  0.99572  0.96113  Biso   1.000  C
  H1501    1.0000 0.89629  0.28038  0.93730  Biso   1.000  H
  C2347    1.0000 0.97894  0.31791  0.94256  Biso   1.000  C
  H1502    1.0000 0.94030  0.38640  0.96960  Biso   1.000  H
  C2348    1.0000 0.00429  0.38128  0.96113  Biso   1.000  C
  H1503    1.0000 0.31081  0.01139  0.93580  Biso   1.000  H
  C2349    1.0000 0.33615  0.98030  0.95117  Biso   1.000  C
  H1504    1.0000 0.37592  0.96821  0.96720  Biso   1.000  H
  H1505    1.0000 0.98862  0.29942  0.93580  Biso   1.000  H
  C2350    1.0000 0.01972  0.35585  0.95117  Biso   1.000  C
  H1506    1.0000 0.03179  0.40771  0.96720  Biso   1.000  H
  C2351    1.0000 0.29079  0.91996  0.94985  Biso   1.000  C
  C2352    1.0000 0.08005  0.37085  0.94985  Biso   1.000  C
  H1507    1.0000 0.26553  0.91643  0.94240  Biso   1.000  H
  H1508    1.0000 0.27012  0.90762  0.95850  Biso   1.000  H
  H1509    1.0000 0.30761  0.89702  0.94780  Biso   1.000  H
  H1510    1.0000 0.08361  0.34912  0.94240  Biso   1.000  H
  H1511    1.0000 0.09239  0.36250  0.95850  Biso   1.000  H
  H1512    1.0000 0.10297  0.41058  0.94780  Biso   1.000  H
  C2353    1.0000 0.89121  0.45197  0.92034  Biso   1.000  C
  C2354    1.0000 0.87337  0.48036  0.93076  Biso   1.000  C
  H1513    1.0000 0.89602  0.46972  0.91130  Biso   1.000  H
  H1514    1.0000 0.86272  0.41262  0.91970  Biso   1.000  H
  H1515    1.0000 0.92639  0.45509  0.92320  Biso   1.000  H
  C2355    1.0000 0.86420  0.46274  0.94434  Biso   1.000  C
  C2356    1.0000 0.86611  0.52399  0.92714  Biso   1.000  C
  C2357    1.0000 0.84650  0.48721  0.95392  Biso   1.000  C
  H1516    1.0000 0.87012  0.43331  0.94710  Biso   1.000  H
  H1517    1.0000 0.87251  0.53671  0.91790  Biso   1.000  H
  C2358    1.0000 0.84966  0.54996  0.93670  Biso   1.000  C
  C2359    1.0000 0.83945  0.53135  0.95013  Biso   1.000  C
  H1518    1.0000 0.83910  0.47379  0.96310  Biso   1.000  H
  H1519    1.0000 0.84543  0.58051  0.93400  Biso   1.000  H
  C2360    1.0000 0.82309  0.55944  0.96061  Biso   1.000  C
  N505     1.0000 0.82868  0.60906  0.95705  Biso   1.000  N
  N506     1.0000 0.80548  0.53430  0.97276  Biso   1.000  N
  C2361    1.0000 0.81725  0.63299  0.96745  Biso   1.000  C
  C2362    1.0000 0.79353  0.56310  0.98155  Biso   1.000  C
  O337     1.0000 0.82540  0.68419  0.96450  Biso   1.000  O
  N507     1.0000 0.79944  0.61292  0.97992  Biso   1.000  N
  O338     1.0000 0.77362  0.53716  0.99368  Biso   1.000  O
  C2363    1.0000 0.81611  0.71212  0.97546  Biso   1.000  C
  C2364    1.0000 0.75595  0.56401  0.00299  Biso   1.000  C
  C2365    1.0000 0.85805  0.74150  0.98467  Biso   1.000  C
  C2366    1.0000 0.76631  0.71141  0.97587  Biso   1.000  C
  C2367    1.0000 0.79144  0.59505  0.01336  Biso   1.000  C
  C2368    1.0000 0.70331  0.55720  0.00136  Biso   1.000  C
  C2369    1.0000 0.84871  0.77034  0.99493  Biso   1.000  C
  H1520    1.0000 0.89241  0.74200  0.98400  Biso   1.000  H
  C2370    1.0000 0.75948  0.74138  0.98628  Biso   1.000  C
  H1521    1.0000 0.73790  0.69130  0.96930  Biso   1.000  H
  C2371    1.0000 0.77206  0.61920  0.02251  Biso   1.000  C
  H1522    1.0000 0.82760  0.59971  0.01419  Biso   1.000  H
  H1523    1.0000 0.67979  0.53629  0.99400  Biso   1.000  H
  C2372    1.0000 0.68681  0.58221  0.01098  Biso   1.000  C
  C2373    1.0000 0.79977  0.77142  0.99582  Biso   1.000  C
  O339     1.0000 0.89137  0.80001  0.00449  Biso   1.000  O
  O340     1.0000 0.70867  0.74146  0.98676  Biso   1.000  O
  O341     1.0000 0.80697  0.65057  0.03351  Biso   1.000  O
  C2374    1.0000 0.72013  0.61301  0.02175  Biso   1.000  C
  O342     1.0000 0.63294  0.57511  0.00966  Biso   1.000  O
  H1524    1.0000 0.79421  0.79220  0.00280  Biso   1.000  H
  C2375    1.0000 0.88823  0.77408  0.01642  Biso   1.000  C
  C2376    1.0000 0.66474  0.69491  0.99197  Biso   1.000  C
  C2377    1.0000 0.84758  0.70314  0.03046  Biso   1.000  C
  H1525    1.0000 0.70751  0.62930  0.02840  Biso   1.000  H
  C2378    1.0000 0.62901  0.61546  0.00279  Biso   1.000  C
  N508     1.0000 0.92953  0.80421  0.02507  Biso   1.000  N
  N509     1.0000 0.84637  0.72305  0.01820  Biso   1.000  N
  N510     1.0000 0.61623  0.69234  0.99005  Biso   1.000  N
  N511     1.0000 0.67478  0.65843  0.99811  Biso   1.000  N
  N512     1.0000 0.88361  0.72720  0.04044  Biso   1.000  N
  N513     1.0000 0.57727  0.60528  0.00182  Biso   1.000  N
  C2379    1.0000 0.92575  0.77815  0.03695  Biso   1.000  C
  C2380    1.0000 0.57281  0.64509  0.99510  Biso   1.000  C
  C2381    1.0000 0.97180  0.80562  0.04686  Biso   1.000  C
  C2382    1.0000 0.51643  0.63482  0.99247  Biso   1.000  C
  C2383    1.0000 0.96603  0.78638  0.06030  Biso   1.000  C
  C2384    1.0000 0.02320  0.84809  0.04261  Biso   1.000  C
  C2385    1.0000 0.50564  0.66146  0.98180  Biso   1.000  C
  C2386    1.0000 0.47223  0.59651  0.00046  Biso   1.000  C
  H1526    1.0000 0.93100  0.75721  0.06340  Biso   1.000  H
  C2387    1.0000 0.01047  0.80903  0.06925  Biso   1.000  C
  C2388    1.0000 0.06843  0.86974  0.05144  Biso   1.000  C
  H1527    1.0000 0.02750  0.86260  0.03360  Biso   1.000  H
  H1528    1.0000 0.53519  0.68810  0.97630  Biso   1.000  H
  C2389    1.0000 0.45194  0.64908  0.97922  Biso   1.000  C
  C2390    1.0000 0.41884  0.58496  0.99769  Biso   1.000  C
  H1529    1.0000 0.47892  0.57822  0.00790  Biso   1.000  H
  H1530    1.0000 0.00530  0.79631  0.07850  Biso   1.000  H
  C2391    1.0000 0.06256  0.85009  0.06499  Biso   1.000  C
  H1531    1.0000 0.10369  0.89809  0.04830  Biso   1.000  H
  H1532    1.0000 0.44491  0.66740  0.97190  Biso   1.000  H
  C2392    1.0000 0.40768  0.61022  0.98713  Biso   1.000  C
  H1533    1.0000 0.38921  0.55882  0.00330  Biso   1.000  H
  C2393    1.0000 0.11187  0.87357  0.07449  Biso   1.000  C
  C2394    1.0000 0.34818  0.59530  0.98406  Biso   1.000  C
  H1534    1.0000 0.14461  0.90212  0.06960  Biso   1.000  H
  H1535    1.0000 0.11870  0.84381  0.07750  Biso   1.000  H
  H1536    1.0000 0.10449  0.89011  0.08250  Biso   1.000  H
  H1537    1.0000 0.32310  0.56709  0.99060  Biso   1.000  H
  H1538    1.0000 0.33841  0.58059  0.97470  Biso   1.000  H
  H1539    1.0000 0.34471  0.62859  0.98490  Biso   1.000  H
  C2395    1.0000 0.43924  0.89123  0.07966  Biso   1.000  C
  C2396    1.0000 0.39301  0.87340  0.06924  Biso   1.000  C
  H1540    1.0000 0.42630  0.89601  0.08870  Biso   1.000  H
  H1541    1.0000 0.45011  0.86272  0.08030  Biso   1.000  H
  H1542    1.0000 0.47129  0.92639  0.07680  Biso   1.000  H
  C2397    1.0000 0.40146  0.86418  0.05566  Biso   1.000  C
  C2398    1.0000 0.34216  0.86613  0.07286  Biso   1.000  C
  C2399    1.0000 0.35927  0.84651  0.04608  Biso   1.000  C
  H1543    1.0000 0.43682  0.87012  0.05290  Biso   1.000  H
  H1544    1.0000 0.33580  0.87249  0.08210  Biso   1.000  H
  C2400    1.0000 0.29970  0.84967  0.06330  Biso   1.000  C
  C2401    1.0000 0.30809  0.83945  0.04987  Biso   1.000  C
  H1545    1.0000 0.36532  0.83912  0.03690  Biso   1.000  H
  H1546    1.0000 0.26488  0.84539  0.06600  Biso   1.000  H
  C2402    1.0000 0.26362  0.82308  0.03939  Biso   1.000  C
  N514     1.0000 0.21964  0.82869  0.04295  Biso   1.000  N
  N515     1.0000 0.27115  0.80546  0.02724  Biso   1.000  N
  C2403    1.0000 0.18424  0.81726  0.03255  Biso   1.000  C
  C2404    1.0000 0.23042  0.79353  0.01845  Biso   1.000  C
  O343     1.0000 0.14120  0.82540  0.03550  Biso   1.000  O
  N516     1.0000 0.18654  0.79947  0.02008  Biso   1.000  N
  O344     1.0000 0.23645  0.77362  0.00632  Biso   1.000  O
  C2405    1.0000 0.10397  0.81609  0.02454  Biso   1.000  C
  C2406    1.0000 0.19195  0.75596  0.99701  Biso   1.000  C
  C2407    1.0000 0.11657  0.85807  0.01533  Biso   1.000  C
  C2408    1.0000 0.05490  0.76631  0.02413  Biso   1.000  C
  C2409    1.0000 0.19638  0.79145  0.98664  Biso   1.000  C
  C2410    1.0000 0.14608  0.70331  0.99864  Biso   1.000  C
  C2411    1.0000 0.07836  0.84872  0.00507  Biso   1.000  C
  H1547    1.0000 0.15040  0.89239  0.01600  Biso   1.000  H
  C2412    1.0000 0.01813  0.75949  0.01372  Biso   1.000  C
  H1548    1.0000 0.04659  0.73788  0.03070  Biso   1.000  H
  C2413    1.0000 0.15290  0.77209  0.97749  Biso   1.000  C
  H1549    1.0000 0.22792  0.82761  0.98581  Biso   1.000  H
  H1550    1.0000 0.14350  0.67979  0.00600  Biso   1.000  H
  C2414    1.0000 0.10462  0.68681  0.98902  Biso   1.000  C
  C2415    1.0000 0.02833  0.79976  0.00418  Biso   1.000  C
  O345     1.0000 0.09133  0.89135  0.99551  Biso   1.000  O
  O346     1.0000 0.96720  0.70867  0.01324  Biso   1.000  O
  O347     1.0000 0.15643  0.80699  0.96649  Biso   1.000  O
  C2416    1.0000 0.10714  0.72014  0.97825  Biso   1.000  C
  O348     1.0000 0.05782  0.63295  0.99034  Biso   1.000  O
  H1551    1.0000 0.00201  0.79419  0.99720  Biso   1.000  H
  C2417    1.0000 0.11415  0.88820  0.98358  Biso   1.000  C
  C2418    1.0000 0.96985  0.66474  0.00803  Biso   1.000  C
  C2419    1.0000 0.14443  0.84755  0.96954  Biso   1.000  C
  H1552    1.0000 0.07822  0.70751  0.97160  Biso   1.000  H
  C2420    1.0000 0.01352  0.62901  0.99721  Biso   1.000  C
  N517     1.0000 0.12532  0.92955  0.97493  Biso   1.000  N
  N518     1.0000 0.12333  0.84639  0.98180  Biso   1.000  N
  N519     1.0000 0.01635  0.67476  0.00189  Biso   1.000  N
  N520     1.0000 0.92394  0.61625  0.00995  Biso   1.000  N
  N521     1.0000 0.15642  0.88362  0.95956  Biso   1.000  N
  N522     1.0000 0.97200  0.57727  0.99818  Biso   1.000  N
  C2421    1.0000 0.14756  0.92572  0.96305  Biso   1.000  C
  C2422    1.0000 0.92774  0.57282  0.00490  Biso   1.000  C
  C2423    1.0000 0.16621  0.97181  0.95314  Biso   1.000  C
  C2424    1.0000 0.88159  0.51643  0.00753  Biso   1.000  C
  C2425    1.0000 0.17966  0.96603  0.93970  Biso   1.000  C
  C2426    1.0000 0.17511  0.02321  0.95739  Biso   1.000  C
  C2427    1.0000 0.87573  0.47225  0.99954  Biso   1.000  C
  C2428    1.0000 0.84419  0.50562  0.01820  Biso   1.000  C
  H1553    1.0000 0.17381  0.93100  0.93660  Biso   1.000  H
  C2429    1.0000 0.20144  0.01046  0.93075  Biso   1.000  C
  C2430    1.0000 0.19872  0.06843  0.94856  Biso   1.000  C
  H1554    1.0000 0.16490  0.02749  0.96640  Biso   1.000  H
  H1555    1.0000 0.90072  0.47890  0.99210  Biso   1.000  H
  C2431    1.0000 0.83391  0.41885  0.00231  Biso   1.000  C
  H1556    1.0000 0.84711  0.53521  0.02370  Biso   1.000  H
  C2432    1.0000 0.80284  0.45193  0.02078  Biso   1.000  C
  H1557    1.0000 0.20901  0.00530  0.92150  Biso   1.000  H
  C2433    1.0000 0.21247  0.06253  0.93501  Biso   1.000  C
  H1558    1.0000 0.20558  0.10367  0.95170  Biso   1.000  H
  H1559    1.0000 0.83040  0.38922  0.99670  Biso   1.000  H
  C2434    1.0000 0.79744  0.40767  0.01287  Biso   1.000  C
  H1560    1.0000 0.77752  0.44491  0.02810  Biso   1.000  H
  C2435    1.0000 0.23832  0.11186  0.92551  Biso   1.000  C
  C2436    1.0000 0.75286  0.34816  0.01594  Biso   1.000  C
  H1561    1.0000 0.24249  0.14460  0.93040  Biso   1.000  H
  H1562    1.0000 0.27488  0.11867  0.92250  Biso   1.000  H
  H1563    1.0000 0.21442  0.10450  0.91750  Biso   1.000  H
  H1564    1.0000 0.75602  0.32311  0.00940  Biso   1.000  H
  H1565    1.0000 0.75780  0.33840  0.02530  Biso   1.000  H
  H1566    1.0000 0.71612  0.34471  0.01510  Biso   1.000  H
  O349     1.0000 0.09037  0.10688  0.93580  Biso   1.000  O
  C2437    1.0000 0.04419  0.05232  0.93623  Biso   1.000  C
  C2438    1.0000 0.11671  0.12675  0.94778  Biso   1.000  C
  C2439    1.0000 0.05360  0.00823  0.93614  Biso   1.000  C
  C2440    1.0000 0.99178  0.04538  0.93614  Biso   1.000  C
  N523     1.0000 0.16315  0.17529  0.94681  Biso   1.000  N
  N524     1.0000 0.09445  0.09712  0.95898  Biso   1.000  N
  H1567    1.0000 0.09029  0.01388  0.93600  Biso   1.000  H
  C2441    1.0000 0.00814  0.95582  0.93623  Biso   1.000  C
  C2442    1.0000 0.94769  0.99190  0.93623  Biso   1.000  C
  H1568    1.0000 0.98611  0.07638  0.93600  Biso   1.000  H
  C2443    1.0000 0.19063  0.19233  0.95875  Biso   1.000  C
  C2444    1.0000 0.12499  0.11927  0.97016  Biso   1.000  C
  C2445    1.0000 0.95463  0.94639  0.93614  Biso   1.000  C
  O350     1.0000 0.01651  0.90966  0.93580  Biso   1.000  O
  O351     1.0000 0.89314  0.98350  0.93580  Biso   1.000  O
  N525     1.0000 0.17406  0.16594  0.97084  Biso   1.000  N
  C2446    1.0000 0.24624  0.24415  0.95822  Biso   1.000  C
  O352     1.0000 0.10598  0.09234  0.98211  Biso   1.000  O
  H1569    1.0000 0.92363  0.90974  0.93600  Biso   1.000  H
  C2447    1.0000 0.01003  0.88331  0.94778  Biso   1.000  C
  C2448    1.0000 0.87328  0.98998  0.94778  Biso   1.000  C
  C2449    1.0000 0.26078  0.27864  0.94681  Biso   1.000  C
  C2450    1.0000 0.28466  0.25707  0.96877  Biso   1.000  C
  C2451    1.0000 0.05169  0.04521  0.98194  Biso   1.000  C
  N526     1.0000 0.01212  0.83689  0.94681  Biso   1.000  N
  N527     1.0000 0.00267  0.90558  0.95898  Biso   1.000  N
  N528     1.0000 0.82477  0.98791  0.94681  Biso   1.000  N
  N529     1.0000 0.90289  0.99738  0.95898  Biso   1.000  N
  H1570    1.0000 0.23530  0.26970  0.93940  Biso   1.000  H
  C2452    1.0000 0.31253  0.32606  0.94618  Biso   1.000  C
  C2453    1.0000 0.33745  0.30399  0.96742  Biso   1.000  C
  H1571    1.0000 0.27518  0.23438  0.97680  Biso   1.000  H
  C2454    1.0000 0.00654  0.05303  0.98196  Biso   1.000  C
  C2455    1.0000 0.04648  0.99348  0.98196  Biso   1.000  C
  C2456    1.0000 0.00174  0.80942  0.95875  Biso   1.000  C
  C2457    1.0000 0.99431  0.87504  0.97016  Biso   1.000  C
  C2458    1.0000 0.80768  0.99830  0.95875  Biso   1.000  C
  C2459    1.0000 0.88073  0.00569  0.97016  Biso   1.000  C
  H1572    1.0000 0.32150  0.35020  0.93850  Biso   1.000  H
  C2460    1.0000 0.35128  0.33915  0.95640  Biso   1.000  C
  H1573    1.0000 0.36439  0.31159  0.97440  Biso   1.000  H
  H1574    1.0000 0.01111  0.08931  0.98200  Biso   1.000  H
  C2461    1.0000 0.95478  0.00644  0.98194  Biso   1.000  C
  C2462    1.0000 0.99353  0.94834  0.98194  Biso   1.000  C
  H1575    1.0000 0.07820  0.98890  0.98200  Biso   1.000  H
  N530     1.0000 0.99190  0.82596  0.97084  Biso   1.000  N
  C2463    1.0000 0.99794  0.75382  0.95822  Biso   1.000  C
  O353     1.0000 0.98635  0.89403  0.98211  Biso   1.000  O
  N531     1.0000 0.83406  0.00815  0.97084  Biso   1.000  N
  C2464    1.0000 0.75588  0.00208  0.95822  Biso   1.000  C
  O354     1.0000 0.90766  0.01363  0.98211  Biso   1.000  O
  C2465    1.0000 0.40797  0.39242  0.95571  Biso   1.000  C
  C2466    1.0000 0.94697  0.95354  0.98196  Biso   1.000  C
  C2467    1.0000 0.97246  0.71538  0.96877  Biso   1.000  C
  C2468    1.0000 0.01786  0.73923  0.94681  Biso   1.000  C
  C2469    1.0000 0.72138  0.98217  0.94681  Biso   1.000  C
  C2470    1.0000 0.74292  0.02755  0.96877  Biso   1.000  C
  H1576    1.0000 0.41070  0.41212  0.94710  Biso   1.000  H
  H1577    1.0000 0.41200  0.41632  0.96360  Biso   1.000  H
  H1578    1.0000 0.43751  0.38291  0.95600  Biso   1.000  H
  H1579    1.0000 0.91071  0.92183  0.98200  Biso   1.000  H
  C2471    1.0000 0.96655  0.66260  0.96742  Biso   1.000  C
  H1580    1.0000 0.95922  0.72481  0.97680  Biso   1.000  H
  H1581    1.0000 0.03441  0.76470  0.93940  Biso   1.000  H
  C2472    1.0000 0.01354  0.68749  0.94618  Biso   1.000  C
  H1582    1.0000 0.73031  0.96563  0.93940  Biso   1.000  H
  C2473    1.0000 0.67395  0.98649  0.94618  Biso   1.000  C
  C2474    1.0000 0.69603  0.03345  0.96742  Biso   1.000  C
  H1583    1.0000 0.76560  0.04081  0.97680  Biso   1.000  H
  C2475    1.0000 0.98788  0.64876  0.95640  Biso   1.000  C
  H1584    1.0000 0.94723  0.63563  0.97440  Biso   1.000  H
  H1585    1.0000 0.02871  0.67852  0.93850  Biso   1.000  H
  H1586    1.0000 0.64981  0.97133  0.93850  Biso   1.000  H
  C2476    1.0000 0.66086  0.01213  0.95640  Biso   1.000  C
  H1587    1.0000 0.68840  0.05282  0.97440  Biso   1.000  H
  C2477    1.0000 0.98446  0.59204  0.95571  Biso   1.000  C
  C2478    1.0000 0.60759  0.01558  0.95571  Biso   1.000  C
  H1588    1.0000 0.94541  0.56253  0.95600  Biso   1.000  H
  H1589    1.0000 0.00143  0.58933  0.94710  Biso   1.000  H
  H1590    1.0000 0.00429  0.58800  0.96360  Biso   1.000  H
  H1591    1.0000 0.58792  0.99863  0.94710  Biso   1.000  H
  H1592    1.0000 0.58369  0.99572  0.96360  Biso   1.000  H
  H1593    1.0000 0.61710  0.05461  0.95600  Biso   1.000  H
  O355     1.0000 0.10686  0.01650  0.06420  Biso   1.000  O
  C2479    1.0000 0.05233  0.00815  0.06377  Biso   1.000  C
  C2480    1.0000 0.12676  0.01002  0.05222  Biso   1.000  C
  C2481    1.0000 0.04537  0.05361  0.06386  Biso   1.000  C
  C2482    1.0000 0.00825  0.95466  0.06386  Biso   1.000  C
  N532     1.0000 0.17529  0.01213  0.05319  Biso   1.000  N
  N533     1.0000 0.09713  0.00266  0.04102  Biso   1.000  N
  H1594    1.0000 0.07639  0.09030  0.06400  Biso   1.000  H
  C2483    1.0000 0.99188  0.04422  0.06377  Biso   1.000  C
  C2484    1.0000 0.95581  0.94768  0.06377  Biso   1.000  C
  H1595    1.0000 0.01392  0.92362  0.06400  Biso   1.000  H
  C2485    1.0000 0.19232  0.00170  0.04125  Biso   1.000  C
  C2486    1.0000 0.11927  0.99431  0.02984  Biso   1.000  C
  C2487    1.0000 0.94640  0.99177  0.06386  Biso   1.000  C
  O356     1.0000 0.98349  0.09034  0.06420  Biso   1.000  O
  O357     1.0000 0.90965  0.89316  0.06420  Biso   1.000  O
  N534     1.0000 0.16596  0.99190  0.02916  Biso   1.000  N
  C2488    1.0000 0.24414  0.99796  0.04178  Biso   1.000  C
  O358     1.0000 0.09234  0.98637  0.01789  Biso   1.000  O
  H1596    1.0000 0.90971  0.98612  0.06400  Biso   1.000  H
  C2489    1.0000 0.98999  0.11673  0.05222  Biso   1.000  C
  C2490    1.0000 0.88329  0.87325  0.05222  Biso   1.000  C
  C2491    1.0000 0.27862  0.01783  0.05319  Biso   1.000  C
  C2492    1.0000 0.25708  0.97245  0.03123  Biso   1.000  C
  C2493    1.0000 0.04522  0.99356  0.01806  Biso   1.000  C
  N535     1.0000 0.98790  0.16315  0.05319  Biso   1.000  N
  N536     1.0000 0.99735  0.09446  0.04102  Biso   1.000  N
  N537     1.0000 0.83687  0.82475  0.05319  Biso   1.000  N
  N538     1.0000 0.90558  0.90292  0.04102  Biso   1.000  N
  H1597    1.0000 0.26971  0.03441  0.06060  Biso   1.000  H
  C2494    1.0000 0.32607  0.01355  0.05382  Biso   1.000  C
  C2495    1.0000 0.30397  0.96655  0.03258  Biso   1.000  C
  H1598    1.0000 0.23442  0.95923  0.02320  Biso   1.000  H
  C2496    1.0000 0.05303  0.04646  0.01804  Biso   1.000  C
  C2497    1.0000 0.99346  0.94697  0.01804  Biso   1.000  C
  C2498    1.0000 0.99828  0.19062  0.04125  Biso   1.000  C
  C2499    1.0000 0.00569  0.12496  0.02984  Biso   1.000  C
  C2500    1.0000 0.80940  0.80767  0.04125  Biso   1.000  C
  C2501    1.0000 0.87505  0.88073  0.02984  Biso   1.000  C
  H1599    1.0000 0.35021  0.02872  0.06150  Biso   1.000  H
  C2502    1.0000 0.33916  0.98791  0.04360  Biso   1.000  C
  H1600    1.0000 0.31162  0.94722  0.02560  Biso   1.000  H
  C2503    1.0000 0.00647  0.05166  0.01806  Biso   1.000  C
  H1601    1.0000 0.08931  0.07821  0.01800  Biso   1.000  H
  C2504    1.0000 0.94833  0.95483  0.01806  Biso   1.000  C
  H1602    1.0000 0.98891  0.91074  0.01800  Biso   1.000  H
  N539     1.0000 0.00815  0.17408  0.02916  Biso   1.000  N
  C2505    1.0000 0.00208  0.24622  0.04178  Biso   1.000  C
  O359     1.0000 0.01365  0.10597  0.01789  Biso   1.000  O
  N540     1.0000 0.82594  0.83406  0.02916  Biso   1.000  N
  C2506    1.0000 0.75382  0.75589  0.04178  Biso   1.000  C
  O360     1.0000 0.89404  0.90770  0.01789  Biso   1.000  O
  C2507    1.0000 0.39243  0.98446  0.04429  Biso   1.000  C
  C2508    1.0000 0.95355  0.00657  0.01804  Biso   1.000  C
  C2509    1.0000 0.02756  0.28466  0.03123  Biso   1.000  C
  C2510    1.0000 0.98214  0.26077  0.05319  Biso   1.000  C
  C2511    1.0000 0.73924  0.72140  0.05319  Biso   1.000  C
  C2512    1.0000 0.71534  0.74293  0.03123  Biso   1.000  C
  H1603    1.0000 0.41210  0.00141  0.05290  Biso   1.000  H
  H1604    1.0000 0.41631  0.00428  0.03640  Biso   1.000  H
  H1605    1.0000 0.38292  0.94544  0.04400  Biso   1.000  H
  H1606    1.0000 0.92180  0.01110  0.01800  Biso   1.000  H
  C2513    1.0000 0.03347  0.33744  0.03258  Biso   1.000  C
  H1607    1.0000 0.04078  0.27519  0.02320  Biso   1.000  H
  H1608    1.0000 0.96559  0.23530  0.06060  Biso   1.000  H
  C2514    1.0000 0.98648  0.31255  0.05382  Biso   1.000  C
  H1609    1.0000 0.76472  0.73034  0.06060  Biso   1.000  H
  C2515    1.0000 0.68747  0.67394  0.05382  Biso   1.000  C
  C2516    1.0000 0.66257  0.69605  0.03258  Biso   1.000  C
  H1610    1.0000 0.72482  0.76562  0.02320  Biso   1.000  H
  C2517    1.0000 0.01214  0.35128  0.04360  Biso   1.000  C
  H1611    1.0000 0.05279  0.36441  0.02560  Biso   1.000  H
  H1612    1.0000 0.97129  0.32148  0.06150  Biso   1.000  H
  H1613    1.0000 0.67850  0.64980  0.06150  Biso   1.000  H
  C2518    1.0000 0.64872  0.66085  0.04360  Biso   1.000  C
  H1614    1.0000 0.63561  0.68841  0.02560  Biso   1.000  H
  C2519    1.0000 0.01558  0.40796  0.04429  Biso   1.000  C
  C2520    1.0000 0.59205  0.60762  0.04429  Biso   1.000  C
  H1615    1.0000 0.05461  0.43751  0.04400  Biso   1.000  H
  H1616    1.0000 0.99859  0.41071  0.05290  Biso   1.000  H
  H1617    1.0000 0.99571  0.41200  0.03640  Biso   1.000  H
  H1618    1.0000 0.58933  0.58792  0.05290  Biso   1.000  H
  H1619    1.0000 0.58802  0.58372  0.03640  Biso   1.000  H
  H1620    1.0000 0.56251  0.61714  0.04400  Biso   1.000  H
  Ne1      1.0000 0.66667  0.33334  0.29159  Biso   1.000  Ne
  He1      1.0000 0.61209  0.26797  0.29258  Biso   1.000  He
  He2      1.0000 0.65638  0.37910  0.29257  Biso   1.000  He
  He3      1.0000 0.71376  0.32580  0.29222  Biso   1.000  He
  Ar1      1.0000 0.66645  0.33306  0.29241  Biso   1.000  Ar
  Ne2      1.0000 0.33333  0.66667  0.20841  Biso   1.000  Ne
  He4      1.0000 0.27819  0.62176  0.20743  Biso   1.000  He
  He5      1.0000 0.32579  0.71346  0.20779  Biso   1.000  He
  He6      1.0000 0.39071  0.65568  0.20742  Biso   1.000  He
  Ar2      1.0000 0.33554  0.66648  0.20759  Biso   1.000  Ar
  Ne3      1.0000 0.55778  0.55009  0.16945  Biso   1.000  Ne
  He7      1.0000 0.59425  0.55871  0.17950  Biso   1.000  He
  He8      1.0000 0.49984  0.50670  0.16611  Biso   1.000  He
  He9      1.0000 0.56793  0.59611  0.15688  Biso   1.000  He
  Ar3      1.0000 0.56051  0.56008  0.16751  Biso   1.000  Ar
  Ne4      1.0000 0.55009  0.55778  0.33055  Biso   1.000  Ne
  He10     1.0000 0.61260  0.58311  0.34358  Biso   1.000  He
  He11     1.0000 0.50494  0.50778  0.33090  Biso   1.000  He
  He12     1.0000 0.57360  0.60733  0.32180  Biso   1.000  He
  Ar4      1.0000 0.55812  0.56083  0.33220  Biso   1.000  Ar
  Ne5      1.0000 0.32565  0.21676  0.33611  Biso   1.000  Ne
  He13     1.0000 0.29863  0.22522  0.34588  Biso   1.000  He
  He14     1.0000 0.33032  0.17429  0.33577  Biso   1.000  He
  He15     1.0000 0.35764  0.27104  0.32501  Biso   1.000  He
  Ar5      1.0000 0.33229  0.22675  0.33426  Biso   1.000  Ar
  Ne6      1.0000 0.21676  0.32564  0.16388  Biso   1.000  Ne
  He16     1.0000 0.27357  0.35925  0.17558  Biso   1.000  He
  He17     1.0000 0.16884  0.34065  0.16727  Biso   1.000  He
  He18     1.0000 0.23952  0.30211  0.15598  Biso   1.000  He
  Ar6      1.0000 0.22478  0.33053  0.16553  Biso   1.000  Ar
  Ne7      1.0000 0.89112  0.67436  0.33611  Biso   1.000  Ne
  He19     1.0000 0.92654  0.70131  0.34586  Biso   1.000  He
  He20     1.0000 0.84168  0.66953  0.33577  Biso   1.000  He
  He21     1.0000 0.91377  0.64169  0.32477  Biso   1.000  He
  Ar7      1.0000 0.89423  0.66891  0.33441  Biso   1.000  Ar
  Ne8      1.0000 0.67436  0.89111  0.16388  Biso   1.000  Ne
  He22     1.0000 0.63858  0.90122  0.17641  Biso   1.000  He
  He23     1.0000 0.66156  0.83987  0.16677  Biso   1.000  He
  He24     1.0000 0.70539  0.94720  0.15346  Biso   1.000  He
  Ar8      1.0000 0.66749  0.89417  0.16577  Biso   1.000  Ar
  Ne9      1.0000 0.66667  0.33334  0.21309  Biso   1.000  Ne
  He25     1.0000 0.67181  0.28409  0.21191  Biso   1.000  He
  He26     1.0000 0.60709  0.31853  0.21177  Biso   1.000  He
  He27     1.0000 0.70990  0.39107  0.21177  Biso   1.000  He
  Ar9      1.0000 0.66947  0.33709  0.21194  Biso   1.000  Ar
  Ne10     1.0000 0.44992  0.00770  0.16945  Biso   1.000  Ne
  He28     1.0000 0.42688  0.03215  0.17766  Biso   1.000  He
  He29     1.0000 0.48770  0.99365  0.16617  Biso   1.000  He
  He30     1.0000 0.39563  0.97570  0.15835  Biso   1.000  He
  Ar10     1.0000 0.43961  0.00151  0.16776  Biso   1.000  Ar
  Ne11     1.0000 0.00769  0.44991  0.33055  Biso   1.000  Ne
  He31     1.0000 0.97454  0.39385  0.34207  Biso   1.000  He
  He32     1.0000 0.99366  0.48748  0.33383  Biso   1.000  He
  He33     1.0000 0.04124  0.44025  0.31856  Biso   1.000  He
  Ar11     1.0000 0.00058  0.44047  0.33246  Biso   1.000  Ar
  Ne12     1.0000 0.33334  0.66667  0.28691  Biso   1.000  Ne
  He34     1.0000 0.39073  0.70957  0.28823  Biso   1.000  He
  He35     1.0000 0.31857  0.60743  0.28823  Biso   1.000  He
  He36     1.0000 0.28120  0.66535  0.28799  Biso   1.000  He
  Ar12     1.0000 0.33334  0.66667  0.28811  Biso   1.000  Ar
  Ne13     1.0000 0.00000  0.00001  0.12025  Biso   1.000  Ne
  He37     1.0000 0.98545  0.04356  0.12156  Biso   1.000  He
  He38     1.0000 0.05012  0.99864  0.12133  Biso   1.000  He
  He39     1.0000 0.95760  0.94326  0.12156  Biso   1.000  He
  Ar13     1.0000 0.00002  0.00002  0.12145  Biso   1.000  Ar
  Ne14     1.0000 0.00000  0.00001  0.37975  Biso   1.000  Ne
  He40     1.0000 0.05376  0.00117  0.37867  Biso   1.000  He
  He41     1.0000 0.94384  0.95813  0.37843  Biso   1.000  He
  He42     1.0000 0.99866  0.05072  0.37867  Biso   1.000  He
  Ar14     1.0000 0.99966  0.99975  0.37856  Biso   1.000  Ar
  Ne15     1.0000 0.99231  0.44223  0.16945  Biso   1.000  Ne
  He43     1.0000 0.96808  0.39501  0.17759  Biso   1.000  He
  He44     1.0000 0.00666  0.49784  0.16614  Biso   1.000  He
  He45     1.0000 0.02469  0.41972  0.15821  Biso   1.000  He
  Ar15     1.0000 0.99895  0.43888  0.16759  Biso   1.000  Ar
  Ne16     1.0000 0.44222  0.99231  0.33055  Biso   1.000  Ne
  He46     1.0000 0.42961  0.03401  0.34529  Biso   1.000  He
  He47     1.0000 0.49756  0.00663  0.33386  Biso   1.000  He
  He48     1.0000 0.40377  0.96279  0.31993  Biso   1.000  He
  Ar16     1.0000 0.44123  0.99716  0.33232  Biso   1.000  Ar
  Ne17     1.0000 0.66667  0.33334  0.37508  Biso   1.000  Ne
  He49     1.0000 0.61057  0.32305  0.37410  Biso   1.000  He
  He50     1.0000 0.65915  0.27835  0.37445  Biso   1.000  He
  He51     1.0000 0.72007  0.37920  0.37445  Biso   1.000  He
  Ar17     1.0000 0.66427  0.33315  0.37426  Biso   1.000  Ar
  Ne18     1.0000 0.33334  0.66667  0.12492  Biso   1.000  Ne
  He52     1.0000 0.32317  0.61242  0.12590  Biso   1.000  He
  He53     1.0000 0.27867  0.65915  0.12555  Biso   1.000  He
  He54     1.0000 0.37933  0.72015  0.12555  Biso   1.000  He
  Ar18     1.0000 0.33334  0.66666  0.12590  Biso   1.000  Ar
  Ne19     1.0000 0.78325  0.10890  0.33611  Biso   1.000  Ne
  He55     1.0000 0.76024  0.06156  0.34429  Biso   1.000  He
  He56     1.0000 0.82509  0.15998  0.33437  Biso   1.000  He
  He57     1.0000 0.72419  0.08484  0.32390  Biso   1.000  He
  Ar19     1.0000 0.77495  0.10579  0.33444  Biso   1.000  Ar
  Ne20     1.0000 0.10889  0.78324  0.16388  Biso   1.000  Ne
  He58     1.0000 0.09844  0.73622  0.17670  Biso   1.000  He
  He59     1.0000 0.15786  0.82745  0.16423  Biso   1.000  He
  He60     1.0000 0.07487  0.77503  0.15453  Biso   1.000  He
  Ar20     1.0000 0.10654  0.77378  0.16580  Biso   1.000  Ar
  Ne21     1.0000 0.11658  0.34102  0.50278  Biso   1.000  Ne
  He61     1.0000 0.10795  0.36877  0.51280  Biso   1.000  He
  He62     1.0000 0.15792  0.33266  0.50130  Biso   1.000  He
  He63     1.0000 0.06233  0.30903  0.49169  Biso   1.000  He
  Ar21     1.0000 0.10823  0.33597  0.50115  Biso   1.000  Ar
  Ne22     1.0000 0.88343  0.65898  0.49722  Biso   1.000  Ne
  He64     1.0000 0.94570  0.69600  0.51018  Biso   1.000  He
  He65     1.0000 0.84097  0.66368  0.49757  Biso   1.000  He
  He66     1.0000 0.90617  0.63543  0.48931  Biso   1.000  He
  Ar22     1.0000 0.89345  0.66562  0.49907  Biso   1.000  Ar
  Ne23     1.0000 0.65898  0.88342  0.00278  Biso   1.000  Ne
  He67     1.0000 0.63195  0.89188  0.01255  Biso   1.000  He
  He68     1.0000 0.66768  0.84317  0.00117  Biso   1.000  He
  He69     1.0000 0.69099  0.93772  0.99168  Biso   1.000  He
  Ar23     1.0000 0.66561  0.89341  0.00093  Biso   1.000  Ar
  Ne24     1.0000 0.66667  0.33333  0.45358  Biso   1.000  Ne
  He70     1.0000 0.65207  0.37686  0.45490  Biso   1.000  He
  He71     1.0000 0.71677  0.33191  0.45466  Biso   1.000  He
  He72     1.0000 0.62431  0.27657  0.45490  Biso   1.000  He
  Ar24     1.0000 0.66666  0.33333  0.45478  Biso   1.000  Ar
  Ne25     1.0000 0.33333  0.66667  0.04642  Biso   1.000  Ne
  He73     1.0000 0.38708  0.66782  0.04534  Biso   1.000  He
  He74     1.0000 0.27714  0.62477  0.04510  Biso   1.000  He
  He75     1.0000 0.33199  0.71741  0.04534  Biso   1.000  He
  Ar25     1.0000 0.33331  0.66666  0.04522  Biso   1.000  Ar
  Ne26     1.0000 0.00001  0.00001  0.04174  Biso   1.000  Ne
  He76     1.0000 0.05353  0.04598  0.04112  Biso   1.000  He
  He77     1.0000 0.00208  0.95030  0.04093  Biso   1.000  He
  He78     1.0000 0.94393  0.98976  0.04077  Biso   1.000  He
  Ar26     1.0000 0.00001  1.00000  0.04091  Biso   1.000  Ar
  Ne27     1.0000 0.00001  0.00001  0.45826  Biso   1.000  Ne
  He79     1.0000 0.04599  0.05351  0.45889  Biso   1.000  He
  He80     1.0000 0.98974  0.94387  0.45924  Biso   1.000  He
  He81     1.0000 0.94535  0.99251  0.45889  Biso   1.000  He
  Ar27     1.0000 0.99990  0.99999  0.45909  Biso   1.000  Ar
  Ne28     1.0000 0.34103  0.22445  0.49722  Biso   1.000  Ne
  He82     1.0000 0.30633  0.23793  0.50933  Biso   1.000  He
  He83     1.0000 0.33627  0.17626  0.49757  Biso   1.000  He
  He84     1.0000 0.37205  0.28049  0.48680  Biso   1.000  He
  Ar28     1.0000 0.33438  0.22780  0.49907  Biso   1.000  Ar
  Ne29     1.0000 0.22444  0.34102  0.00278  Biso   1.000  Ne
  He85     1.0000 0.25986  0.36797  0.01253  Biso   1.000  He
  He86     1.0000 0.17176  0.32786  0.99980  Biso   1.000  He
  He87     1.0000 0.24712  0.30835  0.99144  Biso   1.000  He
  Ar29     1.0000 0.22724  0.33499  0.00100  Biso   1.000  Ar
  Ne30     1.0000 0.77556  0.11658  0.49722  Biso   1.000  Ne
  He88     1.0000 0.74993  0.05333  0.51041  Biso   1.000  He
  He89     1.0000 0.82454  0.16078  0.49756  Biso   1.000  He
  He90     1.0000 0.73594  0.10240  0.48826  Biso   1.000  He
  Ar30     1.0000 0.77221  0.10659  0.49907  Biso   1.000  Ar
  Ne31     1.0000 0.11658  0.77556  0.00278  Biso   1.000  Ne
  He91     1.0000 0.10817  0.74028  0.01250  Biso   1.000  He
  He92     1.0000 0.16340  0.82732  0.00244  Biso   1.000  He
  He93     1.0000 0.06449  0.76361  0.98863  Biso   1.000  He
  Ar31     1.0000 0.10883  0.77296  0.00111  Biso   1.000  Ar
  Ne32     1.0000 0.65898  0.77556  0.50278  Biso   1.000  Ne
  He94     1.0000 0.63476  0.72836  0.51092  Biso   1.000  He
  He95     1.0000 0.67338  0.83120  0.49947  Biso   1.000  He
  He96     1.0000 0.69558  0.75054  0.48997  Biso   1.000  He
  Ar32     1.0000 0.66412  0.77290  0.50111  Biso   1.000  Ar
  Ne33     1.0000 0.00001  0.00001  0.54174  Biso   1.000  Ne
  He97     1.0000 0.94490  0.95511  0.54076  Biso   1.000  He
  He98     1.0000 0.99249  0.04670  0.54111  Biso   1.000  He
  He99     1.0000 0.05739  0.98906  0.54075  Biso   1.000  He
  Ar33     1.0000 0.00002  0.00010  0.54092  Biso   1.000  Ar
  Ne34     1.0000 0.22444  0.88342  0.50278  Biso   1.000  Ne
  He100    1.0000 0.25819  0.89161  0.51205  Biso   1.000  He
  He101    1.0000 0.16651  0.84009  0.49944  Biso   1.000  He
  He102    1.0000 0.23460  0.92947  0.49022  Biso   1.000  He
  Ar34     1.0000 0.22736  0.89340  0.50088  Biso   1.000  Ar
  Ne35     1.0000 0.33334  0.66667  0.54642  Biso   1.000  Ne
  He103    1.0000 0.34799  0.62267  0.54510  Biso   1.000  He
  He104    1.0000 0.26533  0.65059  0.54510  Biso   1.000  He
  He105    1.0000 0.38471  0.71661  0.54534  Biso   1.000  He
  Ar35     1.0000 0.33335  0.66666  0.54522  Biso   1.000  Ar
  Ne36     1.0000 0.10889  0.32564  0.66389  Biso   1.000  Ne
  He106    1.0000 0.09629  0.36735  0.67863  Biso   1.000  He
  He107    1.0000 0.16423  0.33998  0.66719  Biso   1.000  He
  He108    1.0000 0.07043  0.29612  0.65327  Biso   1.000  He
  Ar36     1.0000 0.10788  0.33050  0.66566  Biso   1.000  Ar
  Ne37     1.0000 0.00001  0.00001  0.62025  Biso   1.000  Ne
  He109    1.0000 0.05738  0.04294  0.62157  Biso   1.000  He
  He110    1.0000 0.98530  0.94080  0.62157  Biso   1.000  He
  He111    1.0000 0.94788  0.99871  0.62133  Biso   1.000  He
  Ar37     1.0000 0.00001  0.00001  0.62145  Biso   1.000  Ar
  Ne38     1.0000 0.33334  0.66667  0.62492  Biso   1.000  Ne
  He112    1.0000 0.27876  0.60130  0.62591  Biso   1.000  He
  He113    1.0000 0.32304  0.71243  0.62590  Biso   1.000  He
  He114    1.0000 0.38007  0.65913  0.62555  Biso   1.000  He
  Ar38     1.0000 0.33334  0.66668  0.62576  Biso   1.000  Ar
  Ne39     1.0000 0.44991  0.44223  0.66945  Biso   1.000  Ne
  He115    1.0000 0.42689  0.39488  0.67763  Biso   1.000  He
  He116    1.0000 0.49395  0.49106  0.66910  Biso   1.000  He
  He117    1.0000 0.39682  0.42040  0.65863  Biso   1.000  He
  Ar39     1.0000 0.43982  0.43879  0.66758  Biso   1.000  Ar
  Ne40     1.0000 0.55779  0.00770  0.66945  Biso   1.000  Ne
  He118    1.0000 0.60300  0.03037  0.67707  Biso   1.000  He
  He119    1.0000 0.50471  0.99355  0.66616  Biso   1.000  He
  He120    1.0000 0.58044  0.97504  0.65811  Biso   1.000  He
  Ar40     1.0000 0.56112  0.00105  0.66759  Biso   1.000  Ar
  Ne41     1.0000 0.67436  0.78324  0.66389  Biso   1.000  Ne
  He121    1.0000 0.64121  0.72717  0.67541  Biso   1.000  He
  He122    1.0000 0.66035  0.82082  0.66716  Biso   1.000  He
  He123    1.0000 0.70792  0.77359  0.65189  Biso   1.000  He
  Ar41     1.0000 0.66728  0.77328  0.66579  Biso   1.000  Ar
  Ne42     1.0000 0.21676  0.89111  0.66389  Biso   1.000  Ne
  He124    1.0000 0.26920  0.90316  0.67814  Biso   1.000  He
  He125    1.0000 0.17160  0.84110  0.66423  Biso   1.000  He
  He126    1.0000 0.24027  0.94067  0.65514  Biso   1.000  He
  Ar42     1.0000 0.22494  0.89419  0.66555  Biso   1.000  Ar
  Ne43     1.0000 0.99231  0.55009  0.66945  Biso   1.000  Ne
  He127    1.0000 0.96529  0.55856  0.67922  Biso   1.000  He
  He128    1.0000 0.99699  0.50762  0.66910  Biso   1.000  He
  He129    1.0000 0.02569  0.60051  0.65783  Biso   1.000  He
  Ar43     1.0000 0.99894  0.56007  0.66760  Biso   1.000  Ar
  Ne44     1.0000 0.33334  0.66667  0.70841  Biso   1.000  Ne
  He130    1.0000 0.27724  0.65638  0.70743  Biso   1.000  He
  He131    1.0000 0.32582  0.61170  0.70778  Biso   1.000  He
  He132    1.0000 0.38677  0.71255  0.70778  Biso   1.000  He
  Ar44     1.0000 0.33094  0.66648  0.70759  Biso   1.000  Ar
  Ne45     1.0000 0.66667  0.33334  0.71309  Biso   1.000  Ne
  He133    1.0000 0.72047  0.33451  0.71201  Biso   1.000  He
  He134    1.0000 0.61047  0.29145  0.71177  Biso   1.000  He
  He135    1.0000 0.66531  0.38404  0.71201  Biso   1.000  He
  Ar45     1.0000 0.66666  0.33333  0.71189  Biso   1.000  Ar
  Ne46     1.0000 0.00769  0.55778  0.83055  Biso   1.000  Ne
  He136    1.0000 0.97192  0.56790  0.84307  Biso   1.000  He
  He137    1.0000 0.99367  0.50608  0.83383  Biso   1.000  He
  He138    1.0000 0.03873  0.61383  0.82013  Biso   1.000  He
  Ar46     1.0000 0.00089  0.56104  0.83239  Biso   1.000  Ar
  Ne47     1.0000 0.32565  0.10890  0.83612  Biso   1.000  Ne
  He139    1.0000 0.30117  0.06326  0.84443  Biso   1.000  He
  He140    1.0000 0.34001  0.16449  0.83280  Biso   1.000  He
  He141    1.0000 0.36152  0.09872  0.82356  Biso   1.000  He
  Ar47     1.0000 0.33260  0.10586  0.83422  Biso   1.000  Ar
  Ne48     1.0000 0.44223  0.44991  0.83055  Biso   1.000  Ne
  He142    1.0000 0.41660  0.38667  0.84374  Biso   1.000  He
  He143    1.0000 0.49120  0.49412  0.83090  Biso   1.000  He
  He144    1.0000 0.40256  0.43570  0.82160  Biso   1.000  He
  Ar48     1.0000 0.43886  0.43989  0.83241  Biso   1.000  Ar
  Ne49     1.0000 0.89112  0.21676  0.83612  Biso   1.000  Ne
  He145    1.0000 0.92758  0.22538  0.84617  Biso   1.000  He
  He146    1.0000 0.83317  0.17337  0.83278  Biso   1.000  He
  He147    1.0000 0.90126  0.26278  0.82355  Biso   1.000  He
  Ar49     1.0000 0.89384  0.22673  0.83419  Biso   1.000  Ar
  Ne50     1.0000 0.33333  0.66667  0.78691  Biso   1.000  Ne
  He148    1.0000 0.31873  0.71019  0.78824  Biso   1.000  He
  He149    1.0000 0.38345  0.66530  0.78799  Biso   1.000  He
  He150    1.0000 0.29095  0.60990  0.78823  Biso   1.000  He
  Ar50     1.0000 0.33332  0.66667  0.78811  Biso   1.000  Ar
  Ne51     1.0000 0.66667  0.33334  0.79159  Biso   1.000  Ne
  He151    1.0000 0.71265  0.38683  0.79222  Biso   1.000  He
  He152    1.0000 0.65639  0.27719  0.79257  Biso   1.000  He
  He153    1.0000 0.61199  0.32580  0.79222  Biso   1.000  He
  Ar51     1.0000 0.66665  0.33334  0.79242  Biso   1.000  Ar
  Ne52     1.0000 0.55009  0.99231  0.83055  Biso   1.000  Ne
  He154    1.0000 0.60691  0.02590  0.84225  Biso   1.000  He
  He155    1.0000 0.50216  0.00730  0.83395  Biso   1.000  He
  He156    1.0000 0.57286  0.96878  0.82265  Biso   1.000  He
  Ar52     1.0000 0.55815  0.99733  0.83221  Biso   1.000  Ar
  Ne53     1.0000 0.78325  0.67436  0.83612  Biso   1.000  Ne
  He157    1.0000 0.77366  0.70737  0.84793  Biso   1.000  He
  He158    1.0000 0.82670  0.66965  0.83577  Biso   1.000  He
  He159    1.0000 0.72900  0.64236  0.82502  Biso   1.000  He
  Ar53     1.0000 0.77468  0.66890  0.83441  Biso   1.000  Ar
  Ne54     1.0000 0.66667  0.33334  0.87508  Biso   1.000  Ne
  He160    1.0000 0.61153  0.28842  0.87410  Biso   1.000  He
  He161    1.0000 0.65914  0.38005  0.87445  Biso   1.000  He
  He162    1.0000 0.72405  0.32236  0.87409  Biso   1.000  He
  Ar54     1.0000 0.66677  0.33332  0.87424  Biso   1.000  Ar
  Ne55     1.0000 0.00001  0.00001  0.87975  Biso   1.000  Ne
  He163    1.0000 0.01467  0.95602  0.87844  Biso   1.000  He
  He164    1.0000 0.94697  0.00112  0.87868  Biso   1.000  He
  He165    1.0000 0.04324  0.05773  0.87844  Biso   1.000  He
  Ar55     1.0000 0.00280  0.00377  0.87860  Biso   1.000  Ar
  Ne56     1.0000 0.34103  0.11658  0.99722  Biso   1.000  Ne
  He166    1.0000 0.30789  0.06050  0.00873  Biso   1.000  He
  He167    1.0000 0.32701  0.15415  0.00050  Biso   1.000  He
  He168    1.0000 0.37459  0.10693  0.98522  Biso   1.000  He
  Ar56     1.0000 0.33390  0.10711  0.99913  Biso   1.000  Ar
  Ne57     1.0000 0.88343  0.22445  0.99722  Biso   1.000  Ne
  He169    1.0000 0.93591  0.23652  0.01147  Biso   1.000  He
  He170    1.0000 0.83826  0.17445  0.99756  Biso   1.000  He
  He171    1.0000 0.90692  0.27399  0.98847  Biso   1.000  He
  Ar57     1.0000 0.89142  0.22742  0.99887  Biso   1.000  Ar
  Ne58     1.0000 0.66667  0.33333  0.95358  Biso   1.000  Ne
  He172    1.0000 0.72406  0.37625  0.95490  Biso   1.000  He
  He173    1.0000 0.65195  0.27412  0.95490  Biso   1.000  He
  He174    1.0000 0.61452  0.33200  0.95466  Biso   1.000  He
  Ar58     1.0000 0.66667  0.33331  0.95478  Biso   1.000  Ar
  Ne59     1.0000 0.00001  0.00001  0.95826  Biso   1.000  Ne
  He175    1.0000 0.94545  0.93468  0.95924  Biso   1.000  He
  He176    1.0000 0.98974  0.04578  0.95923  Biso   1.000  He
  He177    1.0000 0.04672  0.99251  0.95888  Biso   1.000  He
  Ar59     1.0000 0.99999  1.00000  0.95909  Biso   1.000  Ar
  Ne60     1.0000 0.77556  0.65898  0.99722  Biso   1.000  Ne
  He178    1.0000 0.75216  0.69288  0.00902  Biso   1.000  He
  He179    1.0000 0.82599  0.66384  0.99756  Biso   1.000  He
  He180    1.0000 0.73636  0.62883  0.98639  Biso   1.000  He
  Ar60     1.0000 0.77251  0.66399  0.99887  Biso   1.000  Ar
