data_image0
_cell_length_a       26.004
_cell_length_b       37.938
_cell_length_c       17.074
_cell_angle_alpha    90
_cell_angle_beta     94.37
_cell_angle_gamma    90

_symmetry_space_group_name_H-M    "P 1"
_symmetry_int_tables_number       1

loop_
  _symmetry_equiv_pos_as_xyz
  'x, y, z'

loop_
  _atom_site_label
  _atom_site_occupancy
  _atom_site_fract_x
  _atom_site_fract_y
  _atom_site_fract_z
  _atom_site_thermal_displace_type
  _atom_site_B_iso_or_equiv
  _atom_site_type_symbol
  C1       1.0000 0.35883  0.48930  0.59491  Biso   1.000  C
  C2       1.0000 0.41092  0.47164  0.58692  Biso   1.000  C
  H1       1.0000 0.34234  0.47870  0.63961  Biso   1.000  H
  H2       1.0000 0.33615  0.48500  0.54663  Biso   1.000  H
  C3       1.0000 0.36484  0.52950  0.60830  Biso   1.000  C
  C4       1.0000 0.40823  0.43184  0.58240  Biso   1.000  C
  H3       1.0000 0.42551  0.48060  0.53887  Biso   1.000  H
  H4       1.0000 0.43473  0.47841  0.63239  Biso   1.000  H
  H5       1.0000 0.38885  0.53361  0.65530  Biso   1.000  H
  H6       1.0000 0.38052  0.54001  0.56261  Biso   1.000  H
  C5       1.0000 0.31722  0.54750  0.61882  Biso   1.000  C
  C6       1.0000 0.38812  0.41449  0.65471  Biso   1.000  C
  H7       1.0000 0.38363  0.42569  0.53653  Biso   1.000  H
  C7       1.0000 0.46003  0.41491  0.56848  Biso   1.000  C
  H8       1.0000 0.30092  0.53811  0.66499  Biso   1.000  H
  H9       1.0000 0.29291  0.54492  0.57183  Biso   1.000  H
  C8       1.0000 0.33352  0.58841  0.63239  Biso   1.000  C
  C9       1.0000 0.35974  0.38389  0.64930  Biso   1.000  C
  C10      1.0000 0.40045  0.42902  0.73042  Biso   1.000  C
  C11      1.0000 0.46134  0.38291  0.52777  Biso   1.000  C
  C12      1.0000 0.50694  0.42896  0.59838  Biso   1.000  C
  H10      1.0000 0.30272  0.60251  0.64020  Biso   1.000  H
  H11      1.0000 0.34982  0.59711  0.58628  Biso   1.000  H
  H12      1.0000 0.35792  0.59041  0.67891  Biso   1.000  H
  C13      1.0000 0.34094  0.36715  0.71462  Biso   1.000  C
  O1       1.0000 0.34622  0.36902  0.57512  Biso   1.000  O
  C14      1.0000 0.38296  0.41331  0.79739  Biso   1.000  C
  H13      1.0000 0.42083  0.44971  0.73571  Biso   1.000  H
  O2       1.0000 0.41584  0.36834  0.49229  Biso   1.000  O
  C15      1.0000 0.50774  0.36560  0.51438  Biso   1.000  C
  C16      1.0000 0.55393  0.41281  0.58751  Biso   1.000  C
  H14      1.0000 0.50693  0.45039  0.62728  Biso   1.000  H
  C17      1.0000 0.30433  0.33615  0.70540  Biso   1.000  C
  C18      1.0000 0.35472  0.38215  0.78799  Biso   1.000  C
  C19      1.0000 0.38594  0.34881  0.54410  Biso   1.000  C
  C20      1.0000 0.39534  0.42865  0.87880  Biso   1.000  C
  C21      1.0000 0.55343  0.38110  0.54751  Biso   1.000  C
  C22      1.0000 0.50764  0.33281  0.46627  Biso   1.000  C
  C23      1.0000 0.60472  0.42865  0.62123  Biso   1.000  C
  S1       1.0000 0.33569  0.29659  0.67961  Biso   1.000  S
  H15      1.0000 0.27662  0.34172  0.66428  Biso   1.000  H
  H16      1.0000 0.28813  0.33249  0.75527  Biso   1.000  H
  O3       1.0000 0.33805  0.36557  0.85442  Biso   1.000  O
  H17      1.0000 0.37023  0.32830  0.51538  Biso   1.000  H
  H18      1.0000 0.40913  0.33961  0.58810  Biso   1.000  H
  C24      1.0000 0.44613  0.41281  0.91252  Biso   1.000  C
  H19      1.0000 0.36783  0.42040  0.91252  Biso   1.000  H
  C25      1.0000 0.39493  0.46871  0.88062  Biso   1.000  C
  O4       1.0000 0.59993  0.36383  0.53611  Biso   1.000  O
  S2       1.0000 0.48901  0.29358  0.51908  Biso   1.000  S
  H20      1.0000 0.54254  0.32920  0.44830  Biso   1.000  H
  H21      1.0000 0.48344  0.33589  0.41911  Biso   1.000  H
  C26      1.0000 0.61714  0.41331  0.70258  Biso   1.000  C
  H22      1.0000 0.63222  0.42040  0.58751  Biso   1.000  H
  C27      1.0000 0.60513  0.46871  0.61941  Biso   1.000  C
  C28      1.0000 0.29593  0.26311  0.71891  Biso   1.000  C
  C29      1.0000 0.37574  0.34541  0.89912  Biso   1.000  C
  C30      1.0000 0.44663  0.38110  0.95252  Biso   1.000  C
  C31      1.0000 0.49315  0.42896  0.90159  Biso   1.000  C
  H23      1.0000 0.41695  0.47770  0.84033  Biso   1.000  H
  H24      1.0000 0.40983  0.47680  0.93249  Biso   1.000  H
  C32      1.0000 0.34064  0.48382  0.86552  Biso   1.000  C
  C33      1.0000 0.62432  0.34541  0.60090  Biso   1.000  C
  C34      1.0000 0.54963  0.27049  0.54240  Biso   1.000  C
  C35      1.0000 0.59965  0.42902  0.76960  Biso   1.000  C
  C36      1.0000 0.64533  0.38215  0.71198  Biso   1.000  C
  H25      1.0000 0.58315  0.47770  0.65970  Biso   1.000  H
  H26      1.0000 0.59023  0.47680  0.56748  Biso   1.000  H
  C37      1.0000 0.65942  0.48382  0.63450  Biso   1.000  C
  C38      1.0000 0.29254  0.23051  0.66728  Biso   1.000  C
  H27      1.0000 0.31055  0.25650  0.77219  Biso   1.000  H
  H28      1.0000 0.26094  0.27260  0.72361  Biso   1.000  H
  O5       1.0000 0.40013  0.36383  0.96391  Biso   1.000  O
  H29      1.0000 0.35914  0.32390  0.91862  Biso   1.000  H
  H30      1.0000 0.40245  0.33771  0.86429  Biso   1.000  H
  C39      1.0000 0.49236  0.36560  0.98559  Biso   1.000  C
  C40      1.0000 0.54003  0.41491  0.93149  Biso   1.000  C
  H31      1.0000 0.49313  0.45039  0.87269  Biso   1.000  H
  H32      1.0000 0.32565  0.47491  0.81419  Biso   1.000  H
  H33      1.0000 0.31916  0.47480  0.90652  Biso   1.000  H
  C41      1.0000 0.33784  0.52341  0.86482  Biso   1.000  C
  O6       1.0000 0.66205  0.36557  0.64560  Biso   1.000  O
  H34      1.0000 0.64092  0.32390  0.58140  Biso   1.000  H
  H35      1.0000 0.59764  0.33771  0.63568  Biso   1.000  H
  C42      1.0000 0.55321  0.23710  0.49558  Biso   1.000  C
  H36      1.0000 0.57862  0.28631  0.53147  Biso   1.000  H
  H37      1.0000 0.55293  0.26470  0.59908  Biso   1.000  H
  C43      1.0000 0.61193  0.41449  0.84532  Biso   1.000  C
  H38      1.0000 0.57923  0.44971  0.76432  Biso   1.000  H
  C44      1.0000 0.65912  0.36715  0.78540  Biso   1.000  C
  H39      1.0000 0.67444  0.47491  0.68578  Biso   1.000  H
  H40      1.0000 0.68094  0.47480  0.59350  Biso   1.000  H
  C45      1.0000 0.66222  0.52341  0.63521  Biso   1.000  C
  C46      1.0000 0.25701  0.22940  0.60131  Biso   1.000  C
  C47      1.0000 0.32222  0.20109  0.68649  Biso   1.000  C
  C48      1.0000 0.53876  0.38291  0.97220  Biso   1.000  C
  C49      1.0000 0.49242  0.33281  0.03370  Biso   1.000  C
  C50      1.0000 0.59186  0.43184  0.91763  Biso   1.000  C
  H41      1.0000 0.35585  0.53232  0.81971  Biso   1.000  H
  H42      1.0000 0.35653  0.53250  0.91340  Biso   1.000  H
  C51      1.0000 0.28372  0.53780  0.85930  Biso   1.000  C
  C52      1.0000 0.54563  0.20441  0.52918  Biso   1.000  C
  C53      1.0000 0.56412  0.23791  0.41840  Biso   1.000  C
  C54      1.0000 0.64035  0.38389  0.85072  Biso   1.000  C
  C55      1.0000 0.69573  0.33615  0.79463  Biso   1.000  C
  H43      1.0000 0.64425  0.53232  0.68032  Biso   1.000  H
  H44      1.0000 0.64352  0.53250  0.58657  Biso   1.000  H
  C56      1.0000 0.71634  0.53780  0.64073  Biso   1.000  C
  C57      1.0000 0.25234  0.19901  0.55708  Biso   1.000  C
  H45      1.0000 0.23653  0.24951  0.58710  Biso   1.000  H
  C58      1.0000 0.31792  0.17023  0.64273  Biso   1.000  C
  H46      1.0000 0.34645  0.20201  0.73101  Biso   1.000  H
  O7       1.0000 0.58422  0.36834  0.00767  Biso   1.000  O
  S3       1.0000 0.51104  0.29358  0.98089  Biso   1.000  S
  H47      1.0000 0.45751  0.32920  0.05167  Biso   1.000  H
  H48      1.0000 0.51662  0.33589  0.08086  Biso   1.000  H
  H49      1.0000 0.61646  0.42569  0.96350  Biso   1.000  H
  C59      1.0000 0.58914  0.47164  0.91310  Biso   1.000  C
  H50      1.0000 0.26666  0.53021  0.90641  Biso   1.000  H
  H51      1.0000 0.26444  0.52731  0.81278  Biso   1.000  H
  C60      1.0000 0.27995  0.57742  0.85301  Biso   1.000  C
  C61      1.0000 0.54903  0.17331  0.48889  Biso   1.000  C
  H52      1.0000 0.53772  0.20349  0.58258  Biso   1.000  H
  C62      1.0000 0.57023  0.20731  0.37922  Biso   1.000  C
  H53      1.0000 0.56731  0.25979  0.39232  Biso   1.000  H
  O8       1.0000 0.65383  0.36902  0.92491  Biso   1.000  O
  S4       1.0000 0.66437  0.29659  0.82041  Biso   1.000  S
  H54      1.0000 0.72344  0.34172  0.83568  Biso   1.000  H
  H55      1.0000 0.71192  0.33249  0.74470  Biso   1.000  H
  H56      1.0000 0.73344  0.53021  0.59362  Biso   1.000  H
  H57      1.0000 0.73562  0.52731  0.68719  Biso   1.000  H
  C63      1.0000 0.72015  0.57742  0.64701  Biso   1.000  C
  C64      1.0000 0.28162  0.16991  0.57753  Biso   1.000  C
  H58      1.0000 0.22862  0.19830  0.51197  Biso   1.000  H
  C65      1.0000 0.34843  0.13841  0.66370  Biso   1.000  C
  C66      1.0000 0.61416  0.34881  0.95592  Biso   1.000  C
  C67      1.0000 0.45046  0.27049  0.95763  Biso   1.000  C
  H59      1.0000 0.57454  0.48060  0.96109  Biso   1.000  H
  H60      1.0000 0.56532  0.47841  0.86758  Biso   1.000  H
  C68      1.0000 0.64123  0.48930  0.90511  Biso   1.000  C
  H61      1.0000 0.24356  0.58440  0.85049  Biso   1.000  H
  H62      1.0000 0.29533  0.58530  0.80538  Biso   1.000  H
  H63      1.0000 0.29833  0.58820  0.89918  Biso   1.000  H
  C69      1.0000 0.54162  0.13886  0.52830  Biso   1.000  C
  C70      1.0000 0.56250  0.17460  0.41382  Biso   1.000  C
  H64      1.0000 0.58010  0.20810  0.32671  Biso   1.000  H
  C71      1.0000 0.70413  0.26311  0.78112  Biso   1.000  C
  H65      1.0000 0.75654  0.58440  0.64948  Biso   1.000  H
  H66      1.0000 0.70472  0.58530  0.69459  Biso   1.000  H
  H67      1.0000 0.70172  0.58820  0.60079  Biso   1.000  H
  H68      1.0000 0.27721  0.14911  0.54692  Biso   1.000  H
  C72      1.0000 0.35125  0.12283  0.73859  Biso   1.000  C
  C73      1.0000 0.37542  0.12070  0.60678  Biso   1.000  C
  H69      1.0000 0.62986  0.32830  0.98459  Biso   1.000  H
  H70      1.0000 0.59096  0.33961  0.91193  Biso   1.000  H
  C74      1.0000 0.44680  0.23710  0.00438  Biso   1.000  C
  H71      1.0000 0.42144  0.28631  0.96849  Biso   1.000  H
  H72      1.0000 0.44713  0.26470  0.90089  Biso   1.000  H
  H73      1.0000 0.65776  0.47870  0.86041  Biso   1.000  H
  H74      1.0000 0.66395  0.48500  0.95340  Biso   1.000  H
  C75      1.0000 0.63525  0.52950  0.89172  Biso   1.000  C
  C76      1.0000 0.49422  0.12151  0.52331  Biso   1.000  C
  C77      1.0000 0.58225  0.12259  0.57400  Biso   1.000  C
  H75      1.0000 0.56671  0.15351  0.38498  Biso   1.000  H
  C78      1.0000 0.70756  0.23051  0.83269  Biso   1.000  C
  H76      1.0000 0.68954  0.25650  0.72778  Biso   1.000  H
  H77      1.0000 0.73912  0.27260  0.77642  Biso   1.000  H
  O9       1.0000 0.32463  0.13949  0.79680  Biso   1.000  O
  C79      1.0000 0.37683  0.09168  0.75562  Biso   1.000  C
  O10      1.0000 0.37344  0.13514  0.53112  Biso   1.000  O
  C80      1.0000 0.40323  0.08991  0.62152  Biso   1.000  C
  C81      1.0000 0.45443  0.20441  0.97079  Biso   1.000  C
  C82      1.0000 0.43590  0.23791  0.08157  Biso   1.000  C
  H78      1.0000 0.61125  0.53361  0.84467  Biso   1.000  H
  H79      1.0000 0.61954  0.54001  0.93742  Biso   1.000  H
  C83      1.0000 0.68283  0.54750  0.88121  Biso   1.000  C
  O11      1.0000 0.45414  0.13651  0.47608  Biso   1.000  O
  C84      1.0000 0.48652  0.08949  0.56149  Biso   1.000  C
  C85      1.0000 0.57703  0.09078  0.61259  Biso   1.000  C
  O12      1.0000 0.63042  0.13912  0.57753  Biso   1.000  O
  C86      1.0000 0.67783  0.20109  0.81348  Biso   1.000  C
  C87      1.0000 0.74305  0.22940  0.89871  Biso   1.000  C
  C88      1.0000 0.35604  0.15881  0.85348  Biso   1.000  C
  C89      1.0000 0.40375  0.07570  0.69729  Biso   1.000  C
  C90      1.0000 0.37804  0.07523  0.83833  Biso   1.000  C
  C91      1.0000 0.41653  0.15631  0.51297  Biso   1.000  C
  C92      1.0000 0.43314  0.07286  0.55838  Biso   1.000  C
  C93      1.0000 0.45098  0.17331  0.01108  Biso   1.000  C
  H80      1.0000 0.46233  0.20349  0.91739  Biso   1.000  H
  C94      1.0000 0.42982  0.20731  0.12081  Biso   1.000  C
  H81      1.0000 0.43271  0.25979  0.10771  Biso   1.000  H
  H82      1.0000 0.69913  0.53811  0.83498  Biso   1.000  H
  H83      1.0000 0.70714  0.54492  0.92820  Biso   1.000  H
  C95      1.0000 0.66654  0.58841  0.86758  Biso   1.000  C
  C96      1.0000 0.52824  0.07502  0.60601  Biso   1.000  C
  C97      1.0000 0.62201  0.07523  0.66170  Biso   1.000  C
  C98      1.0000 0.64402  0.15881  0.64649  Biso   1.000  C
  C99      1.0000 0.68214  0.17023  0.85730  Biso   1.000  C
  H84      1.0000 0.65365  0.20201  0.76902  Biso   1.000  H
  C100     1.0000 0.74776  0.19901  0.94288  Biso   1.000  C
  H85      1.0000 0.76356  0.24951  0.91293  Biso   1.000  H
  O13      1.0000 0.36964  0.13912  0.92250  Biso   1.000  O
  H86      1.0000 0.38793  0.16630  0.82999  Biso   1.000  H
  H87      1.0000 0.33733  0.18029  0.86782  Biso   1.000  H
  H88      1.0000 0.42274  0.05480  0.70940  Biso   1.000  H
  C101     1.0000 0.42303  0.09078  0.88738  Biso   1.000  C
  H89      1.0000 0.34593  0.08290  0.86212  Biso   1.000  H
  C102     1.0000 0.37835  0.03508  0.83833  Biso   1.000  C
  H90      1.0000 0.40431  0.17581  0.47790  Biso   1.000  H
  H91      1.0000 0.43263  0.16669  0.56202  Biso   1.000  H
  H92      1.0000 0.41501  0.07910  0.50639  Biso   1.000  H
  C103     1.0000 0.43424  0.03247  0.56407  Biso   1.000  C
  C104     1.0000 0.45844  0.13886  0.97173  Biso   1.000  C
  C105     1.0000 0.43751  0.17460  0.08615  Biso   1.000  C
  H93      1.0000 0.41991  0.20810  0.17326  Biso   1.000  H
  H94      1.0000 0.69734  0.60251  0.85983  Biso   1.000  H
  H95      1.0000 0.65023  0.59711  0.91369  Biso   1.000  H
  H96      1.0000 0.64214  0.59041  0.82112  Biso   1.000  H
  H97      1.0000 0.52344  0.05351  0.63298  Biso   1.000  H
  C106     1.0000 0.62323  0.09168  0.74440  Biso   1.000  C
  H98      1.0000 0.65413  0.08290  0.63791  Biso   1.000  H
  C107     1.0000 0.62175  0.03508  0.66170  Biso   1.000  C
  O14      1.0000 0.67543  0.13949  0.70323  Biso   1.000  O
  H99      1.0000 0.61212  0.16630  0.66998  Biso   1.000  H
  H100     1.0000 0.66272  0.18029  0.63221  Biso   1.000  H
  C108     1.0000 0.65163  0.13841  0.83627  Biso   1.000  C
  C109     1.0000 0.71843  0.16991  0.92250  Biso   1.000  C
  H101     1.0000 0.77143  0.19830  0.98800  Biso   1.000  H
  C110     1.0000 0.41785  0.12259  0.92603  Biso   1.000  C
  C111     1.0000 0.47185  0.07502  0.89401  Biso   1.000  C
  H102     1.0000 0.40763  0.02691  0.80931  Biso   1.000  H
  H103     1.0000 0.38433  0.02681  0.89331  Biso   1.000  H
  C112     1.0000 0.32953  0.01811  0.80250  Biso   1.000  C
  H104     1.0000 0.45573  0.02309  0.52331  Biso   1.000  H
  H105     1.0000 0.45094  0.02570  0.61588  Biso   1.000  H
  C113     1.0000 0.38104  0.01539  0.55391  Biso   1.000  C
  C114     1.0000 0.50583  0.12151  0.97672  Biso   1.000  C
  H106     1.0000 0.43330  0.15351  0.11499  Biso   1.000  H
  C115     1.0000 0.59634  0.07570  0.80267  Biso   1.000  C
  C116     1.0000 0.64884  0.12283  0.76138  Biso   1.000  C
  H107     1.0000 0.59243  0.02691  0.69072  Biso   1.000  H
  H108     1.0000 0.61573  0.02681  0.60672  Biso   1.000  H
  C117     1.0000 0.67053  0.01811  0.69747  Biso   1.000  C
  C118     1.0000 0.62464  0.12070  0.89319  Biso   1.000  C
  H109     1.0000 0.72285  0.14911  0.95310  Biso   1.000  H
  H110     1.0000 0.47666  0.05351  0.86699  Biso   1.000  H
  C119     1.0000 0.51353  0.08949  0.93848  Biso   1.000  C
  H111     1.0000 0.32375  0.02559  0.74687  Biso   1.000  H
  H112     1.0000 0.29982  0.02641  0.83057  Biso   1.000  H
  C120     1.0000 0.33203  0.97781  0.80632  Biso   1.000  C
  H113     1.0000 0.35783  0.02699  0.58951  Biso   1.000  H
  H114     1.0000 0.36631  0.01900  0.49928  Biso   1.000  H
  C121     1.0000 0.38303  0.97630  0.57130  Biso   1.000  C
  O15      1.0000 0.54592  0.13651  0.02389  Biso   1.000  O
  C122     1.0000 0.59683  0.08991  0.87851  Biso   1.000  C
  H115     1.0000 0.57735  0.05480  0.79057  Biso   1.000  H
  H116     1.0000 0.67635  0.02559  0.75310  Biso   1.000  H
  H117     1.0000 0.70023  0.02641  0.66939  Biso   1.000  H
  C123     1.0000 0.66803  0.97781  0.69371  Biso   1.000  C
  O16      1.0000 0.62665  0.13514  0.96891  Biso   1.000  O
  C124     1.0000 0.56695  0.07286  0.94159  Biso   1.000  C
  H118     1.0000 0.35603  0.96932  0.76808  Biso   1.000  H
  H119     1.0000 0.34626  0.97061  0.85942  Biso   1.000  H
  C125     1.0000 0.27993  0.96012  0.78881  Biso   1.000  C
  H120     1.0000 0.39731  0.97280  0.62622  Biso   1.000  H
  H121     1.0000 0.40682  0.96492  0.53653  Biso   1.000  H
  C126     1.0000 0.33034  0.95791  0.56049  Biso   1.000  C
  C127     1.0000 0.58353  0.15631  0.98700  Biso   1.000  C
  H122     1.0000 0.64402  0.96932  0.73189  Biso   1.000  H
  H123     1.0000 0.65384  0.97061  0.64061  Biso   1.000  H
  C128     1.0000 0.72013  0.96012  0.71122  Biso   1.000  C
  H124     1.0000 0.58505  0.07910  0.99358  Biso   1.000  H
  C129     1.0000 0.56586  0.03247  0.93589  Biso   1.000  C
  H125     1.0000 0.26792  0.96449  0.73318  Biso   1.000  H
  H126     1.0000 0.25464  0.97082  0.82212  Biso   1.000  H
  C130     1.0000 0.28142  0.92040  0.80332  Biso   1.000  C
  H127     1.0000 0.30584  0.97021  0.59268  Biso   1.000  H
  H128     1.0000 0.31702  0.96001  0.50481  Biso   1.000  H
  C131     1.0000 0.33244  0.91921  0.58322  Biso   1.000  C
  H129     1.0000 0.56746  0.16669  0.93801  Biso   1.000  H
  H130     1.0000 0.59570  0.17581  0.02206  Biso   1.000  H
  H131     1.0000 0.73214  0.96449  0.76678  Biso   1.000  H
  H132     1.0000 0.74542  0.97082  0.67791  Biso   1.000  H
  C132     1.0000 0.71864  0.92040  0.69671  Biso   1.000  C
  H133     1.0000 0.54437  0.02309  0.97672  Biso   1.000  H
  H134     1.0000 0.54915  0.02570  0.88409  Biso   1.000  H
  C133     1.0000 0.61905  0.01539  0.94611  Biso   1.000  C
  H135     1.0000 0.24643  0.91091  0.79028  Biso   1.000  H
  H136     1.0000 0.30453  0.90969  0.76637  Biso   1.000  H
  C134     1.0000 0.29926  0.90872  0.88538  Biso   1.000  C
  H137     1.0000 0.35512  0.90672  0.54851  Biso   1.000  H
  H138     1.0000 0.34824  0.91721  0.63767  Biso   1.000  H
  C135     1.0000 0.28094  0.90110  0.57852  Biso   1.000  C
  H139     1.0000 0.75363  0.91091  0.70969  Biso   1.000  H
  H140     1.0000 0.69552  0.90969  0.73360  Biso   1.000  H
  C136     1.0000 0.70084  0.90872  0.61459  Biso   1.000  C
  H141     1.0000 0.64223  0.02699  0.91052  Biso   1.000  H
  C137     1.0000 0.61703  0.97630  0.92873  Biso   1.000  C
  H142     1.0000 0.63371  0.01900  0.00068  Biso   1.000  H
  H143     1.0000 0.33594  0.91531  0.89601  Biso   1.000  H
  H144     1.0000 0.29703  0.88270  0.88779  Biso   1.000  H
  C138     1.0000 0.26905  0.92401  0.94952  Biso   1.000  C
  H145     1.0000 0.26053  0.91080  0.62023  Biso   1.000  H
  H146     1.0000 0.26242  0.90711  0.52730  Biso   1.000  H
  C139     1.0000 0.28231  0.86452  0.58593  Biso   1.000  C
  C140     1.0000 0.25634  0.89562  0.50410  Biso   1.000  C
  H147     1.0000 0.66412  0.91531  0.60402  Biso   1.000  H
  H148     1.0000 0.70302  0.88270  0.61218  Biso   1.000  H
  C141     1.0000 0.73101  0.92401  0.55051  Biso   1.000  C
  H149     1.0000 0.60275  0.97280  0.87381  Biso   1.000  H
  H150     1.0000 0.59324  0.96492  0.96350  Biso   1.000  H
  C142     1.0000 0.66975  0.95791  0.93948  Biso   1.000  C
  H151     1.0000 0.23286  0.91692  0.94112  Biso   1.000  H
  H152     1.0000 0.27146  0.94981  0.94852  Biso   1.000  H
  H153     1.0000 0.28330  0.91531  0.00068  Biso   1.000  H
  H154     1.0000 0.25524  0.85690  0.61900  Biso   1.000  H
  H155     1.0000 0.31602  0.85732  0.61018  Biso   1.000  H
  H156     1.0000 0.27663  0.85371  0.53382  Biso   1.000  H
  H157     1.0000 0.71672  0.91531  0.49928  Biso   1.000  H
  H158     1.0000 0.76723  0.91692  0.55890  Biso   1.000  H
  H159     1.0000 0.72864  0.94981  0.55150  Biso   1.000  H
  H160     1.0000 0.69425  0.97021  0.90729  Biso   1.000  H
  H161     1.0000 0.68304  0.96001  0.99522  Biso   1.000  H
  C143     1.0000 0.66766  0.91921  0.91680  Biso   1.000  C
  H162     1.0000 0.64494  0.90672  0.95152  Biso   1.000  H
  H163     1.0000 0.65185  0.91721  0.86229  Biso   1.000  H
  C144     1.0000 0.71915  0.90110  0.92150  Biso   1.000  C
  H164     1.0000 0.73952  0.91080  0.87980  Biso   1.000  H
  H165     1.0000 0.73764  0.90711  0.97272  Biso   1.000  H
  C145     1.0000 0.71774  0.86452  0.91410  Biso   1.000  C
  C146     1.0000 0.74376  0.89562  0.99593  Biso   1.000  C
  H166     1.0000 0.74485  0.85690  0.88097  Biso   1.000  H
  H167     1.0000 0.68403  0.85732  0.88978  Biso   1.000  H
  H168     1.0000 0.72347  0.85371  0.96620  Biso   1.000  H
  C147     1.0000 0.34062  0.51621  0.36548  Biso   1.000  C
  C148     1.0000 0.39491  0.53131  0.38057  Biso   1.000  C
  H169     1.0000 0.32563  0.52509  0.31420  Biso   1.000  H
  H170     1.0000 0.31914  0.52520  0.40648  Biso   1.000  H
  C149     1.0000 0.33782  0.47659  0.36477  Biso   1.000  C
  C150     1.0000 0.39532  0.57135  0.37881  Biso   1.000  C
  H171     1.0000 0.41692  0.52230  0.34028  Biso   1.000  H
  H172     1.0000 0.40981  0.52320  0.43250  Biso   1.000  H
  H173     1.0000 0.35583  0.46771  0.31972  Biso   1.000  H
  H174     1.0000 0.35652  0.46750  0.41341  Biso   1.000  H
  C151     1.0000 0.28370  0.46220  0.35931  Biso   1.000  C
  C152     1.0000 0.38290  0.58669  0.29740  Biso   1.000  C
  C153     1.0000 0.44611  0.58719  0.41253  Biso   1.000  C
  H175     1.0000 0.36782  0.57960  0.41253  Biso   1.000  H
  H176     1.0000 0.26660  0.46979  0.40642  Biso   1.000  H
  H177     1.0000 0.26442  0.47269  0.31279  Biso   1.000  H
  C154     1.0000 0.27993  0.42261  0.35302  Biso   1.000  C
  C155     1.0000 0.40043  0.57101  0.23038  Biso   1.000  C
  C156     1.0000 0.35470  0.61788  0.28800  Biso   1.000  C
  C157     1.0000 0.44661  0.61890  0.45253  Biso   1.000  C
  C158     1.0000 0.49313  0.57104  0.40160  Biso   1.000  C
  H178     1.0000 0.24350  0.41560  0.35050  Biso   1.000  H
  H179     1.0000 0.29531  0.41470  0.30539  Biso   1.000  H
  H180     1.0000 0.29831  0.41180  0.39919  Biso   1.000  H
  C159     1.0000 0.38811  0.58551  0.15472  Biso   1.000  C
  H181     1.0000 0.42081  0.55029  0.23572  Biso   1.000  H
  C160     1.0000 0.34092  0.63287  0.21457  Biso   1.000  C
  O17      1.0000 0.33803  0.63443  0.35437  Biso   1.000  O
  O18      1.0000 0.40011  0.63620  0.46392  Biso   1.000  O
  C161     1.0000 0.49234  0.63440  0.48560  Biso   1.000  C
  C162     1.0000 0.54001  0.58511  0.43150  Biso   1.000  C
  H182     1.0000 0.49311  0.54961  0.37270  Biso   1.000  H
  C163     1.0000 0.40821  0.56819  0.08241  Biso   1.000  C
  C164     1.0000 0.35972  0.61614  0.14932  Biso   1.000  C
  C165     1.0000 0.30431  0.66385  0.20541  Biso   1.000  C
  C166     1.0000 0.37572  0.65459  0.39908  Biso   1.000  C
  C167     1.0000 0.53874  0.61711  0.47221  Biso   1.000  C
  C168     1.0000 0.49244  0.66719  0.53371  Biso   1.000  C
  C169     1.0000 0.59180  0.56819  0.41758  Biso   1.000  C
  C170     1.0000 0.41090  0.52836  0.08688  Biso   1.000  C
  H183     1.0000 0.38361  0.57431  0.03648  Biso   1.000  H
  C171     1.0000 0.46001  0.58511  0.06849  Biso   1.000  C
  O19      1.0000 0.34621  0.63098  0.07513  Biso   1.000  O
  S5       1.0000 0.33567  0.70341  0.17962  Biso   1.000  S
  H184     1.0000 0.27660  0.65831  0.16429  Biso   1.000  H
  H185     1.0000 0.28811  0.66751  0.25528  Biso   1.000  H
  H186     1.0000 0.35912  0.67610  0.41858  Biso   1.000  H
  H187     1.0000 0.40244  0.66232  0.36430  Biso   1.000  H
  O20      1.0000 0.58424  0.63166  0.50768  Biso   1.000  O
  S6       1.0000 0.51102  0.70644  0.48090  Biso   1.000  S
  H188     1.0000 0.45753  0.67080  0.55168  Biso   1.000  H
  H189     1.0000 0.51664  0.66411  0.58087  Biso   1.000  H
  C172     1.0000 0.61192  0.58551  0.34533  Biso   1.000  C
  H190     1.0000 0.61641  0.57431  0.46351  Biso   1.000  H
  C173     1.0000 0.58912  0.52836  0.41311  Biso   1.000  C
  C174     1.0000 0.35881  0.51070  0.09492  Biso   1.000  C
  H191     1.0000 0.42550  0.51940  0.03889  Biso   1.000  H
  H192     1.0000 0.43471  0.52161  0.13240  Biso   1.000  H
  C175     1.0000 0.46132  0.61711  0.02778  Biso   1.000  C
  C176     1.0000 0.50692  0.57104  0.09839  Biso   1.000  C
  C177     1.0000 0.38592  0.65119  0.04411  Biso   1.000  C
  C178     1.0000 0.29591  0.73691  0.21892  Biso   1.000  C
  C179     1.0000 0.61414  0.65119  0.45588  Biso   1.000  C
  C180     1.0000 0.45040  0.72951  0.45758  Biso   1.000  C
  C181     1.0000 0.59963  0.57101  0.26961  Biso   1.000  C
  C182     1.0000 0.64033  0.61614  0.35067  Biso   1.000  C
  H193     1.0000 0.57452  0.51940  0.46110  Biso   1.000  H
  H194     1.0000 0.56531  0.52161  0.36759  Biso   1.000  H
  C183     1.0000 0.64121  0.51070  0.40513  Biso   1.000  C
  C184     1.0000 0.36483  0.47050  0.10832  Biso   1.000  C
  H195     1.0000 0.34232  0.52130  0.13962  Biso   1.000  H
  H196     1.0000 0.33609  0.51500  0.04658  Biso   1.000  H
  C185     1.0000 0.50772  0.63440  0.01439  Biso   1.000  C
  O21      1.0000 0.41586  0.63166  0.99231  Biso   1.000  O
  C186     1.0000 0.55391  0.58719  0.08752  Biso   1.000  C
  H197     1.0000 0.50691  0.54961  0.12729  Biso   1.000  H
  H198     1.0000 0.37021  0.67170  0.01539  Biso   1.000  H
  H199     1.0000 0.40912  0.66039  0.08811  Biso   1.000  H
  C187     1.0000 0.29252  0.76952  0.16729  Biso   1.000  C
  H200     1.0000 0.31050  0.74350  0.27220  Biso   1.000  H
  H201     1.0000 0.26092  0.72740  0.22362  Biso   1.000  H
  O22      1.0000 0.65382  0.63098  0.42492  Biso   1.000  O
  H202     1.0000 0.62984  0.67170  0.48460  Biso   1.000  H
  H203     1.0000 0.59090  0.66039  0.41188  Biso   1.000  H
  C188     1.0000 0.44682  0.76290  0.50439  Biso   1.000  C
  H204     1.0000 0.42142  0.71372  0.46851  Biso   1.000  H
  H205     1.0000 0.44711  0.73530  0.40090  Biso   1.000  H
  C189     1.0000 0.61712  0.58669  0.20259  Biso   1.000  C
  H206     1.0000 0.57921  0.55029  0.26433  Biso   1.000  H
  C190     1.0000 0.65910  0.63287  0.28541  Biso   1.000  C
  H207     1.0000 0.65770  0.52130  0.36042  Biso   1.000  H
  H208     1.0000 0.66393  0.51500  0.45341  Biso   1.000  H
  C191     1.0000 0.63523  0.47050  0.39167  Biso   1.000  C
  C192     1.0000 0.31720  0.45250  0.11877  Biso   1.000  C
  H209     1.0000 0.38883  0.46639  0.15531  Biso   1.000  H
  H210     1.0000 0.38050  0.46001  0.06262  Biso   1.000  H
  C193     1.0000 0.55341  0.61890  0.04752  Biso   1.000  C
  C194     1.0000 0.50766  0.66719  0.96634  Biso   1.000  C
  C195     1.0000 0.60470  0.57135  0.12118  Biso   1.000  C
  C196     1.0000 0.25699  0.77060  0.10133  Biso   1.000  C
  C197     1.0000 0.32221  0.79891  0.18650  Biso   1.000  C
  C198     1.0000 0.45441  0.79561  0.47080  Biso   1.000  C
  C199     1.0000 0.43592  0.76211  0.58158  Biso   1.000  C
  C200     1.0000 0.64532  0.61788  0.21199  Biso   1.000  C
  C201     1.0000 0.69571  0.66385  0.29458  Biso   1.000  C
  H211     1.0000 0.61123  0.46639  0.34468  Biso   1.000  H
  H212     1.0000 0.61952  0.46001  0.43737  Biso   1.000  H
  C202     1.0000 0.68282  0.45250  0.38122  Biso   1.000  C
  C203     1.0000 0.33350  0.41159  0.13240  Biso   1.000  C
  H213     1.0000 0.30090  0.46191  0.16500  Biso   1.000  H
  H214     1.0000 0.29289  0.45511  0.07178  Biso   1.000  H
  O23      1.0000 0.59991  0.63620  0.03612  Biso   1.000  O
  S7       1.0000 0.48900  0.70644  0.01909  Biso   1.000  S
  H215     1.0000 0.54256  0.67080  0.94831  Biso   1.000  H
  H216     1.0000 0.48346  0.66411  0.91912  Biso   1.000  H
  H217     1.0000 0.63221  0.57960  0.08752  Biso   1.000  H
  C204     1.0000 0.60511  0.53131  0.11942  Biso   1.000  C
  C205     1.0000 0.25232  0.80102  0.05709  Biso   1.000  C
  H218     1.0000 0.23651  0.75051  0.08711  Biso   1.000  H
  C206     1.0000 0.31790  0.82977  0.14268  Biso   1.000  C
  H219     1.0000 0.34643  0.79801  0.23102  Biso   1.000  H
  C207     1.0000 0.45104  0.82672  0.51109  Biso   1.000  C
  H220     1.0000 0.46231  0.79651  0.41740  Biso   1.000  H
  H221     1.0000 0.43273  0.74021  0.60772  Biso   1.000  H
  C208     1.0000 0.42984  0.79271  0.62082  Biso   1.000  C
  O24      1.0000 0.66199  0.63443  0.14561  Biso   1.000  O
  S8       1.0000 0.66435  0.70341  0.32042  Biso   1.000  S
  H222     1.0000 0.72342  0.65831  0.33570  Biso   1.000  H
  H223     1.0000 0.71190  0.66751  0.24471  Biso   1.000  H
  H224     1.0000 0.69912  0.46191  0.33499  Biso   1.000  H
  H225     1.0000 0.70713  0.45511  0.42821  Biso   1.000  H
  C209     1.0000 0.66652  0.41159  0.36759  Biso   1.000  C
  H226     1.0000 0.30270  0.39749  0.14021  Biso   1.000  H
  H227     1.0000 0.34980  0.40289  0.08629  Biso   1.000  H
  H228     1.0000 0.35790  0.40962  0.17892  Biso   1.000  H
  C210     1.0000 0.62430  0.65459  0.10091  Biso   1.000  C
  C211     1.0000 0.54961  0.72951  0.04241  Biso   1.000  C
  H229     1.0000 0.58309  0.52230  0.15971  Biso   1.000  H
  H230     1.0000 0.59021  0.52320  0.06749  Biso   1.000  H
  C212     1.0000 0.65940  0.51621  0.13451  Biso   1.000  C
  C213     1.0000 0.28160  0.83012  0.07748  Biso   1.000  C
  H231     1.0000 0.22860  0.80170  0.01198  Biso   1.000  H
  C214     1.0000 0.34841  0.86162  0.16371  Biso   1.000  C
  C215     1.0000 0.45842  0.86114  0.47168  Biso   1.000  C
  C216     1.0000 0.43754  0.82540  0.58622  Biso   1.000  C
  H232     1.0000 0.41993  0.79190  0.67327  Biso   1.000  H
  C217     1.0000 0.70411  0.73691  0.28113  Biso   1.000  C
  H233     1.0000 0.69732  0.39749  0.35978  Biso   1.000  H
  H234     1.0000 0.65022  0.40289  0.41370  Biso   1.000  H
  H235     1.0000 0.64212  0.40962  0.32113  Biso   1.000  H
  H236     1.0000 0.64090  0.67610  0.08141  Biso   1.000  H
  H237     1.0000 0.59762  0.66232  0.13569  Biso   1.000  H
  H238     1.0000 0.57860  0.71372  0.03148  Biso   1.000  H
  H239     1.0000 0.55291  0.73530  0.09909  Biso   1.000  H
  C218     1.0000 0.55323  0.76290  0.99559  Biso   1.000  C
  H240     1.0000 0.67442  0.52509  0.18579  Biso   1.000  H
  H241     1.0000 0.68092  0.52520  0.09351  Biso   1.000  H
  C219     1.0000 0.66220  0.47659  0.13522  Biso   1.000  C
  H242     1.0000 0.27719  0.85091  0.04687  Biso   1.000  H
  C220     1.0000 0.35123  0.87717  0.23860  Biso   1.000  C
  C221     1.0000 0.37540  0.87930  0.10679  Biso   1.000  C
  C222     1.0000 0.41783  0.87741  0.42598  Biso   1.000  C
  C223     1.0000 0.50582  0.87851  0.47673  Biso   1.000  C
  H243     1.0000 0.43332  0.84651  0.61500  Biso   1.000  H
  C224     1.0000 0.70750  0.76952  0.33270  Biso   1.000  C
  H244     1.0000 0.68952  0.74350  0.22779  Biso   1.000  H
  H245     1.0000 0.73910  0.72740  0.27643  Biso   1.000  H
  C225     1.0000 0.54561  0.79561  0.02919  Biso   1.000  C
  C226     1.0000 0.56414  0.76211  0.91841  Biso   1.000  C
  H246     1.0000 0.64419  0.46771  0.18027  Biso   1.000  H
  H247     1.0000 0.64350  0.46750  0.08658  Biso   1.000  H
  C227     1.0000 0.71631  0.46220  0.14068  Biso   1.000  C
  O25      1.0000 0.32461  0.86051  0.29681  Biso   1.000  O
  C228     1.0000 0.37681  0.90832  0.25557  Biso   1.000  C
  O26      1.0000 0.37342  0.86486  0.03107  Biso   1.000  O
  C229     1.0000 0.40321  0.91012  0.12147  Biso   1.000  C
  O27      1.0000 0.36962  0.86088  0.42251  Biso   1.000  O
  C230     1.0000 0.42301  0.90922  0.38739  Biso   1.000  C
  O28      1.0000 0.54594  0.86349  0.52390  Biso   1.000  O
  C231     1.0000 0.51352  0.91054  0.43849  Biso   1.000  C
  C232     1.0000 0.74303  0.77060  0.39872  Biso   1.000  C
  C233     1.0000 0.67781  0.79891  0.31349  Biso   1.000  C
  H248     1.0000 0.53770  0.79651  0.08259  Biso   1.000  H
  C234     1.0000 0.54905  0.82672  0.98890  Biso   1.000  C
  H249     1.0000 0.56733  0.74021  0.89233  Biso   1.000  H
  C235     1.0000 0.57025  0.79271  0.87923  Biso   1.000  C
  H250     1.0000 0.73342  0.46979  0.09357  Biso   1.000  H
  H251     1.0000 0.73560  0.47269  0.18720  Biso   1.000  H
  C236     1.0000 0.72009  0.42261  0.14702  Biso   1.000  C
  C237     1.0000 0.35602  0.84121  0.35349  Biso   1.000  C
  C238     1.0000 0.40370  0.92430  0.19731  Biso   1.000  C
  C239     1.0000 0.37802  0.92480  0.33828  Biso   1.000  C
  C240     1.0000 0.41651  0.84372  0.01298  Biso   1.000  C
  C241     1.0000 0.43309  0.92714  0.05839  Biso   1.000  C
  C242     1.0000 0.47184  0.92498  0.39402  Biso   1.000  C
  C243     1.0000 0.58351  0.84372  0.48701  Biso   1.000  C
  C244     1.0000 0.56693  0.92714  0.44160  Biso   1.000  C
  C245     1.0000 0.74774  0.80102  0.44289  Biso   1.000  C
  H252     1.0000 0.76350  0.75051  0.41288  Biso   1.000  H
  C246     1.0000 0.68212  0.82977  0.35731  Biso   1.000  C
  H253     1.0000 0.65363  0.79801  0.26903  Biso   1.000  H
  C247     1.0000 0.54160  0.86114  0.02831  Biso   1.000  C
  C248     1.0000 0.56256  0.82540  0.91383  Biso   1.000  C
  H254     1.0000 0.58012  0.79190  0.82672  Biso   1.000  H
  H255     1.0000 0.75652  0.41560  0.14949  Biso   1.000  H
  H256     1.0000 0.70471  0.41470  0.19460  Biso   1.000  H
  H257     1.0000 0.70170  0.41180  0.10080  Biso   1.000  H
  H258     1.0000 0.38791  0.83370  0.33000  Biso   1.000  H
  H259     1.0000 0.33731  0.81971  0.36783  Biso   1.000  H
  H260     1.0000 0.42272  0.94520  0.20941  Biso   1.000  H
  H261     1.0000 0.34591  0.91710  0.36213  Biso   1.000  H
  C249     1.0000 0.37833  0.96492  0.33828  Biso   1.000  C
  O29      1.0000 0.45416  0.86349  0.97609  Biso   1.000  O
  H262     1.0000 0.43261  0.83331  0.06203  Biso   1.000  H
  H263     1.0000 0.40433  0.82421  0.97791  Biso   1.000  H
  C250     1.0000 0.48650  0.91054  0.06150  Biso   1.000  C
  H264     1.0000 0.41499  0.92090  0.00640  Biso   1.000  H
  C251     1.0000 0.43422  0.96753  0.06408  Biso   1.000  C
  H265     1.0000 0.47664  0.94652  0.36700  Biso   1.000  H
  O30      1.0000 0.62664  0.86486  0.46892  Biso   1.000  O
  H266     1.0000 0.59572  0.82421  0.52208  Biso   1.000  H
  H267     1.0000 0.56741  0.83331  0.43802  Biso   1.000  H
  C252     1.0000 0.59681  0.91012  0.37852  Biso   1.000  C
  H268     1.0000 0.58503  0.92090  0.49359  Biso   1.000  H
  C253     1.0000 0.56584  0.96753  0.43590  Biso   1.000  C
  C254     1.0000 0.71842  0.83012  0.42251  Biso   1.000  C
  H269     1.0000 0.77142  0.80170  0.48801  Biso   1.000  H
  C255     1.0000 0.65161  0.86162  0.33628  Biso   1.000  C
  C256     1.0000 0.58219  0.87741  0.07401  Biso   1.000  C
  C257     1.0000 0.49421  0.87851  0.02332  Biso   1.000  C
  H270     1.0000 0.56674  0.84651  0.88505  Biso   1.000  H
  H271     1.0000 0.40761  0.97311  0.30932  Biso   1.000  H
  H272     1.0000 0.38431  0.97322  0.39332  Biso   1.000  H
  C258     1.0000 0.32951  0.98192  0.30251  Biso   1.000  C
  C259     1.0000 0.52822  0.92498  0.10602  Biso   1.000  C
  H273     1.0000 0.45571  0.97691  0.02332  Biso   1.000  H
  H274     1.0000 0.45092  0.97430  0.11589  Biso   1.000  H
  C260     1.0000 0.38102  0.98461  0.05392  Biso   1.000  C
  C261     1.0000 0.62462  0.87930  0.39320  Biso   1.000  C
  C262     1.0000 0.59632  0.92430  0.30268  Biso   1.000  C
  H275     1.0000 0.54431  0.97691  0.47673  Biso   1.000  H
  H276     1.0000 0.54913  0.97430  0.38410  Biso   1.000  H
  C263     1.0000 0.61904  0.98461  0.44613  Biso   1.000  C
  H277     1.0000 0.72283  0.85091  0.45312  Biso   1.000  H
  C264     1.0000 0.64883  0.87717  0.26139  Biso   1.000  C
  O31      1.0000 0.63040  0.86088  0.07748  Biso   1.000  O
  C265     1.0000 0.57701  0.90922  0.11260  Biso   1.000  C
  H278     1.0000 0.32373  0.97441  0.24688  Biso   1.000  H
  H279     1.0000 0.29980  0.97361  0.33059  Biso   1.000  H
  C266     1.0000 0.33201  0.02219  0.30633  Biso   1.000  C
  H280     1.0000 0.52342  0.94652  0.13299  Biso   1.000  H
  H281     1.0000 0.35781  0.97301  0.08952  Biso   1.000  H
  H282     1.0000 0.36633  0.98100  0.99930  Biso   1.000  H
  C267     1.0000 0.38301  0.02370  0.07131  Biso   1.000  C
  C268     1.0000 0.62321  0.90832  0.24441  Biso   1.000  C
  H283     1.0000 0.57730  0.94520  0.29058  Biso   1.000  H
  H284     1.0000 0.64221  0.97301  0.41047  Biso   1.000  H
  H285     1.0000 0.63373  0.98100  0.50069  Biso   1.000  H
  C269     1.0000 0.61701  0.02370  0.42868  Biso   1.000  C
  O32      1.0000 0.67541  0.86051  0.20318  Biso   1.000  O
  C270     1.0000 0.64400  0.84121  0.14650  Biso   1.000  C
  C271     1.0000 0.62200  0.92480  0.16171  Biso   1.000  C
  H286     1.0000 0.35601  0.03071  0.26809  Biso   1.000  H
  H287     1.0000 0.34620  0.02939  0.35943  Biso   1.000  H
  C272     1.0000 0.27991  0.03991  0.28882  Biso   1.000  C
  H288     1.0000 0.39729  0.02720  0.12617  Biso   1.000  H
  H289     1.0000 0.40680  0.03511  0.03648  Biso   1.000  H
  C273     1.0000 0.33032  0.04209  0.06050  Biso   1.000  C
  H290     1.0000 0.60273  0.02720  0.37382  Biso   1.000  H
  H291     1.0000 0.59322  0.03511  0.46351  Biso   1.000  H
  C274     1.0000 0.66973  0.04209  0.43949  Biso   1.000  C
  H292     1.0000 0.61210  0.83370  0.16999  Biso   1.000  H
  H293     1.0000 0.66271  0.81971  0.13222  Biso   1.000  H
  H294     1.0000 0.65411  0.91710  0.13792  Biso   1.000  H
  C275     1.0000 0.62173  0.96492  0.16171  Biso   1.000  C
  H295     1.0000 0.26790  0.03551  0.23320  Biso   1.000  H
  H296     1.0000 0.25462  0.02921  0.32213  Biso   1.000  H
  C276     1.0000 0.28140  0.07960  0.30327  Biso   1.000  C
  H297     1.0000 0.30582  0.02981  0.09269  Biso   1.000  H
  H298     1.0000 0.31700  0.04001  0.00482  Biso   1.000  H
  C277     1.0000 0.33242  0.08079  0.08317  Biso   1.000  C
  H299     1.0000 0.69424  0.02981  0.40730  Biso   1.000  H
  H300     1.0000 0.68302  0.04001  0.49517  Biso   1.000  H
  C278     1.0000 0.66764  0.08079  0.41681  Biso   1.000  C
  H301     1.0000 0.59241  0.97311  0.19073  Biso   1.000  H
  H302     1.0000 0.61570  0.97322  0.10667  Biso   1.000  H
  C279     1.0000 0.67051  0.98192  0.19748  Biso   1.000  C
  H303     1.0000 0.24641  0.08909  0.29029  Biso   1.000  H
  H304     1.0000 0.30451  0.09031  0.26638  Biso   1.000  H
  C280     1.0000 0.29920  0.09131  0.38539  Biso   1.000  C
  H305     1.0000 0.35510  0.09331  0.04852  Biso   1.000  H
  H306     1.0000 0.34822  0.08279  0.13769  Biso   1.000  H
  C281     1.0000 0.28092  0.09890  0.07848  Biso   1.000  C
  H307     1.0000 0.64491  0.09331  0.45147  Biso   1.000  H
  H308     1.0000 0.65184  0.08279  0.36230  Biso   1.000  H
  C282     1.0000 0.71913  0.09890  0.42151  Biso   1.000  C
  H309     1.0000 0.67633  0.97441  0.25311  Biso   1.000  H
  H310     1.0000 0.70022  0.97361  0.16940  Biso   1.000  H
  C283     1.0000 0.66801  0.02219  0.19372  Biso   1.000  C
  H311     1.0000 0.33592  0.08469  0.39602  Biso   1.000  H
  H312     1.0000 0.29701  0.11730  0.38780  Biso   1.000  H
  C284     1.0000 0.26903  0.07599  0.44947  Biso   1.000  C
  H313     1.0000 0.26051  0.08920  0.12018  Biso   1.000  H
  H314     1.0000 0.26240  0.09289  0.02731  Biso   1.000  H
  C285     1.0000 0.28229  0.13551  0.08588  Biso   1.000  C
  C286     1.0000 0.25632  0.10441  0.00411  Biso   1.000  C
  H315     1.0000 0.73951  0.08920  0.37981  Biso   1.000  H
  H316     1.0000 0.73762  0.09289  0.47268  Biso   1.000  H
  C287     1.0000 0.71773  0.13551  0.41411  Biso   1.000  C
  C288     1.0000 0.74374  0.10441  0.49588  Biso   1.000  C
  H317     1.0000 0.64400  0.03071  0.23190  Biso   1.000  H
  H318     1.0000 0.65382  0.02939  0.14062  Biso   1.000  H
  C289     1.0000 0.72011  0.03991  0.21123  Biso   1.000  C
  H319     1.0000 0.28332  0.08469  0.50069  Biso   1.000  H
  H320     1.0000 0.23280  0.08311  0.44107  Biso   1.000  H
  H321     1.0000 0.27144  0.05021  0.44847  Biso   1.000  H
  H322     1.0000 0.25522  0.14310  0.11901  Biso   1.000  H
  H323     1.0000 0.31600  0.14271  0.11020  Biso   1.000  H
  H324     1.0000 0.27661  0.14629  0.03378  Biso   1.000  H
  H325     1.0000 0.74483  0.14310  0.38098  Biso   1.000  H
  H326     1.0000 0.68401  0.14271  0.38979  Biso   1.000  H
  H327     1.0000 0.72341  0.14629  0.46621  Biso   1.000  H
  H328     1.0000 0.73212  0.03551  0.26679  Biso   1.000  H
  H329     1.0000 0.74540  0.02921  0.17792  Biso   1.000  H
  C290     1.0000 0.71862  0.07960  0.19672  Biso   1.000  C
  H330     1.0000 0.75361  0.08909  0.20970  Biso   1.000  H
  H331     1.0000 0.69551  0.09031  0.23361  Biso   1.000  H
  C291     1.0000 0.70082  0.09131  0.11460  Biso   1.000  C
  H332     1.0000 0.66410  0.08469  0.10403  Biso   1.000  H
  H333     1.0000 0.70301  0.11730  0.11219  Biso   1.000  H
  C292     1.0000 0.73099  0.07599  0.05052  Biso   1.000  C
  H334     1.0000 0.71674  0.08469  0.99930  Biso   1.000  H
  H335     1.0000 0.76721  0.08311  0.05892  Biso   1.000  H
  H336     1.0000 0.72862  0.05021  0.05151  Biso   1.000  H
  C293     1.0000 0.23101  0.42401  0.55051  Biso   1.000  C
  C294     1.0000 0.20084  0.40869  0.61459  Biso   1.000  C
  H337     1.0000 0.21672  0.41531  0.49928  Biso   1.000  H
  H338     1.0000 0.26723  0.41689  0.55890  Biso   1.000  H
  H339     1.0000 0.22864  0.44981  0.55150  Biso   1.000  H
  C295     1.0000 0.21864  0.42040  0.69671  Biso   1.000  C
  H340     1.0000 0.16412  0.41531  0.60402  Biso   1.000  H
  H341     1.0000 0.20302  0.38270  0.61218  Biso   1.000  H
  C296     1.0000 0.22013  0.46009  0.71122  Biso   1.000  C
  H342     1.0000 0.25363  0.41091  0.70969  Biso   1.000  H
  H343     1.0000 0.19552  0.40969  0.73360  Biso   1.000  H
  C297     1.0000 0.16803  0.47781  0.69371  Biso   1.000  C
  H344     1.0000 0.23214  0.46449  0.76678  Biso   1.000  H
  H345     1.0000 0.24542  0.47079  0.67791  Biso   1.000  H
  C298     1.0000 0.17053  0.51811  0.69747  Biso   1.000  C
  H346     1.0000 0.14402  0.46929  0.73189  Biso   1.000  H
  H347     1.0000 0.15384  0.47061  0.64061  Biso   1.000  H
  C299     1.0000 0.12175  0.53508  0.66170  Biso   1.000  C
  H348     1.0000 0.17635  0.52559  0.75310  Biso   1.000  H
  H349     1.0000 0.20023  0.52641  0.66939  Biso   1.000  H
  C300     1.0000 0.12201  0.57523  0.66170  Biso   1.000  C
  H350     1.0000 0.09243  0.52691  0.69072  Biso   1.000  H
  H351     1.0000 0.11573  0.52681  0.60672  Biso   1.000  H
  C301     1.0000 0.12323  0.59168  0.74440  Biso   1.000  C
  C302     1.0000 0.07703  0.59078  0.61259  Biso   1.000  C
  H352     1.0000 0.15413  0.58290  0.63791  Biso   1.000  H
  C303     1.0000 0.14884  0.62283  0.76138  Biso   1.000  C
  C304     1.0000 0.09634  0.57570  0.80267  Biso   1.000  C
  C305     1.0000 0.08221  0.62259  0.57400  Biso   1.000  C
  C306     1.0000 0.02824  0.57502  0.60601  Biso   1.000  C
  O33      1.0000 0.17543  0.63949  0.70323  Biso   1.000  O
  C307     1.0000 0.15163  0.63841  0.83627  Biso   1.000  C
  H353     1.0000 0.07735  0.55480  0.79057  Biso   1.000  H
  C308     1.0000 0.09683  0.58991  0.87851  Biso   1.000  C
  O34      1.0000 0.13042  0.63912  0.57753  Biso   1.000  O
  C309     1.0000 0.04162  0.63886  0.52830  Biso   1.000  C
  H354     1.0000 0.02344  0.55351  0.63298  Biso   1.000  H
  C310     1.0000 0.98652  0.58949  0.56149  Biso   1.000  C
  C311     1.0000 0.14402  0.65881  0.64649  Biso   1.000  C
  C312     1.0000 0.12464  0.62070  0.89319  Biso   1.000  C
  C313     1.0000 0.18214  0.67023  0.85730  Biso   1.000  C
  C314     1.0000 0.06695  0.57286  0.94159  Biso   1.000  C
  C315     1.0000 0.04903  0.67331  0.48889  Biso   1.000  C
  C316     1.0000 0.99422  0.62151  0.52331  Biso   1.000  C
  C317     1.0000 0.93314  0.57286  0.55838  Biso   1.000  C
  H355     1.0000 0.11212  0.66630  0.66998  Biso   1.000  H
  H356     1.0000 0.16272  0.68029  0.63221  Biso   1.000  H
  O35      1.0000 0.12665  0.63517  0.96891  Biso   1.000  O
  C318     1.0000 0.21843  0.66991  0.92250  Biso   1.000  C
  C319     1.0000 0.17783  0.70112  0.81348  Biso   1.000  C
  C320     1.0000 0.01353  0.58949  0.93848  Biso   1.000  C
  H357     1.0000 0.08505  0.57910  0.99358  Biso   1.000  H
  C321     1.0000 0.06586  0.53247  0.93589  Biso   1.000  C
  C322     1.0000 0.04563  0.70441  0.52918  Biso   1.000  C
  C323     1.0000 0.06250  0.67460  0.41382  Biso   1.000  C
  O36      1.0000 0.95414  0.63651  0.47608  Biso   1.000  O
  C324     1.0000 0.90323  0.58991  0.62152  Biso   1.000  C
  H358     1.0000 0.91504  0.57910  0.50639  Biso   1.000  H
  C325     1.0000 0.93424  0.53247  0.56407  Biso   1.000  C
  C326     1.0000 0.08353  0.65631  0.98700  Biso   1.000  C
  H359     1.0000 0.22285  0.64911  0.95310  Biso   1.000  H
  C327     1.0000 0.24776  0.69901  0.94288  Biso   1.000  C
  C328     1.0000 0.20756  0.73051  0.83269  Biso   1.000  C
  H360     1.0000 0.15365  0.70201  0.76902  Biso   1.000  H
  C329     1.0000 0.00583  0.62151  0.97672  Biso   1.000  C
  C330     1.0000 0.97185  0.57502  0.89401  Biso   1.000  C
  H361     1.0000 0.04433  0.52312  0.97672  Biso   1.000  H
  H362     1.0000 0.04915  0.52570  0.88409  Biso   1.000  H
  C331     1.0000 0.11905  0.51539  0.94611  Biso   1.000  C
  H363     1.0000 0.03772  0.70352  0.58258  Biso   1.000  H
  C332     1.0000 0.05321  0.73710  0.49558  Biso   1.000  C
  C333     1.0000 0.07023  0.70731  0.37922  Biso   1.000  C
  H364     1.0000 0.06671  0.65351  0.38498  Biso   1.000  H
  C334     1.0000 0.91653  0.65631  0.51297  Biso   1.000  C
  C335     1.0000 0.90375  0.57570  0.69729  Biso   1.000  C
  C336     1.0000 0.87542  0.62070  0.60678  Biso   1.000  C
  H365     1.0000 0.95573  0.52312  0.52331  Biso   1.000  H
  H366     1.0000 0.95094  0.52570  0.61588  Biso   1.000  H
  C337     1.0000 0.88104  0.51539  0.55391  Biso   1.000  C
  H367     1.0000 0.06743  0.66669  0.93801  Biso   1.000  H
  O37      1.0000 0.04592  0.63651  0.02389  Biso   1.000  O
  H368     1.0000 0.09570  0.67581  0.02206  Biso   1.000  H
  H369     1.0000 0.27143  0.69830  0.98800  Biso   1.000  H
  C338     1.0000 0.24305  0.72940  0.89871  Biso   1.000  C
  C339     1.0000 0.20413  0.76311  0.78112  Biso   1.000  C
  C340     1.0000 0.95844  0.63886  0.97173  Biso   1.000  C
  C341     1.0000 0.92303  0.59078  0.88738  Biso   1.000  C
  H370     1.0000 0.97666  0.55351  0.86699  Biso   1.000  H
  H371     1.0000 0.14223  0.52699  0.91052  Biso   1.000  H
  C342     1.0000 0.11703  0.47630  0.92873  Biso   1.000  C
  H372     1.0000 0.13371  0.51900  0.00068  Biso   1.000  H
  C343     1.0000 0.06412  0.73791  0.41840  Biso   1.000  C
  C344     1.0000 0.04963  0.77049  0.54240  Biso   1.000  C
  H373     1.0000 0.08010  0.70810  0.32671  Biso   1.000  H
  O38      1.0000 0.87344  0.63517  0.53112  Biso   1.000  O
  H374     1.0000 0.90431  0.67581  0.47790  Biso   1.000  H
  H375     1.0000 0.93263  0.66669  0.56202  Biso   1.000  H
  C345     1.0000 0.87683  0.59168  0.75562  Biso   1.000  C
  H376     1.0000 0.92274  0.55480  0.70940  Biso   1.000  H
  C346     1.0000 0.84843  0.63841  0.66370  Biso   1.000  C
  H377     1.0000 0.85783  0.52699  0.58951  Biso   1.000  H
  H378     1.0000 0.86631  0.51900  0.49928  Biso   1.000  H
  C347     1.0000 0.88303  0.47630  0.57130  Biso   1.000  C
  H379     1.0000 0.26356  0.74951  0.91293  Biso   1.000  H
  S9       1.0000 0.16437  0.79662  0.82041  Biso   1.000  S
  H380     1.0000 0.18954  0.75650  0.72778  Biso   1.000  H
  H381     1.0000 0.23912  0.77260  0.77642  Biso   1.000  H
  C348     1.0000 0.91785  0.62259  0.92603  Biso   1.000  C
  C349     1.0000 0.95098  0.67331  0.01108  Biso   1.000  C
  C350     1.0000 0.87804  0.57523  0.83833  Biso   1.000  C
  H382     1.0000 0.10275  0.47280  0.87381  Biso   1.000  H
  H383     1.0000 0.09324  0.46492  0.96350  Biso   1.000  H
  C351     1.0000 0.16975  0.45791  0.93948  Biso   1.000  C
  H384     1.0000 0.06731  0.75982  0.39232  Biso   1.000  H
  H385     1.0000 0.07862  0.78631  0.53147  Biso   1.000  H
  H386     1.0000 0.05293  0.76470  0.59908  Biso   1.000  H
  S10      1.0000 0.98901  0.79358  0.51908  Biso   1.000  S
  C352     1.0000 0.85125  0.62283  0.73859  Biso   1.000  C
  C353     1.0000 0.81792  0.67023  0.64273  Biso   1.000  C
  H387     1.0000 0.89735  0.47280  0.62622  Biso   1.000  H
  H388     1.0000 0.90682  0.46492  0.53653  Biso   1.000  H
  C354     1.0000 0.83034  0.45791  0.56049  Biso   1.000  C
  C355     1.0000 0.19573  0.83615  0.79463  Biso   1.000  C
  O39      1.0000 0.86964  0.63912  0.92250  Biso   1.000  O
  C356     1.0000 0.95443  0.70441  0.97079  Biso   1.000  C
  C357     1.0000 0.93751  0.67460  0.08615  Biso   1.000  C
  H389     1.0000 0.84593  0.58290  0.86212  Biso   1.000  H
  C358     1.0000 0.87835  0.53508  0.83833  Biso   1.000  C
  H390     1.0000 0.19425  0.47021  0.90729  Biso   1.000  H
  H391     1.0000 0.18304  0.46001  0.99522  Biso   1.000  H
  C359     1.0000 0.16766  0.41921  0.91680  Biso   1.000  C
  C360     1.0000 0.00764  0.83281  0.46627  Biso   1.000  C
  O40      1.0000 0.82463  0.63949  0.79680  Biso   1.000  O
  C361     1.0000 0.78162  0.66991  0.57753  Biso   1.000  C
  C362     1.0000 0.82222  0.70112  0.68649  Biso   1.000  C
  H392     1.0000 0.80584  0.47021  0.59268  Biso   1.000  H
  H393     1.0000 0.81702  0.46001  0.50481  Biso   1.000  H
  C363     1.0000 0.83244  0.41921  0.58322  Biso   1.000  C
  H394     1.0000 0.22344  0.84172  0.83568  Biso   1.000  H
  H395     1.0000 0.21192  0.83252  0.74470  Biso   1.000  H
  C364     1.0000 0.15912  0.86715  0.78540  Biso   1.000  C
  C365     1.0000 0.85604  0.65881  0.85348  Biso   1.000  C
  H396     1.0000 0.96233  0.70352  0.91739  Biso   1.000  H
  C366     1.0000 0.94680  0.73710  0.00438  Biso   1.000  C
  C367     1.0000 0.92982  0.70731  0.12081  Biso   1.000  C
  H397     1.0000 0.93330  0.65351  0.11499  Biso   1.000  H
  H398     1.0000 0.90763  0.52691  0.80931  Biso   1.000  H
  H399     1.0000 0.88433  0.52681  0.89331  Biso   1.000  H
  C368     1.0000 0.82953  0.51811  0.80250  Biso   1.000  C
  H400     1.0000 0.14494  0.40672  0.95152  Biso   1.000  H
  H401     1.0000 0.15185  0.41721  0.86229  Biso   1.000  H
  C369     1.0000 0.21915  0.40110  0.92150  Biso   1.000  C
  C370     1.0000 0.00774  0.86560  0.51438  Biso   1.000  C
  H402     1.0000 0.04250  0.82920  0.44830  Biso   1.000  H
  H403     1.0000 0.98344  0.83592  0.41911  Biso   1.000  H
  H404     1.0000 0.77725  0.64911  0.54692  Biso   1.000  H
  C371     1.0000 0.75234  0.69901  0.55708  Biso   1.000  C
  C372     1.0000 0.79254  0.73051  0.66728  Biso   1.000  C
  H405     1.0000 0.84645  0.70201  0.73101  Biso   1.000  H
  H406     1.0000 0.85512  0.40672  0.54851  Biso   1.000  H
  H407     1.0000 0.84824  0.41721  0.63767  Biso   1.000  H
  C373     1.0000 0.78094  0.40110  0.57852  Biso   1.000  C
  C374     1.0000 0.14533  0.88215  0.71198  Biso   1.000  C
  C375     1.0000 0.14035  0.88389  0.85072  Biso   1.000  C
  H408     1.0000 0.88793  0.66630  0.82999  Biso   1.000  H
  H409     1.0000 0.83733  0.68029  0.86782  Biso   1.000  H
  C376     1.0000 0.95046  0.77049  0.95763  Biso   1.000  C
  C377     1.0000 0.93590  0.73791  0.08157  Biso   1.000  C
  H410     1.0000 0.91991  0.70810  0.17326  Biso   1.000  H
  H411     1.0000 0.82375  0.52559  0.74687  Biso   1.000  H
  H412     1.0000 0.79982  0.52641  0.83057  Biso   1.000  H
  C378     1.0000 0.83203  0.47781  0.80632  Biso   1.000  C
  H413     1.0000 0.23952  0.41080  0.87980  Biso   1.000  H
  H414     1.0000 0.23764  0.40711  0.97272  Biso   1.000  H
  C379     1.0000 0.21774  0.36452  0.91410  Biso   1.000  C
  C380     1.0000 0.24376  0.39559  0.99593  Biso   1.000  C
  C381     1.0000 0.05343  0.88110  0.54751  Biso   1.000  C
  C382     1.0000 0.96134  0.88291  0.52777  Biso   1.000  C
  H415     1.0000 0.72862  0.69830  0.51197  Biso   1.000  H
  C383     1.0000 0.75705  0.72940  0.60131  Biso   1.000  C
  C384     1.0000 0.79593  0.76311  0.71891  Biso   1.000  C
  H416     1.0000 0.76053  0.41080  0.62023  Biso   1.000  H
  H417     1.0000 0.76242  0.40711  0.52730  Biso   1.000  H
  C385     1.0000 0.78231  0.36452  0.58593  Biso   1.000  C
  C386     1.0000 0.75634  0.39559  0.50410  Biso   1.000  C
  O41      1.0000 0.16205  0.86560  0.64560  Biso   1.000  O
  C387     1.0000 0.11714  0.91331  0.70258  Biso   1.000  C
  O42      1.0000 0.15383  0.86905  0.92491  Biso   1.000  O
  C388     1.0000 0.11193  0.91452  0.84532  Biso   1.000  C
  S11      1.0000 0.01104  0.79358  0.98089  Biso   1.000  S
  H418     1.0000 0.92144  0.78631  0.96849  Biso   1.000  H
  H419     1.0000 0.94716  0.76470  0.90089  Biso   1.000  H
  H420     1.0000 0.93271  0.75982  0.10771  Biso   1.000  H
  H421     1.0000 0.85603  0.46929  0.76808  Biso   1.000  H
  H422     1.0000 0.84626  0.47061  0.85942  Biso   1.000  H
  C389     1.0000 0.77993  0.46009  0.78881  Biso   1.000  C
  H423     1.0000 0.24485  0.35690  0.88097  Biso   1.000  H
  H424     1.0000 0.18403  0.35729  0.88978  Biso   1.000  H
  H425     1.0000 0.22343  0.35371  0.96620  Biso   1.000  H
  O43      1.0000 0.09993  0.86383  0.53611  Biso   1.000  O
  C390     1.0000 0.05393  0.91281  0.58751  Biso   1.000  C
  O44      1.0000 0.91584  0.86834  0.49229  Biso   1.000  O
  C391     1.0000 0.96003  0.91491  0.56848  Biso   1.000  C
  H426     1.0000 0.73653  0.74951  0.58710  Biso   1.000  H
  S12      1.0000 0.83572  0.79662  0.67961  Biso   1.000  S
  H427     1.0000 0.81055  0.75650  0.77219  Biso   1.000  H
  H428     1.0000 0.76094  0.77260  0.72361  Biso   1.000  H
  H429     1.0000 0.75524  0.35690  0.61900  Biso   1.000  H
  H430     1.0000 0.81602  0.35729  0.61018  Biso   1.000  H
  H431     1.0000 0.77663  0.35371  0.53382  Biso   1.000  H
  C392     1.0000 0.12432  0.84541  0.60090  Biso   1.000  C
  C393     1.0000 0.09965  0.92902  0.76960  Biso   1.000  C
  C394     1.0000 0.10472  0.92865  0.62123  Biso   1.000  C
  C395     1.0000 0.11416  0.84881  0.95592  Biso   1.000  C
  C396     1.0000 0.09183  0.93184  0.91763  Biso   1.000  C
  C397     1.0000 0.99242  0.83281  0.03370  Biso   1.000  C
  H432     1.0000 0.76795  0.46449  0.73318  Biso   1.000  H
  H433     1.0000 0.75464  0.47079  0.82212  Biso   1.000  H
  C398     1.0000 0.78142  0.42040  0.80332  Biso   1.000  C
  C399     1.0000 0.00694  0.92896  0.59838  Biso   1.000  C
  C400     1.0000 0.88594  0.84881  0.54410  Biso   1.000  C
  C401     1.0000 0.90823  0.93184  0.58240  Biso   1.000  C
  C402     1.0000 0.80433  0.83615  0.70540  Biso   1.000  C
  H434     1.0000 0.14092  0.82390  0.58140  Biso   1.000  H
  H435     1.0000 0.09764  0.83771  0.63568  Biso   1.000  H
  H436     1.0000 0.07923  0.94971  0.76432  Biso   1.000  H
  H437     1.0000 0.13222  0.92040  0.58751  Biso   1.000  H
  C403     1.0000 0.10513  0.96871  0.61941  Biso   1.000  C
  H438     1.0000 0.12986  0.82830  0.98459  Biso   1.000  H
  H439     1.0000 0.09092  0.83961  0.91193  Biso   1.000  H
  O45      1.0000 0.08422  0.86834  0.00767  Biso   1.000  O
  H440     1.0000 0.11646  0.92569  0.96350  Biso   1.000  H
  C404     1.0000 0.04003  0.91491  0.93149  Biso   1.000  C
  C405     1.0000 0.08914  0.97164  0.91310  Biso   1.000  C
  C406     1.0000 0.99236  0.86560  0.98559  Biso   1.000  C
  H441     1.0000 0.95751  0.82920  0.05167  Biso   1.000  H
  H442     1.0000 0.01662  0.83592  0.08086  Biso   1.000  H
  H443     1.0000 0.74643  0.41091  0.79028  Biso   1.000  H
  H444     1.0000 0.80453  0.40969  0.76637  Biso   1.000  H
  C407     1.0000 0.79926  0.40869  0.88538  Biso   1.000  C
  H445     1.0000 0.00693  0.95042  0.62728  Biso   1.000  H
  O46      1.0000 0.84622  0.86905  0.57512  Biso   1.000  O
  H446     1.0000 0.87023  0.82830  0.51538  Biso   1.000  H
  H447     1.0000 0.90913  0.83961  0.58810  Biso   1.000  H
  C408     1.0000 0.88812  0.91452  0.65471  Biso   1.000  C
  H448     1.0000 0.88363  0.92569  0.53653  Biso   1.000  H
  C409     1.0000 0.91092  0.97164  0.58692  Biso   1.000  C
  H449     1.0000 0.77662  0.84172  0.66428  Biso   1.000  H
  H450     1.0000 0.78813  0.83252  0.75527  Biso   1.000  H
  C410     1.0000 0.84094  0.86715  0.71462  Biso   1.000  C
  H451     1.0000 0.08311  0.97770  0.65970  Biso   1.000  H
  H452     1.0000 0.09023  0.97680  0.56748  Biso   1.000  H
  C411     1.0000 0.15942  0.98382  0.63450  Biso   1.000  C
  C412     1.0000 0.03876  0.88291  0.97220  Biso   1.000  C
  C413     1.0000 0.99315  0.92896  0.90159  Biso   1.000  C
  H453     1.0000 0.07454  0.98060  0.96109  Biso   1.000  H
  H454     1.0000 0.06532  0.97841  0.86758  Biso   1.000  H
  C414     1.0000 0.14123  0.98930  0.90511  Biso   1.000  C
  C415     1.0000 0.94663  0.88110  0.95252  Biso   1.000  C
  H455     1.0000 0.83594  0.41531  0.89601  Biso   1.000  H
  H456     1.0000 0.79703  0.38270  0.88779  Biso   1.000  H
  C416     1.0000 0.76905  0.42401  0.94952  Biso   1.000  C
  C417     1.0000 0.85974  0.88389  0.64930  Biso   1.000  C
  C418     1.0000 0.90045  0.92902  0.73042  Biso   1.000  C
  H457     1.0000 0.92551  0.98060  0.53887  Biso   1.000  H
  H458     1.0000 0.93473  0.97841  0.63239  Biso   1.000  H
  C419     1.0000 0.85883  0.98930  0.59491  Biso   1.000  C
  C420     1.0000 0.85472  0.88215  0.78799  Biso   1.000  C
  H459     1.0000 0.17444  0.97491  0.68578  Biso   1.000  H
  H460     1.0000 0.18094  0.97480  0.59350  Biso   1.000  H
  C421     1.0000 0.16222  0.02341  0.63521  Biso   1.000  C
  C422     1.0000 0.94613  0.91281  0.91252  Biso   1.000  C
  H461     1.0000 0.99313  0.95042  0.87269  Biso   1.000  H
  H462     1.0000 0.15776  0.97870  0.86041  Biso   1.000  H
  H463     1.0000 0.16395  0.98500  0.95340  Biso   1.000  H
  C423     1.0000 0.13525  0.02950  0.89172  Biso   1.000  C
  O47      1.0000 0.90013  0.86383  0.96391  Biso   1.000  O
  H464     1.0000 0.73286  0.41689  0.94112  Biso   1.000  H
  H465     1.0000 0.77146  0.44981  0.94852  Biso   1.000  H
  H466     1.0000 0.78330  0.41531  0.00068  Biso   1.000  H
  C424     1.0000 0.88296  0.91331  0.79739  Biso   1.000  C
  H467     1.0000 0.92083  0.94971  0.73571  Biso   1.000  H
  H468     1.0000 0.84234  0.97870  0.63961  Biso   1.000  H
  H469     1.0000 0.83615  0.98500  0.54663  Biso   1.000  H
  C425     1.0000 0.86484  0.02950  0.60830  Biso   1.000  C
  O48      1.0000 0.83805  0.86560  0.85442  Biso   1.000  O
  H470     1.0000 0.14425  0.03229  0.68032  Biso   1.000  H
  H471     1.0000 0.14352  0.03250  0.58657  Biso   1.000  H
  C426     1.0000 0.21634  0.03780  0.64073  Biso   1.000  C
  C427     1.0000 0.89534  0.92865  0.87880  Biso   1.000  C
  H472     1.0000 0.11125  0.03361  0.84467  Biso   1.000  H
  H473     1.0000 0.11954  0.04001  0.93742  Biso   1.000  H
  C428     1.0000 0.18283  0.04750  0.88121  Biso   1.000  C
  C429     1.0000 0.87574  0.84541  0.89912  Biso   1.000  C
  H474     1.0000 0.88885  0.03361  0.65530  Biso   1.000  H
  H475     1.0000 0.88052  0.04001  0.56261  Biso   1.000  H
  C430     1.0000 0.81722  0.04750  0.61882  Biso   1.000  C
  H476     1.0000 0.23344  0.03021  0.59362  Biso   1.000  H
  H477     1.0000 0.23562  0.02731  0.68719  Biso   1.000  H
  C431     1.0000 0.22015  0.07739  0.64701  Biso   1.000  C
  H478     1.0000 0.86783  0.92040  0.91252  Biso   1.000  H
  C432     1.0000 0.89493  0.96871  0.88062  Biso   1.000  C
  H479     1.0000 0.19913  0.03809  0.83498  Biso   1.000  H
  H480     1.0000 0.20714  0.04489  0.92820  Biso   1.000  H
  C433     1.0000 0.16654  0.08841  0.86758  Biso   1.000  C
  H481     1.0000 0.85914  0.82390  0.91862  Biso   1.000  H
  H482     1.0000 0.90245  0.83771  0.86429  Biso   1.000  H
  H483     1.0000 0.80092  0.03809  0.66499  Biso   1.000  H
  H484     1.0000 0.79291  0.04489  0.57183  Biso   1.000  H
  C434     1.0000 0.83352  0.08841  0.63239  Biso   1.000  C
  H485     1.0000 0.25654  0.08440  0.64948  Biso   1.000  H
  H486     1.0000 0.20472  0.08530  0.69459  Biso   1.000  H
  H487     1.0000 0.20172  0.08820  0.60079  Biso   1.000  H
  H488     1.0000 0.91695  0.97770  0.84033  Biso   1.000  H
  H489     1.0000 0.90983  0.97680  0.93249  Biso   1.000  H
  C435     1.0000 0.84064  0.98382  0.86552  Biso   1.000  C
  H490     1.0000 0.19734  0.10251  0.85983  Biso   1.000  H
  H491     1.0000 0.15023  0.09711  0.91369  Biso   1.000  H
  H492     1.0000 0.14214  0.09041  0.82112  Biso   1.000  H
  H493     1.0000 0.80272  0.10251  0.64020  Biso   1.000  H
  H494     1.0000 0.84982  0.09711  0.58628  Biso   1.000  H
  H495     1.0000 0.85792  0.09041  0.67891  Biso   1.000  H
  H496     1.0000 0.82565  0.97491  0.81419  Biso   1.000  H
  H497     1.0000 0.81916  0.97480  0.90652  Biso   1.000  H
  C436     1.0000 0.83784  0.02341  0.86482  Biso   1.000  C
  H498     1.0000 0.85585  0.03229  0.81971  Biso   1.000  H
  H499     1.0000 0.85653  0.03250  0.91340  Biso   1.000  H
  C437     1.0000 0.78376  0.03780  0.85930  Biso   1.000  C
  H500     1.0000 0.76666  0.03021  0.90641  Biso   1.000  H
  H501     1.0000 0.76444  0.02731  0.81278  Biso   1.000  H
  C438     1.0000 0.77995  0.07739  0.85301  Biso   1.000  C
  H502     1.0000 0.74356  0.08440  0.85049  Biso   1.000  H
  H503     1.0000 0.79533  0.08530  0.80538  Biso   1.000  H
  H504     1.0000 0.79833  0.08820  0.89918  Biso   1.000  H
  C439     1.0000 0.16973  0.54209  0.43949  Biso   1.000  C
  C440     1.0000 0.11701  0.52370  0.42868  Biso   1.000  C
  H505     1.0000 0.19424  0.52981  0.40730  Biso   1.000  H
  H506     1.0000 0.18302  0.54001  0.49517  Biso   1.000  H
  C441     1.0000 0.16764  0.58082  0.41681  Biso   1.000  C
  C442     1.0000 0.11904  0.48461  0.44613  Biso   1.000  C
  H507     1.0000 0.10273  0.52720  0.37382  Biso   1.000  H
  H508     1.0000 0.09322  0.53511  0.46351  Biso   1.000  H
  H509     1.0000 0.14491  0.59331  0.45147  Biso   1.000  H
  H510     1.0000 0.15184  0.58279  0.36230  Biso   1.000  H
  C443     1.0000 0.21913  0.59890  0.42151  Biso   1.000  C
  C444     1.0000 0.06580  0.46753  0.43590  Biso   1.000  C
  H511     1.0000 0.14221  0.47301  0.41047  Biso   1.000  H
  H512     1.0000 0.13373  0.48100  0.50069  Biso   1.000  H
  H513     1.0000 0.23951  0.58920  0.37981  Biso   1.000  H
  H514     1.0000 0.23762  0.59291  0.47268  Biso   1.000  H
  C445     1.0000 0.21773  0.63551  0.41411  Biso   1.000  C
  C446     1.0000 0.24374  0.60441  0.49588  Biso   1.000  C
  C447     1.0000 0.06693  0.42714  0.44160  Biso   1.000  C
  H515     1.0000 0.04431  0.47691  0.47673  Biso   1.000  H
  H516     1.0000 0.04913  0.47430  0.38410  Biso   1.000  H
  H517     1.0000 0.24483  0.64310  0.38098  Biso   1.000  H
  H518     1.0000 0.18401  0.64271  0.38979  Biso   1.000  H
  H519     1.0000 0.22341  0.64632  0.46621  Biso   1.000  H
  C448     1.0000 0.09681  0.41009  0.37852  Biso   1.000  C
  C449     1.0000 0.01352  0.41051  0.43849  Biso   1.000  C
  H520     1.0000 0.08503  0.42090  0.49359  Biso   1.000  H
  C450     1.0000 0.12462  0.37930  0.39320  Biso   1.000  C
  C451     1.0000 0.09632  0.42430  0.30268  Biso   1.000  C
  C452     1.0000 0.00582  0.37851  0.47673  Biso   1.000  C
  C453     1.0000 0.97184  0.42498  0.39402  Biso   1.000  C
  C454     1.0000 0.15161  0.36159  0.33628  Biso   1.000  C
  O49      1.0000 0.12664  0.36486  0.46892  Biso   1.000  O
  C455     1.0000 0.12321  0.40832  0.24441  Biso   1.000  C
  H521     1.0000 0.07730  0.44520  0.29058  Biso   1.000  H
  O50      1.0000 0.04594  0.36349  0.52390  Biso   1.000  O
  C456     1.0000 0.95842  0.36114  0.47168  Biso   1.000  C
  C457     1.0000 0.92301  0.40922  0.38739  Biso   1.000  C
  H522     1.0000 0.97664  0.44649  0.36700  Biso   1.000  H
  C458     1.0000 0.18212  0.32977  0.35731  Biso   1.000  C
  C459     1.0000 0.14883  0.37717  0.26139  Biso   1.000  C
  C460     1.0000 0.08351  0.34369  0.48701  Biso   1.000  C
  C461     1.0000 0.12200  0.42477  0.16171  Biso   1.000  C
  C462     1.0000 0.91783  0.37741  0.42598  Biso   1.000  C
  C463     1.0000 0.95104  0.32669  0.51109  Biso   1.000  C
  C464     1.0000 0.87802  0.42477  0.33828  Biso   1.000  C
  C465     1.0000 0.17781  0.29891  0.31349  Biso   1.000  C
  C466     1.0000 0.21842  0.33009  0.42251  Biso   1.000  C
  O51      1.0000 0.17541  0.36051  0.20318  Biso   1.000  O
  H523     1.0000 0.09572  0.32421  0.52208  Biso   1.000  H
  H524     1.0000 0.06741  0.33331  0.43802  Biso   1.000  H
  C467     1.0000 0.07701  0.40922  0.11260  Biso   1.000  C
  H525     1.0000 0.15411  0.41710  0.13792  Biso   1.000  H
  C468     1.0000 0.12173  0.46492  0.16171  Biso   1.000  C
  O52      1.0000 0.86962  0.36088  0.42251  Biso   1.000  O
  C469     1.0000 0.95441  0.29561  0.47080  Biso   1.000  C
  C470     1.0000 0.93754  0.32540  0.58622  Biso   1.000  C
  C471     1.0000 0.87681  0.40832  0.25557  Biso   1.000  C
  H526     1.0000 0.84591  0.41710  0.36213  Biso   1.000  H
  C472     1.0000 0.87833  0.46492  0.33828  Biso   1.000  C
  C473     1.0000 0.20750  0.26949  0.33270  Biso   1.000  C
  H527     1.0000 0.15363  0.29801  0.26903  Biso   1.000  H
  C474     1.0000 0.24774  0.30099  0.44289  Biso   1.000  C
  H528     1.0000 0.22283  0.35091  0.45312  Biso   1.000  H
  C475     1.0000 0.14400  0.34121  0.14650  Biso   1.000  C
  C476     1.0000 0.08219  0.37741  0.07401  Biso   1.000  C
  C477     1.0000 0.02822  0.42498  0.10602  Biso   1.000  C
  H529     1.0000 0.09241  0.47311  0.19073  Biso   1.000  H
  H530     1.0000 0.11570  0.47319  0.10667  Biso   1.000  H
  C478     1.0000 0.17051  0.48189  0.19748  Biso   1.000  C
  C479     1.0000 0.85602  0.34121  0.35349  Biso   1.000  C
  C480     1.0000 0.94682  0.26290  0.50439  Biso   1.000  C
  H531     1.0000 0.96231  0.29651  0.41740  Biso   1.000  H
  C481     1.0000 0.92984  0.29271  0.62082  Biso   1.000  C
  H532     1.0000 0.93332  0.34651  0.61500  Biso   1.000  H
  C482     1.0000 0.90370  0.42430  0.19731  Biso   1.000  C
  C483     1.0000 0.85123  0.37717  0.23860  Biso   1.000  C
  H533     1.0000 0.90761  0.47311  0.30932  Biso   1.000  H
  H534     1.0000 0.88431  0.47319  0.39332  Biso   1.000  H
  C484     1.0000 0.82951  0.48189  0.30251  Biso   1.000  C
  C485     1.0000 0.20411  0.23691  0.28113  Biso   1.000  C
  C486     1.0000 0.24303  0.27060  0.39872  Biso   1.000  C
  H535     1.0000 0.27142  0.30170  0.48801  Biso   1.000  H
  O53      1.0000 0.13040  0.36088  0.07748  Biso   1.000  O
  H536     1.0000 0.11210  0.33370  0.16999  Biso   1.000  H
  H537     1.0000 0.16271  0.31971  0.13222  Biso   1.000  H
  C487     1.0000 0.04160  0.36114  0.02831  Biso   1.000  C
  H538     1.0000 0.02342  0.44649  0.13299  Biso   1.000  H
  C488     1.0000 0.98650  0.41051  0.06150  Biso   1.000  C
  H539     1.0000 0.17633  0.47441  0.25311  Biso   1.000  H
  H540     1.0000 0.20022  0.47361  0.16940  Biso   1.000  H
  C489     1.0000 0.16801  0.52219  0.19372  Biso   1.000  C
  O54      1.0000 0.82461  0.36051  0.29681  Biso   1.000  O
  H541     1.0000 0.88791  0.33370  0.33000  Biso   1.000  H
  H542     1.0000 0.83731  0.31971  0.36783  Biso   1.000  H
  C490     1.0000 0.95044  0.22951  0.45758  Biso   1.000  C
  C491     1.0000 0.93592  0.26211  0.58158  Biso   1.000  C
  H543     1.0000 0.91993  0.29190  0.67327  Biso   1.000  H
  C492     1.0000 0.90321  0.41009  0.12147  Biso   1.000  C
  H544     1.0000 0.92272  0.44520  0.20941  Biso   1.000  H
  C493     1.0000 0.84841  0.36159  0.16371  Biso   1.000  C
  H545     1.0000 0.82373  0.47441  0.24688  Biso   1.000  H
  H546     1.0000 0.79980  0.47361  0.33059  Biso   1.000  H
  C494     1.0000 0.83201  0.52219  0.30633  Biso   1.000  C
  S13      1.0000 0.16435  0.20341  0.32042  Biso   1.000  S
  H547     1.0000 0.18952  0.24350  0.22779  Biso   1.000  H
  H548     1.0000 0.23910  0.22740  0.27643  Biso   1.000  H
  H549     1.0000 0.26350  0.25051  0.41288  Biso   1.000  H
  C495     1.0000 0.99421  0.37851  0.02332  Biso   1.000  C
  C496     1.0000 0.04905  0.32669  0.98890  Biso   1.000  C
  C497     1.0000 0.93312  0.42714  0.05839  Biso   1.000  C
  H550     1.0000 0.14400  0.53071  0.23190  Biso   1.000  H
  H551     1.0000 0.15382  0.52942  0.14062  Biso   1.000  H
  C498     1.0000 0.22011  0.53991  0.21123  Biso   1.000  C
  S14      1.0000 0.01102  0.20644  0.48090  Biso   1.000  S
  H552     1.0000 0.92142  0.21369  0.46851  Biso   1.000  H
  H553     1.0000 0.94711  0.23530  0.40090  Biso   1.000  H
  H554     1.0000 0.93273  0.24021  0.60772  Biso   1.000  H
  C499     1.0000 0.87540  0.37930  0.10679  Biso   1.000  C
  C500     1.0000 0.81790  0.32977  0.14268  Biso   1.000  C
  H555     1.0000 0.85601  0.53071  0.26809  Biso   1.000  H
  H556     1.0000 0.84624  0.52942  0.35943  Biso   1.000  H
  C501     1.0000 0.77991  0.53991  0.28882  Biso   1.000  C
  C502     1.0000 0.19571  0.16385  0.29458  Biso   1.000  C
  O55      1.0000 0.95416  0.36349  0.97609  Biso   1.000  O
  C503     1.0000 0.04561  0.29561  0.02919  Biso   1.000  C
  C504     1.0000 0.06256  0.32540  0.91383  Biso   1.000  C
  H557     1.0000 0.91499  0.42090  0.00640  Biso   1.000  H
  C505     1.0000 0.93422  0.46753  0.06408  Biso   1.000  C
  H558     1.0000 0.23212  0.53551  0.26679  Biso   1.000  H
  H559     1.0000 0.24540  0.52921  0.17792  Biso   1.000  H
  C506     1.0000 0.21862  0.57960  0.19672  Biso   1.000  C
  C507     1.0000 0.99244  0.16719  0.53371  Biso   1.000  C
  O56      1.0000 0.87342  0.36486  0.03107  Biso   1.000  O
  C508     1.0000 0.78160  0.33009  0.07748  Biso   1.000  C
  C509     1.0000 0.82221  0.29891  0.18650  Biso   1.000  C
  H560     1.0000 0.76790  0.53551  0.23320  Biso   1.000  H
  H561     1.0000 0.75462  0.52921  0.32213  Biso   1.000  H
  C510     1.0000 0.78140  0.57960  0.30327  Biso   1.000  C
  H562     1.0000 0.22342  0.15831  0.33570  Biso   1.000  H
  H563     1.0000 0.21190  0.16751  0.24471  Biso   1.000  H
  C511     1.0000 0.15910  0.13285  0.28541  Biso   1.000  C
  C512     1.0000 0.91651  0.34369  0.01298  Biso   1.000  C
  C513     1.0000 0.05323  0.26290  0.99559  Biso   1.000  C
  H564     1.0000 0.03770  0.29651  0.08259  Biso   1.000  H
  C514     1.0000 0.07025  0.29271  0.87923  Biso   1.000  C
  H565     1.0000 0.06674  0.34651  0.88505  Biso   1.000  H
  H566     1.0000 0.95571  0.47691  0.02332  Biso   1.000  H
  H567     1.0000 0.95092  0.47430  0.11589  Biso   1.000  H
  C515     1.0000 0.88102  0.48461  0.05392  Biso   1.000  C
  H568     1.0000 0.25361  0.58909  0.20970  Biso   1.000  H
  H569     1.0000 0.19551  0.59031  0.23361  Biso   1.000  H
  C516     1.0000 0.20082  0.59131  0.11460  Biso   1.000  C
  C517     1.0000 0.99234  0.13440  0.48560  Biso   1.000  C
  H570     1.0000 0.01664  0.16411  0.58087  Biso   1.000  H
  H571     1.0000 0.95753  0.17080  0.55168  Biso   1.000  H
  H572     1.0000 0.77719  0.35091  0.04687  Biso   1.000  H
  C518     1.0000 0.75232  0.30099  0.05709  Biso   1.000  C
  C519     1.0000 0.79252  0.26949  0.16729  Biso   1.000  C
  H573     1.0000 0.84643  0.29801  0.23102  Biso   1.000  H
  H574     1.0000 0.74641  0.58909  0.29029  Biso   1.000  H
  H575     1.0000 0.80451  0.59031  0.26638  Biso   1.000  H
  C520     1.0000 0.79924  0.59131  0.38539  Biso   1.000  C
  C521     1.0000 0.14532  0.11785  0.21199  Biso   1.000  C
  C522     1.0000 0.14033  0.11611  0.35067  Biso   1.000  C
  H576     1.0000 0.90433  0.32421  0.97791  Biso   1.000  H
  H577     1.0000 0.93261  0.33331  0.06203  Biso   1.000  H
  C523     1.0000 0.04961  0.22951  0.04241  Biso   1.000  C
  C524     1.0000 0.06414  0.26211  0.91841  Biso   1.000  C
  H578     1.0000 0.08012  0.29190  0.82672  Biso   1.000  H
  H579     1.0000 0.86633  0.48100  0.99930  Biso   1.000  H
  H580     1.0000 0.85781  0.47301  0.08952  Biso   1.000  H
  C525     1.0000 0.88301  0.52370  0.07131  Biso   1.000  C
  H581     1.0000 0.16410  0.58472  0.10403  Biso   1.000  H
  H582     1.0000 0.20301  0.61730  0.11219  Biso   1.000  H
  C526     1.0000 0.23099  0.57599  0.05052  Biso   1.000  C
  C527     1.0000 0.03874  0.11711  0.47221  Biso   1.000  C
  C528     1.0000 0.94661  0.11890  0.45253  Biso   1.000  C
  C529     1.0000 0.75699  0.27060  0.10133  Biso   1.000  C
  H583     1.0000 0.72860  0.30170  0.01198  Biso   1.000  H
  C530     1.0000 0.79591  0.23691  0.21892  Biso   1.000  C
  H584     1.0000 0.83592  0.58472  0.39602  Biso   1.000  H
  H585     1.0000 0.79701  0.61730  0.38780  Biso   1.000  H
  C531     1.0000 0.76903  0.57599  0.44947  Biso   1.000  C
  O57      1.0000 0.16199  0.13443  0.14561  Biso   1.000  O
  C532     1.0000 0.11712  0.08669  0.20259  Biso   1.000  C
  O58      1.0000 0.15382  0.13098  0.42492  Biso   1.000  O
  C533     1.0000 0.11192  0.08551  0.34533  Biso   1.000  C
  S15      1.0000 0.98900  0.20644  0.01909  Biso   1.000  S
  H586     1.0000 0.07860  0.21369  0.03148  Biso   1.000  H
  H587     1.0000 0.05291  0.23530  0.09909  Biso   1.000  H
  H588     1.0000 0.06733  0.24021  0.89233  Biso   1.000  H
  H589     1.0000 0.89729  0.52720  0.12617  Biso   1.000  H
  H590     1.0000 0.90680  0.53511  0.03648  Biso   1.000  H
  C534     1.0000 0.83032  0.54209  0.06050  Biso   1.000  C
  H591     1.0000 0.26721  0.58311  0.05892  Biso   1.000  H
  H592     1.0000 0.22862  0.55021  0.05151  Biso   1.000  H
  H593     1.0000 0.21674  0.58472  0.99930  Biso   1.000  H
  O59      1.0000 0.08424  0.13166  0.50768  Biso   1.000  O
  C535     1.0000 0.04001  0.08511  0.43150  Biso   1.000  C
  C536     1.0000 0.94611  0.08719  0.41253  Biso   1.000  C
  O60      1.0000 0.90011  0.13617  0.46392  Biso   1.000  O
  H594     1.0000 0.73651  0.25051  0.08711  Biso   1.000  H
  S16      1.0000 0.83567  0.20341  0.17962  Biso   1.000  S
  H595     1.0000 0.81053  0.24350  0.27220  Biso   1.000  H
  H596     1.0000 0.76092  0.22740  0.22362  Biso   1.000  H
  H597     1.0000 0.78332  0.58472  0.50069  Biso   1.000  H
  H598     1.0000 0.73280  0.58311  0.44107  Biso   1.000  H
  H599     1.0000 0.77144  0.55021  0.44847  Biso   1.000  H
  C537     1.0000 0.12430  0.15459  0.10091  Biso   1.000  C
  C538     1.0000 0.09963  0.07101  0.26961  Biso   1.000  C
  C539     1.0000 0.10470  0.07135  0.12118  Biso   1.000  C
  C540     1.0000 0.11410  0.15119  0.45588  Biso   1.000  C
  C541     1.0000 0.09180  0.06819  0.41758  Biso   1.000  C
  C542     1.0000 0.00766  0.16719  0.96634  Biso   1.000  C
  H600     1.0000 0.80582  0.52981  0.09269  Biso   1.000  H
  H601     1.0000 0.81700  0.54001  0.00482  Biso   1.000  H
  C543     1.0000 0.83242  0.58082  0.08317  Biso   1.000  C
  C544     1.0000 0.99313  0.07104  0.40160  Biso   1.000  C
  C545     1.0000 0.89532  0.07135  0.37881  Biso   1.000  C
  C546     1.0000 0.87572  0.15459  0.39908  Biso   1.000  C
  C547     1.0000 0.80431  0.16385  0.20541  Biso   1.000  C
  O61      1.0000 0.09991  0.13617  0.03612  Biso   1.000  O
  H602     1.0000 0.14090  0.17610  0.08141  Biso   1.000  H
  H603     1.0000 0.09762  0.16229  0.13569  Biso   1.000  H
  H604     1.0000 0.07921  0.05029  0.26433  Biso   1.000  H
  C548     1.0000 0.05391  0.08719  0.08752  Biso   1.000  C
  H605     1.0000 0.13221  0.07960  0.08752  Biso   1.000  H
  C549     1.0000 0.10511  0.03129  0.11942  Biso   1.000  C
  H606     1.0000 0.12981  0.17170  0.48460  Biso   1.000  H
  H607     1.0000 0.09090  0.16039  0.41188  Biso   1.000  H
  H608     1.0000 0.11641  0.07431  0.46351  Biso   1.000  H
  C550     1.0000 0.08912  0.02836  0.41311  Biso   1.000  C
  C551     1.0000 0.00772  0.13440  0.01439  Biso   1.000  C
  H609     1.0000 0.98346  0.16411  0.91912  Biso   1.000  H
  H610     1.0000 0.04256  0.17080  0.94831  Biso   1.000  H
  H611     1.0000 0.85510  0.59331  0.04852  Biso   1.000  H
  H612     1.0000 0.84822  0.58279  0.13769  Biso   1.000  H
  C552     1.0000 0.78092  0.59890  0.07848  Biso   1.000  C
  H613     1.0000 0.99311  0.04961  0.37270  Biso   1.000  H
  C553     1.0000 0.88290  0.08669  0.29740  Biso   1.000  C
  H614     1.0000 0.86782  0.07960  0.41253  Biso   1.000  H
  C554     1.0000 0.89491  0.03129  0.38057  Biso   1.000  C
  O62      1.0000 0.83803  0.13443  0.35437  Biso   1.000  O
  H615     1.0000 0.85912  0.17610  0.41858  Biso   1.000  H
  H616     1.0000 0.90244  0.16229  0.36430  Biso   1.000  H
  C555     1.0000 0.84092  0.13285  0.21457  Biso   1.000  C
  H617     1.0000 0.77660  0.15831  0.16429  Biso   1.000  H
  H618     1.0000 0.78811  0.16751  0.25528  Biso   1.000  H
  C556     1.0000 0.05341  0.11890  0.04752  Biso   1.000  C
  C557     1.0000 0.00692  0.07104  0.09839  Biso   1.000  C
  H619     1.0000 0.08309  0.02230  0.15971  Biso   1.000  H
  H620     1.0000 0.09021  0.02320  0.06749  Biso   1.000  H
  C558     1.0000 0.15940  0.01621  0.13451  Biso   1.000  C
  H621     1.0000 0.07452  0.01940  0.46110  Biso   1.000  H
  H622     1.0000 0.06531  0.02159  0.36759  Biso   1.000  H
  C559     1.0000 0.14121  0.01070  0.40513  Biso   1.000  C
  C560     1.0000 0.96132  0.11711  0.02778  Biso   1.000  C
  H623     1.0000 0.76051  0.58920  0.12018  Biso   1.000  H
  H624     1.0000 0.76240  0.59291  0.02731  Biso   1.000  H
  C561     1.0000 0.78229  0.63551  0.08588  Biso   1.000  C
  C562     1.0000 0.75632  0.60441  0.00411  Biso   1.000  C
  C563     1.0000 0.90043  0.07101  0.23038  Biso   1.000  C
  C564     1.0000 0.85470  0.11785  0.28800  Biso   1.000  C
  H625     1.0000 0.91692  0.02230  0.34028  Biso   1.000  H
  H626     1.0000 0.90981  0.02320  0.43250  Biso   1.000  H
  C565     1.0000 0.84062  0.01621  0.36548  Biso   1.000  C
  C566     1.0000 0.85972  0.11611  0.14932  Biso   1.000  C
  H627     1.0000 0.00691  0.04961  0.12729  Biso   1.000  H
  C567     1.0000 0.96001  0.08511  0.06849  Biso   1.000  C
  H628     1.0000 0.17442  0.02509  0.18579  Biso   1.000  H
  H629     1.0000 0.18092  0.02520  0.09351  Biso   1.000  H
  C568     1.0000 0.16220  0.97662  0.13522  Biso   1.000  C
  H630     1.0000 0.15770  0.02130  0.36042  Biso   1.000  H
  H631     1.0000 0.16393  0.01500  0.45341  Biso   1.000  H
  C569     1.0000 0.13523  0.97050  0.39167  Biso   1.000  C
  O63      1.0000 0.91586  0.13166  0.99231  Biso   1.000  O
  H632     1.0000 0.75522  0.64310  0.11901  Biso   1.000  H
  H633     1.0000 0.81600  0.64271  0.11020  Biso   1.000  H
  H634     1.0000 0.77661  0.64632  0.03378  Biso   1.000  H
  C570     1.0000 0.88811  0.08551  0.15472  Biso   1.000  C
  H635     1.0000 0.92081  0.05029  0.23572  Biso   1.000  H
  C571     1.0000 0.83782  0.97662  0.36477  Biso   1.000  C
  H636     1.0000 0.82563  0.02509  0.31420  Biso   1.000  H
  H637     1.0000 0.81914  0.02520  0.40648  Biso   1.000  H
  O64      1.0000 0.84621  0.13098  0.07513  Biso   1.000  O
  C572     1.0000 0.90821  0.06819  0.08241  Biso   1.000  C
  H638     1.0000 0.14419  0.96771  0.18027  Biso   1.000  H
  H639     1.0000 0.14350  0.96750  0.08658  Biso   1.000  H
  C573     1.0000 0.21631  0.96220  0.14068  Biso   1.000  C
  H640     1.0000 0.11123  0.96642  0.34468  Biso   1.000  H
  H641     1.0000 0.11952  0.96001  0.43737  Biso   1.000  H
  C574     1.0000 0.18282  0.95250  0.38122  Biso   1.000  C
  C575     1.0000 0.88592  0.15119  0.04411  Biso   1.000  C
  H642     1.0000 0.85583  0.96771  0.31972  Biso   1.000  H
  H643     1.0000 0.85652  0.96750  0.41341  Biso   1.000  H
  C576     1.0000 0.78370  0.96220  0.35931  Biso   1.000  C
  H644     1.0000 0.88361  0.07431  0.03648  Biso   1.000  H
  C577     1.0000 0.91090  0.02836  0.08688  Biso   1.000  C
  H645     1.0000 0.23342  0.96982  0.09357  Biso   1.000  H
  H646     1.0000 0.23560  0.97272  0.18720  Biso   1.000  H
  C578     1.0000 0.22009  0.92261  0.14702  Biso   1.000  C
  H647     1.0000 0.19912  0.96191  0.33499  Biso   1.000  H
  H648     1.0000 0.20713  0.95511  0.42821  Biso   1.000  H
  C579     1.0000 0.16652  0.91162  0.36759  Biso   1.000  C
  H649     1.0000 0.87021  0.17170  0.01539  Biso   1.000  H
  H650     1.0000 0.90912  0.16039  0.08811  Biso   1.000  H
  H651     1.0000 0.76664  0.96982  0.40642  Biso   1.000  H
  H652     1.0000 0.76442  0.97272  0.31279  Biso   1.000  H
  C580     1.0000 0.77993  0.92261  0.35302  Biso   1.000  C
  H653     1.0000 0.92550  0.01940  0.03889  Biso   1.000  H
  H654     1.0000 0.93471  0.02159  0.13240  Biso   1.000  H
  C581     1.0000 0.85881  0.01070  0.09492  Biso   1.000  C
  H655     1.0000 0.25652  0.91560  0.14949  Biso   1.000  H
  H656     1.0000 0.20471  0.91470  0.19460  Biso   1.000  H
  H657     1.0000 0.20170  0.91180  0.10080  Biso   1.000  H
  H658     1.0000 0.19732  0.89752  0.35978  Biso   1.000  H
  H659     1.0000 0.15022  0.90289  0.41370  Biso   1.000  H
  H660     1.0000 0.14212  0.90962  0.32113  Biso   1.000  H
  H661     1.0000 0.74350  0.91560  0.35050  Biso   1.000  H
  H662     1.0000 0.79531  0.91470  0.30539  Biso   1.000  H
  H663     1.0000 0.79831  0.91180  0.39919  Biso   1.000  H
  C582     1.0000 0.86483  0.97050  0.10832  Biso   1.000  C
  H664     1.0000 0.84232  0.02130  0.13962  Biso   1.000  H
  H665     1.0000 0.83609  0.01500  0.04658  Biso   1.000  H
  H666     1.0000 0.88883  0.96642  0.15531  Biso   1.000  H
  H667     1.0000 0.88050  0.96001  0.06262  Biso   1.000  H
  C583     1.0000 0.81720  0.95250  0.11877  Biso   1.000  C
  H668     1.0000 0.80090  0.96191  0.16500  Biso   1.000  H
  H669     1.0000 0.79289  0.95511  0.07178  Biso   1.000  H
  C584     1.0000 0.83350  0.91162  0.13240  Biso   1.000  C
  H670     1.0000 0.80270  0.89752  0.14021  Biso   1.000  H
  H671     1.0000 0.84980  0.90289  0.08629  Biso   1.000  H
  H672     1.0000 0.85790  0.90962  0.17892  Biso   1.000  H
