data_image0
_cell_length_a       21.399
_cell_length_b       21.399
_cell_length_c       21.316
_cell_angle_alpha    90
_cell_angle_beta     90
_cell_angle_gamma    120

_symmetry_space_group_name_H-M    "P 1"
_symmetry_int_tables_number       1

loop_
  _symmetry_equiv_pos_as_xyz
  'x, y, z'

loop_
  _atom_site_label
  _atom_site_occupancy
  _atom_site_fract_x
  _atom_site_fract_y
  _atom_site_fract_z
  _atom_site_thermal_displace_type
  _atom_site_B_iso_or_equiv
  _atom_site_type_symbol
  C1       1.0000 0.60810  0.68179  0.47631  Biso   1.000  C
  N1       1.0000 0.53348  0.62600  0.46571  Biso   1.000  N
  C2       1.0000 0.61237  0.74967  0.50239  Biso   1.000  C
  H1       1.0000 0.63496  0.69307  0.43620  Biso   1.000  H
  H2       1.0000 0.63087  0.66377  0.50610  Biso   1.000  H
  C3       1.0000 0.51640  0.60241  0.40950  Biso   1.000  C
  N2       1.0000 0.59329  0.78496  0.45342  Biso   1.000  N
  H3       1.0000 0.57888  0.73737  0.53833  Biso   1.000  H
  H4       1.0000 0.66196  0.78297  0.51750  Biso   1.000  H
  C4       1.0000 0.44119  0.54619  0.39280  Biso   1.000  C
  H5       1.0000 0.55229  0.62119  0.37779  Biso   1.000  H
  C5       1.0000 0.54741  0.80369  0.46702  Biso   1.000  C
  C6       1.0000 0.42668  0.51548  0.33322  Biso   1.000  C
  C7       1.0000 0.38559  0.52509  0.43662  Biso   1.000  C
  C8       1.0000 0.52650  0.84141  0.42100  Biso   1.000  C
  H6       1.0000 0.52619  0.79349  0.50760  Biso   1.000  H
  C9       1.0000 0.35591  0.46330  0.31690  Biso   1.000  C
  H7       1.0000 0.46467  0.52989  0.30362  Biso   1.000  H
  C10      1.0000 0.31489  0.47350  0.42100  Biso   1.000  C
  H8       1.0000 0.39610  0.54592  0.47729  Biso   1.000  H
  C11      1.0000 0.47488  0.86051  0.43662  Biso   1.000  C
  C12      1.0000 0.55688  0.85786  0.36090  Biso   1.000  C
  C13      1.0000 0.33732  0.42920  0.25441  Biso   1.000  C
  C14      1.0000 0.30098  0.44307  0.36090  Biso   1.000  C
  C15      1.0000 0.25631  0.45262  0.46702  Biso   1.000  C
  C16      1.0000 0.45380  0.89499  0.39280  Biso   1.000  C
  H9       1.0000 0.45412  0.85020  0.47729  Biso   1.000  H
  C17      1.0000 0.53669  0.89261  0.31690  Biso   1.000  C
  H10      1.0000 0.59209  0.84518  0.34992  Biso   1.000  H
  N3       1.0000 0.38352  0.44150  0.21242  Biso   1.000  N
  H11      1.0000 0.28801  0.39629  0.24540  Biso   1.000  H
  H12      1.0000 0.25310  0.40789  0.34992  Biso   1.000  H
  N4       1.0000 0.19171  0.40670  0.45342  Biso   1.000  N
  H13      1.0000 0.26731  0.47377  0.50760  Biso   1.000  H
  C18      1.0000 0.48447  0.91118  0.33322  Biso   1.000  C
  C19      1.0000 0.39760  0.91398  0.40950  Biso   1.000  C
  C20      1.0000 0.57078  0.90810  0.25441  Biso   1.000  C
  C21      1.0000 0.35640  0.40260  0.15331  Biso   1.000  C
  C22      1.0000 0.13730  0.38760  0.50239  Biso   1.000  C
  H14      1.0000 0.47012  0.93481  0.30362  Biso   1.000  H
  N5       1.0000 0.37398  0.90751  0.46571  Biso   1.000  N
  H15      1.0000 0.37881  0.93109  0.37779  Biso   1.000  H
  N6       1.0000 0.55847  0.94199  0.21242  Biso   1.000  N
  H16      1.0000 0.60371  0.89170  0.24540  Biso   1.000  H
  H17      1.0000 0.30299  0.37400  0.15448  Biso   1.000  H
  H18      1.0000 0.37479  0.36882  0.14740  Biso   1.000  H
  C23      1.0000 0.38042  0.45532  0.09880  Biso   1.000  C
  H19      1.0000 0.15850  0.42111  0.53833  Biso   1.000  H
  H20      1.0000 0.12101  0.33801  0.51750  Biso   1.000  H
  C24      1.0000 0.07371  0.39192  0.47631  Biso   1.000  C
  C25      1.0000 0.31818  0.92629  0.47631  Biso   1.000  C
  C26      1.0000 0.59742  0.95381  0.15331  Biso   1.000  C
  N7       1.0000 0.34492  0.49870  0.10091  Biso   1.000  N
  H21      1.0000 0.43328  0.48748  0.10058  Biso   1.000  H
  H22      1.0000 0.36850  0.42828  0.05878  Biso   1.000  H
  N8       1.0000 0.09249  0.46649  0.46571  Biso   1.000  N
  H23      1.0000 0.05810  0.36499  0.43620  Biso   1.000  H
  H24      1.0000 0.03290  0.36909  0.50610  Biso   1.000  H
  C27      1.0000 0.25030  0.86267  0.50239  Biso   1.000  C
  H25      1.0000 0.30691  0.94188  0.43620  Biso   1.000  H
  H26      1.0000 0.33620  0.96708  0.50610  Biso   1.000  H
  C28      1.0000 0.54470  0.92510  0.09880  Biso   1.000  C
  H27      1.0000 0.62599  0.92898  0.15448  Biso   1.000  H
  H28      1.0000 0.63122  0.00599  0.14740  Biso   1.000  H
  C29      1.0000 0.38561  0.56588  0.10968  Biso   1.000  C
  C30      1.0000 0.08600  0.48359  0.40950  Biso   1.000  C
  N9       1.0000 0.21497  0.80827  0.45342  Biso   1.000  N
  H29      1.0000 0.26262  0.84151  0.53833  Biso   1.000  H
  H30      1.0000 0.21699  0.87896  0.51750  Biso   1.000  H
  N10      1.0000 0.50129  0.84621  0.10091  Biso   1.000  N
  H31      1.0000 0.51246  0.94577  0.10058  Biso   1.000  H
  H32      1.0000 0.57170  0.94021  0.05878  Biso   1.000  H
  H33      1.0000 0.43580  0.58401  0.11550  Biso   1.000  H
  C31      1.0000 0.35851  0.61720  0.11142  Biso   1.000  C
  C32      1.0000 0.10501  0.55881  0.39280  Biso   1.000  C
  H34      1.0000 0.06889  0.44771  0.37779  Biso   1.000  H
  C33      1.0000 0.19627  0.74368  0.46702  Biso   1.000  C
  C34      1.0000 0.43411  0.81971  0.10968  Biso   1.000  C
  C35      1.0000 0.28333  0.59292  0.11118  Biso   1.000  C
  C36      1.0000 0.40710  0.69037  0.11118  Biso   1.000  C
  C37      1.0000 0.08878  0.57328  0.33322  Biso   1.000  C
  C38      1.0000 0.13948  0.61439  0.43662  Biso   1.000  C
  C39      1.0000 0.15861  0.68508  0.42100  Biso   1.000  C
  H35      1.0000 0.20647  0.73268  0.50760  Biso   1.000  H
  C40      1.0000 0.38280  0.74131  0.11142  Biso   1.000  C
  H36      1.0000 0.41598  0.85177  0.11550  Biso   1.000  H
  C41      1.0000 0.25868  0.64148  0.11142  Biso   1.000  C
  H37      1.0000 0.24960  0.54257  0.11090  Biso   1.000  H
  H38      1.0000 0.45738  0.70699  0.11090  Biso   1.000  H
  C42      1.0000 0.10740  0.64407  0.31690  Biso   1.000  C
  H39      1.0000 0.06520  0.53529  0.30362  Biso   1.000  H
  H40      1.0000 0.14978  0.60387  0.47729  Biso   1.000  H
  C43      1.0000 0.14211  0.69900  0.36090  Biso   1.000  C
  C44      1.0000 0.30961  0.71670  0.11118  Biso   1.000  C
  C45      1.0000 0.18032  0.61439  0.10968  Biso   1.000  C
  C46      1.0000 0.09189  0.66269  0.25441  Biso   1.000  C
  H41      1.0000 0.15478  0.74687  0.34992  Biso   1.000  H
  H42      1.0000 0.29299  0.75037  0.11090  Biso   1.000  H
  N11      1.0000 0.15379  0.65508  0.10091  Biso   1.000  N
  H43      1.0000 0.14822  0.56421  0.11550  Biso   1.000  H
  N12      1.0000 0.05800  0.61650  0.21242  Biso   1.000  N
  H44      1.0000 0.10833  0.71201  0.24540  Biso   1.000  H
  C47      1.0000 0.07487  0.61957  0.09880  Biso   1.000  C
  C48      1.0000 0.04622  0.64359  0.15331  Biso   1.000  C
  H45      1.0000 0.05418  0.56669  0.10058  Biso   1.000  H
  H46      1.0000 0.05980  0.63150  0.05878  Biso   1.000  H
  H47      1.0000 0.07101  0.69701  0.15448  Biso   1.000  H
  H48      1.0000 0.99398  0.62519  0.14740  Biso   1.000  H
  C49      1.0000 0.60360  0.51548  0.55911  Biso   1.000  C
  C50      1.0000 0.54918  0.44188  0.54199  Biso   1.000  C
  N13      1.0000 0.63071  0.53270  0.61320  Biso   1.000  N
  H49      1.0000 0.61909  0.55207  0.52801  Biso   1.000  H
  C51      1.0000 0.51676  0.42807  0.48311  Biso   1.000  C
  C52      1.0000 0.52838  0.38317  0.58332  Biso   1.000  C
  C53      1.0000 0.68422  0.60981  0.62362  Biso   1.000  C
  C54      1.0000 0.46518  0.35921  0.46472  Biso   1.000  C
  H50      1.0000 0.53047  0.46708  0.45473  Biso   1.000  H
  C55      1.0000 0.47527  0.31378  0.56601  Biso   1.000  C
  H51      1.0000 0.55070  0.39100  0.62319  Biso   1.000  H
  H52      1.0000 0.66430  0.63118  0.65312  Biso   1.000  H
  H53      1.0000 0.69509  0.63641  0.58351  Biso   1.000  H
  C56      1.0000 0.75338  0.61569  0.65111  Biso   1.000  C
  C57      1.0000 0.43459  0.34831  0.40022  Biso   1.000  C
  C58      1.0000 0.44360  0.30148  0.50619  Biso   1.000  C
  C59      1.0000 0.45457  0.25388  0.61081  Biso   1.000  C
  N14      1.0000 0.79238  0.60069  0.60260  Biso   1.000  N
  H54      1.0000 0.78457  0.66490  0.66800  Biso   1.000  H
  H55      1.0000 0.74088  0.58088  0.68601  Biso   1.000  H
  N15      1.0000 0.39108  0.28680  0.37803  Biso   1.000  N
  H56      1.0000 0.44831  0.38949  0.37470  Biso   1.000  H
  H57      1.0000 0.40768  0.25421  0.49409  Biso   1.000  H
  N16      1.0000 0.39929  0.19172  0.60260  Biso   1.000  N
  H58      1.0000 0.48357  0.26187  0.64703  Biso   1.000  H
  C60      1.0000 0.79930  0.54538  0.61081  Biso   1.000  C
  C61      1.0000 0.36748  0.28437  0.31329  Biso   1.000  C
  C62      1.0000 0.38429  0.13771  0.65111  Biso   1.000  C
  C63      1.0000 0.83850  0.52471  0.56601  Biso   1.000  C
  H59      1.0000 0.77827  0.51640  0.64703  Biso   1.000  H
  H60      1.0000 0.38438  0.33407  0.29832  Biso   1.000  H
  H61      1.0000 0.31407  0.25728  0.31160  Biso   1.000  H
  C64      1.0000 0.39701  0.24838  0.27120  Biso   1.000  C
  C65      1.0000 0.39021  0.07441  0.62362  Biso   1.000  C
  H62      1.0000 0.33509  0.11968  0.66800  Biso   1.000  H
  H63      1.0000 0.41908  0.15999  0.68601  Biso   1.000  H
  C66      1.0000 0.85481  0.47161  0.58332  Biso   1.000  C
  C67      1.0000 0.85789  0.55639  0.50619  Biso   1.000  C
  N17      1.0000 0.47619  0.29198  0.26942  Biso   1.000  N
  H64      1.0000 0.38228  0.19949  0.28730  Biso   1.000  H
  H65      1.0000 0.37733  0.24342  0.22833  Biso   1.000  H
  N18      1.0000 0.46729  0.09799  0.61320  Biso   1.000  N
  H66      1.0000 0.36880  0.03308  0.65312  Biso   1.000  H
  H67      1.0000 0.36362  0.05871  0.58351  Biso   1.000  H
  C68      1.0000 0.89267  0.45079  0.54199  Biso   1.000  C
  H68      1.0000 0.84027  0.44928  0.62319  Biso   1.000  H
  C69      1.0000 0.89397  0.53480  0.46472  Biso   1.000  C
  H69      1.0000 0.84649  0.59227  0.49409  Biso   1.000  H
  C70      1.0000 0.51160  0.25960  0.27510  Biso   1.000  C
  C71      1.0000 0.48450  0.08812  0.55911  Biso   1.000  C
  C72      1.0000 0.91131  0.48322  0.48311  Biso   1.000  C
  C73      1.0000 0.91188  0.39639  0.55911  Biso   1.000  C
  C74      1.0000 0.91371  0.56540  0.40022  Biso   1.000  C
  C75      1.0000 0.59139  0.29770  0.27393  Biso   1.000  C
  H70      1.0000 0.48592  0.20872  0.28040  Biso   1.000  H
  C76      1.0000 0.55810  0.10727  0.54199  Biso   1.000  C
  H71      1.0000 0.44792  0.06702  0.52801  Biso   1.000  H
  H72      1.0000 0.93661  0.46951  0.45473  Biso   1.000  H
  N19      1.0000 0.90198  0.36931  0.61320  Biso   1.000  N
  H73      1.0000 0.93301  0.38091  0.52801  Biso   1.000  H
  N20      1.0000 0.89569  0.60889  0.37803  Biso   1.000  N
  H74      1.0000 0.94120  0.55169  0.37470  Biso   1.000  H
  C77      1.0000 0.63180  0.37308  0.27421  Biso   1.000  C
  C78      1.0000 0.62689  0.25869  0.27421  Biso   1.000  C
  C79      1.0000 0.57190  0.08871  0.48311  Biso   1.000  C
  C80      1.0000 0.61679  0.14521  0.58332  Biso   1.000  C
  C81      1.0000 0.92559  0.31578  0.62362  Biso   1.000  C
  C82      1.0000 0.91687  0.63247  0.31329  Biso   1.000  C
  H75      1.0000 0.60768  0.40028  0.27472  Biso   1.000  H
  C83      1.0000 0.70628  0.40859  0.27393  Biso   1.000  C
  H76      1.0000 0.59969  0.20737  0.27472  Biso   1.000  H
  C84      1.0000 0.70230  0.29371  0.27393  Biso   1.000  C
  C85      1.0000 0.64077  0.10598  0.46472  Biso   1.000  C
  H77      1.0000 0.53289  0.06340  0.45473  Biso   1.000  H
  H78      1.0000 0.60900  0.15972  0.62319  Biso   1.000  H
  C86      1.0000 0.68620  0.16150  0.56601  Biso   1.000  C
  C87      1.0000 0.86231  0.24660  0.65111  Biso   1.000  C
  H79      1.0000 0.96690  0.33569  0.65312  Biso   1.000  H
  H80      1.0000 0.94126  0.30488  0.58351  Biso   1.000  H
  C88      1.0000 0.85139  0.60301  0.27120  Biso   1.000  C
  H81      1.0000 0.94969  0.61558  0.29832  Biso   1.000  H
  H82      1.0000 0.94321  0.68589  0.31160  Biso   1.000  H
  C89      1.0000 0.74126  0.36817  0.27421  Biso   1.000  C
  C90      1.0000 0.74801  0.48840  0.27510  Biso   1.000  C
  C91      1.0000 0.74037  0.25200  0.27510  Biso   1.000  C
  C92      1.0000 0.65167  0.08628  0.40022  Biso   1.000  C
  C93      1.0000 0.69850  0.14208  0.50619  Biso   1.000  C
  C94      1.0000 0.74607  0.20068  0.61081  Biso   1.000  C
  N21      1.0000 0.80827  0.20759  0.60260  Biso   1.000  N
  H83      1.0000 0.88031  0.21541  0.66800  Biso   1.000  H
  H84      1.0000 0.84001  0.25912  0.68601  Biso   1.000  H
  N22      1.0000 0.81580  0.52379  0.26942  Biso   1.000  N
  H85      1.0000 0.81718  0.61769  0.28730  Biso   1.000  H
  H86      1.0000 0.86610  0.62270  0.22833  Biso   1.000  H
  H87      1.0000 0.79258  0.39229  0.27472  Biso   1.000  H
  H88      1.0000 0.72276  0.51408  0.28040  Biso   1.000  H
  N23      1.0000 0.70798  0.18422  0.26942  Biso   1.000  N
  H89      1.0000 0.79129  0.27720  0.28040  Biso   1.000  H
  N24      1.0000 0.71321  0.10431  0.37803  Biso   1.000  N
  H90      1.0000 0.61051  0.05882  0.37470  Biso   1.000  H
  H91      1.0000 0.74581  0.15352  0.49409  Biso   1.000  H
  H92      1.0000 0.73809  0.22172  0.64703  Biso   1.000  H
  C95      1.0000 0.75158  0.14861  0.27120  Biso   1.000  C
  C96      1.0000 0.71560  0.08310  0.31329  Biso   1.000  C
  H93      1.0000 0.80051  0.18282  0.28730  Biso   1.000  H
  H94      1.0000 0.75660  0.13388  0.22833  Biso   1.000  H
  H95      1.0000 0.66588  0.05029  0.29832  Biso   1.000  H
  H96      1.0000 0.74270  0.05682  0.31160  Biso   1.000  H
  C97      1.0000 0.41826  0.48192  0.60452  Biso   1.000  C
  N25      1.0000 0.37466  0.51754  0.60274  Biso   1.000  N
  C98      1.0000 0.38223  0.41641  0.64665  Biso   1.000  C
  H97      1.0000 0.46714  0.51613  0.62066  Biso   1.000  H
  H98      1.0000 0.42326  0.46724  0.56164  Biso   1.000  H
  C99      1.0000 0.40705  0.58531  0.60846  Biso   1.000  C
  N26      1.0000 0.37985  0.43762  0.71134  Biso   1.000  N
  H99      1.0000 0.33256  0.38361  0.63164  Biso   1.000  H
  H100     1.0000 0.40938  0.39013  0.64496  Biso   1.000  H
  C100     1.0000 0.36898  0.62702  0.60724  Biso   1.000  C
  H101     1.0000 0.45797  0.61051  0.61376  Biso   1.000  H
  C101     1.0000 0.31838  0.41965  0.73353  Biso   1.000  C
  C102     1.0000 0.29357  0.59200  0.60752  Biso   1.000  C
  C103     1.0000 0.40797  0.70154  0.60752  Biso   1.000  C
  C104     1.0000 0.30748  0.43935  0.79804  Biso   1.000  C
  H102     1.0000 0.27714  0.39213  0.70806  Biso   1.000  H
  H103     1.0000 0.26635  0.54074  0.60804  Biso   1.000  H
  C105     1.0000 0.25807  0.63101  0.60724  Biso   1.000  C
  H104     1.0000 0.45926  0.72561  0.60804  Biso   1.000  H
  C106     1.0000 0.37296  0.74190  0.60724  Biso   1.000  C
  C107     1.0000 0.23858  0.42202  0.81643  Biso   1.000  C
  C108     1.0000 0.36516  0.47545  0.83956  Biso   1.000  C
  C109     1.0000 0.29843  0.70640  0.60752  Biso   1.000  C
  C110     1.0000 0.17828  0.59292  0.60846  Biso   1.000  C
  C111     1.0000 0.41464  0.82171  0.60846  Biso   1.000  C
  H105     1.0000 0.19957  0.39672  0.78805  Biso   1.000  H
  C112     1.0000 0.22476  0.44064  0.87535  Biso   1.000  C
  C113     1.0000 0.35283  0.49482  0.89937  Biso   1.000  C
  H106     1.0000 0.41244  0.48683  0.82745  Biso   1.000  H
  H107     1.0000 0.27439  0.73365  0.60804  Biso   1.000  H
  N27      1.0000 0.14290  0.62535  0.60274  Biso   1.000  N
  H108     1.0000 0.15255  0.54203  0.61376  Biso   1.000  H
  N28      1.0000 0.48244  0.85711  0.60274  Biso   1.000  N
  H109     1.0000 0.38944  0.84740  0.61376  Biso   1.000  H
  C114     1.0000 0.28347  0.47852  0.91664  Biso   1.000  C
  C115     1.0000 0.15118  0.42143  0.89243  Biso   1.000  C
  C116     1.0000 0.41278  0.53405  0.94417  Biso   1.000  C
  C117     1.0000 0.06367  0.58175  0.60452  Biso   1.000  C
  C118     1.0000 0.51807  0.93632  0.60452  Biso   1.000  C
  H110     1.0000 0.27568  0.49304  0.95656  Biso   1.000  H
  N29      1.0000 0.13397  0.43131  0.94657  Biso   1.000  N
  H111     1.0000 0.11455  0.40033  0.86137  Biso   1.000  H
  N30      1.0000 0.47495  0.54090  0.93596  Biso   1.000  N
  H112     1.0000 0.40477  0.55504  0.98034  Biso   1.000  H
  C119     1.0000 0.03418  0.61774  0.64665  Biso   1.000  C
  H113     1.0000 0.04896  0.53281  0.62066  Biso   1.000  H
  H114     1.0000 0.04396  0.57673  0.56164  Biso   1.000  H
  C120     1.0000 0.58358  0.96584  0.64665  Biso   1.000  C
  H115     1.0000 0.48386  0.95100  0.62066  Biso   1.000  H
  H116     1.0000 0.53278  0.95602  0.56164  Biso   1.000  H
  C121     1.0000 0.05685  0.40773  0.95693  Biso   1.000  C
  C122     1.0000 0.52894  0.57991  0.98447  Biso   1.000  C
  N31      1.0000 0.05776  0.62011  0.71134  Biso   1.000  N
  H117     1.0000 0.05109  0.66744  0.63164  Biso   1.000  H
  H118     1.0000 0.98078  0.59065  0.64496  Biso   1.000  H
  N32      1.0000 0.56237  0.94220  0.71134  Biso   1.000  N
  H119     1.0000 0.61632  0.94890  0.63164  Biso   1.000  H
  H120     1.0000 0.60989  0.01921  0.64496  Biso   1.000  H
  H121     1.0000 0.03546  0.36645  0.98644  Biso   1.000  H
  H122     1.0000 0.03026  0.39202  0.91687  Biso   1.000  H
  C123     1.0000 0.05097  0.47102  0.98447  Biso   1.000  C
  C124     1.0000 0.59225  0.64914  0.95693  Biso   1.000  C
  H123     1.0000 0.54694  0.54872  0.00131  Biso   1.000  H
  H124     1.0000 0.50665  0.59243  0.01933  Biso   1.000  H
  C125     1.0000 0.10127  0.68163  0.73353  Biso   1.000  C
  C126     1.0000 0.58034  0.89871  0.73353  Biso   1.000  C
  N33      1.0000 0.06597  0.52504  0.93596  Biso   1.000  N
  H125     1.0000 0.00180  0.45305  0.00131  Biso   1.000  H
  H126     1.0000 0.08576  0.49331  0.01933  Biso   1.000  H
  N34      1.0000 0.56866  0.70262  0.94657  Biso   1.000  N
  H127     1.0000 0.63353  0.66900  0.98644  Biso   1.000  H
  H128     1.0000 0.60797  0.63824  0.91687  Biso   1.000  H
  C127     1.0000 0.13186  0.69253  0.79804  Biso   1.000  C
  H129     1.0000 0.11494  0.72280  0.70806  Biso   1.000  H
  C128     1.0000 0.56065  0.86812  0.79804  Biso   1.000  C
  H130     1.0000 0.60784  0.88501  0.70806  Biso   1.000  H
  C129     1.0000 0.12128  0.58725  0.94417  Biso   1.000  C
  C130     1.0000 0.57856  0.72971  0.89243  Biso   1.000  C
  C131     1.0000 0.18347  0.76144  0.81643  Biso   1.000  C
  C132     1.0000 0.11026  0.63485  0.83956  Biso   1.000  C
  C133     1.0000 0.57795  0.81653  0.81643  Biso   1.000  C
  C134     1.0000 0.52453  0.88970  0.83956  Biso   1.000  C
  C135     1.0000 0.14198  0.64715  0.89937  Biso   1.000  C
  H131     1.0000 0.15028  0.59524  0.98034  Biso   1.000  H
  C136     1.0000 0.55935  0.78410  0.87535  Biso   1.000  C
  H132     1.0000 0.59965  0.71422  0.86137  Biso   1.000  H
  H133     1.0000 0.19715  0.80040  0.78805  Biso   1.000  H
  C137     1.0000 0.21586  0.77520  0.87535  Biso   1.000  C
  H134     1.0000 0.07436  0.58752  0.82745  Biso   1.000  H
  H135     1.0000 0.60324  0.80282  0.78805  Biso   1.000  H
  C138     1.0000 0.50518  0.85803  0.89937  Biso   1.000  C
  H136     1.0000 0.51315  0.92564  0.82745  Biso   1.000  H
  C139     1.0000 0.19509  0.71654  0.91664  Biso   1.000  C
  C140     1.0000 0.52144  0.80493  0.91664  Biso   1.000  C
  C141     1.0000 0.27023  0.84880  0.89243  Biso   1.000  C
  C142     1.0000 0.46596  0.87875  0.94417  Biso   1.000  C
  H137     1.0000 0.21734  0.72431  0.95656  Biso   1.000  H
  H138     1.0000 0.50698  0.78264  0.95656  Biso   1.000  H
  N35      1.0000 0.29735  0.86601  0.94657  Biso   1.000  N
  H139     1.0000 0.28575  0.88544  0.86137  Biso   1.000  H
  N36      1.0000 0.45906  0.93400  0.93596  Biso   1.000  N
  H140     1.0000 0.44495  0.84972  0.98034  Biso   1.000  H
  C143     1.0000 0.35085  0.94312  0.95693  Biso   1.000  C
  C144     1.0000 0.42006  0.94900  0.98447  Biso   1.000  C
  H141     1.0000 0.33096  0.96454  0.98644  Biso   1.000  H
  H142     1.0000 0.36177  0.96972  0.91687  Biso   1.000  H
  H143     1.0000 0.45125  0.99822  0.00131  Biso   1.000  H
  H144     1.0000 0.40756  0.91420  0.01933  Biso   1.000  H
  C145     1.0000 0.72353  0.74104  0.29025  Biso   1.000  C
  N37      1.0000 0.80063  0.76467  0.27988  Biso   1.000  N
  H145     1.0000 0.70214  0.69976  0.31976  Biso   1.000  H
  H146     1.0000 0.69694  0.72534  0.25019  Biso   1.000  H
  C146     1.0000 0.71760  0.80434  0.31779  Biso   1.000  C
  C147     1.0000 0.81781  0.75475  0.22579  Biso   1.000  C
  N38      1.0000 0.73260  0.85835  0.26928  Biso   1.000  N
  H147     1.0000 0.66843  0.78637  0.33468  Biso   1.000  H
  H148     1.0000 0.75242  0.82667  0.35269  Biso   1.000  H
  C148     1.0000 0.89144  0.77396  0.20867  Biso   1.000  C
  H149     1.0000 0.78124  0.73365  0.19469  Biso   1.000  H
  C149     1.0000 0.78792  0.92057  0.27749  Biso   1.000  C
  C150     1.0000 0.90522  0.75534  0.14975  Biso   1.000  C
  C151     1.0000 0.95010  0.81184  0.24995  Biso   1.000  C
  C152     1.0000 0.80861  0.98046  0.23269  Biso   1.000  C
  H150     1.0000 0.81691  0.92855  0.31366  Biso   1.000  H
  C153     1.0000 0.97411  0.77266  0.13136  Biso   1.000  C
  H151     1.0000 0.86621  0.73003  0.12136  Biso   1.000  H
  H152     1.0000 0.94231  0.82635  0.28988  Biso   1.000  H
  C154     1.0000 0.01951  0.82813  0.23269  Biso   1.000  C
  C155     1.0000 0.77694  0.96816  0.17287  Biso   1.000  C
  C156     1.0000 0.86172  0.04986  0.24995  Biso   1.000  C
  C157     1.0000 0.98502  0.75296  0.06685  Biso   1.000  C
  C158     1.0000 0.03184  0.80876  0.17287  Biso   1.000  C
  C159     1.0000 0.07946  0.86736  0.27749  Biso   1.000  C
  H153     1.0000 0.74099  0.92084  0.16077  Biso   1.000  H
  C160     1.0000 0.79854  0.02584  0.13136  Biso   1.000  C
  C161     1.0000 0.88252  0.10856  0.20867  Biso   1.000  C
  H154     1.0000 0.88404  0.05768  0.28988  Biso   1.000  H
  H155     1.0000 0.94382  0.72544  0.04138  Biso   1.000  H
  N39      1.0000 0.04653  0.77093  0.04466  Biso   1.000  N
  H156     1.0000 0.07912  0.82015  0.16077  Biso   1.000  H
  N40      1.0000 0.14165  0.87427  0.26928  Biso   1.000  N
  H157     1.0000 0.07145  0.88835  0.31366  Biso   1.000  H
  C162     1.0000 0.85015  0.09475  0.14975  Biso   1.000  C
  C163     1.0000 0.76795  0.01494  0.06685  Biso   1.000  C
  C164     1.0000 0.93694  0.18217  0.22579  Biso   1.000  C
  C165     1.0000 0.04894  0.74978  0.97997  Biso   1.000  C
  C166     1.0000 0.19562  0.91323  0.31779  Biso   1.000  C
  H158     1.0000 0.86381  0.13376  0.12136  Biso   1.000  H
  N41      1.0000 0.72439  0.95343  0.04466  Biso   1.000  N
  H159     1.0000 0.78165  0.05617  0.04138  Biso   1.000  H
  N42      1.0000 0.96401  0.19938  0.27988  Biso   1.000  N
  H160     1.0000 0.95238  0.21875  0.19469  Biso   1.000  H
  H161     1.0000 0.99922  0.71697  0.96500  Biso   1.000  H
  H162     1.0000 0.07601  0.72345  0.97828  Biso   1.000  H
  C167     1.0000 0.08494  0.81524  0.93789  Biso   1.000  C
  C168     1.0000 0.25893  0.98246  0.29025  Biso   1.000  C
  H163     1.0000 0.21363  0.88204  0.33468  Biso   1.000  H
  H164     1.0000 0.17333  0.92575  0.35269  Biso   1.000  H
  C169     1.0000 0.70082  0.95105  0.97997  Biso   1.000  C
  C170     1.0000 0.01753  0.27644  0.29025  Biso   1.000  C
  N43      1.0000 0.04134  0.85085  0.93610  Biso   1.000  N
  H165     1.0000 0.13382  0.84945  0.95398  Biso   1.000  H
  H166     1.0000 0.08994  0.80056  0.89496  Biso   1.000  H
  H167     1.0000 0.27465  0.97156  0.25019  Biso   1.000  H
  N44      1.0000 0.23536  0.03599  0.27988  Biso   1.000  N
  H168     1.0000 0.30024  0.00237  0.31976  Biso   1.000  H
  H169     1.0000 0.64741  0.92397  0.97828  Biso   1.000  H
  C171     1.0000 0.73035  0.91506  0.93789  Biso   1.000  C
  H170     1.0000 0.71772  0.00075  0.96500  Biso   1.000  H
  H171     1.0000 0.99764  0.29786  0.31976  Biso   1.000  H
  H172     1.0000 0.02845  0.30304  0.25019  Biso   1.000  H
  C172     1.0000 0.08672  0.28237  0.31779  Biso   1.000  C
  C173     1.0000 0.07376  0.91868  0.94178  Biso   1.000  C
  C174     1.0000 0.24526  0.06308  0.22579  Biso   1.000  C
  N45      1.0000 0.80953  0.95866  0.93610  Biso   1.000  N
  H173     1.0000 0.71562  0.86617  0.95398  Biso   1.000  H
  H174     1.0000 0.71064  0.91004  0.89496  Biso   1.000  H
  N46      1.0000 0.12576  0.26737  0.26928  Biso   1.000  N
  H175     1.0000 0.11792  0.33158  0.33468  Biso   1.000  H
  H176     1.0000 0.07422  0.24757  0.35269  Biso   1.000  H
  C175     1.0000 0.03561  0.96033  0.94056  Biso   1.000  C
  H177     1.0000 0.12463  0.94388  0.94708  Biso   1.000  H
  C176     1.0000 0.22605  0.11747  0.20867  Biso   1.000  C
  H178     1.0000 0.26628  0.04754  0.19469  Biso   1.000  H
  C177     1.0000 0.84491  0.92623  0.94178  Biso   1.000  C
  C178     1.0000 0.13260  0.21206  0.27749  Biso   1.000  C
  C179     1.0000 0.96023  0.92537  0.94089  Biso   1.000  C
  C180     1.0000 0.07465  0.03485  0.94089  Biso   1.000  C
  C181     1.0000 0.24463  0.14984  0.14975  Biso   1.000  C
  C182     1.0000 0.18808  0.13824  0.24995  Biso   1.000  C
  C183     1.0000 0.92471  0.96433  0.94056  Biso   1.000  C
  H179     1.0000 0.81923  0.87535  0.94708  Biso   1.000  H
  C184     1.0000 0.17182  0.19134  0.23269  Biso   1.000  C
  H180     1.0000 0.11166  0.18308  0.31366  Biso   1.000  H
  H181     1.0000 0.93303  0.87405  0.94141  Biso   1.000  H
  H182     1.0000 0.12596  0.05897  0.94141  Biso   1.000  H
  C185     1.0000 0.03962  0.07527  0.94056  Biso   1.000  C
  C186     1.0000 0.22736  0.20148  0.13136  Biso   1.000  C
  H183     1.0000 0.26988  0.13614  0.12136  Biso   1.000  H
  H184     1.0000 0.17366  0.11596  0.28988  Biso   1.000  H
  C187     1.0000 0.96509  0.03976  0.94089  Biso   1.000  C
  C188     1.0000 0.19123  0.22307  0.17287  Biso   1.000  C
  C189     1.0000 0.08130  0.15508  0.94178  Biso   1.000  C
  C190     1.0000 0.24700  0.23208  0.06685  Biso   1.000  C
  H185     1.0000 0.94098  0.06696  0.94141  Biso   1.000  H
  H186     1.0000 0.17983  0.25895  0.16077  Biso   1.000  H
  N47      1.0000 0.14910  0.19048  0.93610  Biso   1.000  N
  H187     1.0000 0.05610  0.18076  0.94708  Biso   1.000  H
  N48      1.0000 0.22903  0.27557  0.04466  Biso   1.000  N
  H188     1.0000 0.27455  0.21837  0.04138  Biso   1.000  H
  C191     1.0000 0.18475  0.26964  0.93789  Biso   1.000  C
  C192     1.0000 0.25026  0.29915  0.97997  Biso   1.000  C
  H189     1.0000 0.15057  0.28437  0.95398  Biso   1.000  H
  H190     1.0000 0.19941  0.28933  0.89496  Biso   1.000  H
  H191     1.0000 0.28303  0.28226  0.96500  Biso   1.000  H
  H192     1.0000 0.27655  0.35257  0.97828  Biso   1.000  H
  C193     1.0000 0.75263  0.81691  0.74287  Biso   1.000  C
  C194     1.0000 0.77164  0.89213  0.72617  Biso   1.000  C
  N49      1.0000 0.75912  0.79980  0.79907  Biso   1.000  N
  H193     1.0000 0.73557  0.78102  0.71116  Biso   1.000  H
  C195     1.0000 0.75549  0.90664  0.66654  Biso   1.000  C
  C196     1.0000 0.80616  0.94771  0.76994  Biso   1.000  C
  C197     1.0000 0.74034  0.72523  0.80963  Biso   1.000  C
  C198     1.0000 0.77406  0.97744  0.65026  Biso   1.000  C
  H194     1.0000 0.73184  0.86860  0.63694  Biso   1.000  H
  C199     1.0000 0.82527  0.01845  0.75436  Biso   1.000  C
  H195     1.0000 0.81649  0.93724  0.81066  Biso   1.000  H
  C200     1.0000 0.80393  0.72091  0.83576  Biso   1.000  C
  H196     1.0000 0.72473  0.69830  0.76956  Biso   1.000  H
  H197     1.0000 0.69954  0.70240  0.83946  Biso   1.000  H
  C201     1.0000 0.75853  0.99600  0.58773  Biso   1.000  C
  C202     1.0000 0.80874  0.03232  0.69427  Biso   1.000  C
  C203     1.0000 0.86293  0.07705  0.80034  Biso   1.000  C
  N50      1.0000 0.85835  0.74001  0.78673  Biso   1.000  N
  H198     1.0000 0.82518  0.75442  0.87165  Biso   1.000  H
  H199     1.0000 0.78764  0.67132  0.85086  Biso   1.000  H
  N51      1.0000 0.72464  0.94981  0.54574  Biso   1.000  N
  H200     1.0000 0.77496  0.04532  0.57877  Biso   1.000  H
  H201     1.0000 0.82149  0.08024  0.68324  Biso   1.000  H
  N52      1.0000 0.88168  0.14164  0.78673  Biso   1.000  N
  H202     1.0000 0.87318  0.06604  0.84096  Biso   1.000  H
  C204     1.0000 0.92295  0.78593  0.80034  Biso   1.000  C
  C205     1.0000 0.71285  0.97690  0.48663  Biso   1.000  C
  C206     1.0000 0.91691  0.19603  0.83576  Biso   1.000  C
  C207     1.0000 0.98157  0.80682  0.75436  Biso   1.000  C
  H203     1.0000 0.93397  0.80714  0.84096  Biso   1.000  H
  C208     1.0000 0.74158  0.95294  0.43216  Biso   1.000  C
  H204     1.0000 0.66066  0.95850  0.48077  Biso   1.000  H
  H205     1.0000 0.73765  0.03032  0.48785  Biso   1.000  H
  H206     1.0000 0.92921  0.17483  0.87165  Biso   1.000  H
  H207     1.0000 0.88365  0.21233  0.85086  Biso   1.000  H
  C209     1.0000 0.98486  0.25960  0.80963  Biso   1.000  C
  C210     1.0000 0.96764  0.77644  0.69427  Biso   1.000  C
  C211     1.0000 0.05227  0.85840  0.76994  Biso   1.000  C
  N53      1.0000 0.82043  0.98839  0.43423  Biso   1.000  N
  H208     1.0000 0.72086  0.90001  0.43395  Biso   1.000  H
  H209     1.0000 0.72644  0.96481  0.39215  Biso   1.000  H
  H210     1.0000 0.97357  0.27525  0.76956  Biso   1.000  H
  N54      1.0000 0.04062  0.24082  0.79907  Biso   1.000  N
  H211     1.0000 0.00286  0.30045  0.83946  Biso   1.000  H
  C212     1.0000 0.02254  0.79662  0.65026  Biso   1.000  C
  H212     1.0000 0.91974  0.74120  0.68324  Biso   1.000  H
  C213     1.0000 0.10787  0.87950  0.72617  Biso   1.000  C
  H213     1.0000 0.06278  0.87923  0.81066  Biso   1.000  H
  C214     1.0000 0.84696  0.94771  0.44305  Biso   1.000  C
  C215     1.0000 0.06426  0.24735  0.74287  Biso   1.000  C
  C216     1.0000 0.00395  0.76252  0.58773  Biso   1.000  C
  C217     1.0000 0.09336  0.84880  0.66654  Biso   1.000  C
  C218     1.0000 0.18308  0.93573  0.74287  Biso   1.000  C
  H214     1.0000 0.81485  0.89752  0.44886  Biso   1.000  H
  C219     1.0000 0.92536  0.97480  0.44474  Biso   1.000  C
  C220     1.0000 0.12048  0.22830  0.72617  Biso   1.000  C
  H215     1.0000 0.04549  0.26440  0.71116  Biso   1.000  H
  N55      1.0000 0.05015  0.77482  0.54574  Biso   1.000  N
  H216     1.0000 0.95464  0.72960  0.57877  Biso   1.000  H
  H217     1.0000 0.13136  0.86321  0.63694  Biso   1.000  H
  N56      1.0000 0.20016  0.95931  0.79907  Biso   1.000  N
  H218     1.0000 0.21897  0.95451  0.71116  Biso   1.000  H
  C221     1.0000 0.94996  0.92623  0.44455  Biso   1.000  C
  C222     1.0000 0.97624  0.05002  0.44455  Biso   1.000  C
  C223     1.0000 0.15118  0.24454  0.66654  Biso   1.000  C
  C224     1.0000 0.14156  0.19382  0.76994  Biso   1.000  C
  C225     1.0000 0.02308  0.73591  0.48663  Biso   1.000  C
  C226     1.0000 0.27478  0.01510  0.80963  Biso   1.000  C
  H219     1.0000 0.91626  0.87594  0.44422  Biso   1.000  H
  C227     1.0000 0.02514  0.95051  0.44474  Biso   1.000  C
  H220     1.0000 0.95969  0.08374  0.44422  Biso   1.000  H
  C228     1.0000 0.04949  0.07462  0.44474  Biso   1.000  C
  C229     1.0000 0.20332  0.22593  0.65026  Biso   1.000  C
  H221     1.0000 0.13680  0.26813  0.63694  Biso   1.000  H
  C230     1.0000 0.19314  0.17472  0.75436  Biso   1.000  C
  H222     1.0000 0.12075  0.18352  0.81066  Biso   1.000  H
  C231     1.0000 0.04706  0.78863  0.43216  Biso   1.000  C
  H223     1.0000 0.96967  0.70731  0.48785  Biso   1.000  H
  H224     1.0000 0.04147  0.70213  0.48077  Biso   1.000  H
  C232     1.0000 0.27908  0.08304  0.83576  Biso   1.000  C
  H225     1.0000 0.29758  0.99714  0.83946  Biso   1.000  H
  H226     1.0000 0.30167  0.02644  0.76956  Biso   1.000  H
  C233     1.0000 0.05224  0.89920  0.44305  Biso   1.000  C
  C234     1.0000 0.07376  0.02374  0.44455  Biso   1.000  C
  C235     1.0000 0.10079  0.15303  0.44305  Biso   1.000  C
  C236     1.0000 0.23742  0.24142  0.58773  Biso   1.000  C
  C237     1.0000 0.22359  0.19123  0.69427  Biso   1.000  C
  C238     1.0000 0.21409  0.13700  0.80034  Biso   1.000  C
  N57      1.0000 0.01155  0.83202  0.43423  Biso   1.000  N
  H227     1.0000 0.09999  0.82085  0.43395  Biso   1.000  H
  H228     1.0000 0.03518  0.76160  0.39215  Biso   1.000  H
  N58      1.0000 0.25995  0.11833  0.78673  Biso   1.000  N
  H229     1.0000 0.24554  0.07074  0.87165  Biso   1.000  H
  H230     1.0000 0.32867  0.11633  0.85086  Biso   1.000  H
  H231     1.0000 0.10248  0.91733  0.44886  Biso   1.000  H
  H232     1.0000 0.12401  0.04030  0.44422  Biso   1.000  H
  N59      1.0000 0.16797  0.17952  0.43423  Biso   1.000  N
  H233     1.0000 0.08268  0.18513  0.44886  Biso   1.000  H
  N60      1.0000 0.22516  0.27530  0.54574  Biso   1.000  N
  H234     1.0000 0.27039  0.22501  0.57877  Biso   1.000  H
  H235     1.0000 0.25875  0.17855  0.68324  Biso   1.000  H
  H236     1.0000 0.19287  0.12680  0.84096  Biso   1.000  H
  C239     1.0000 0.21134  0.25841  0.43216  Biso   1.000  C
  C240     1.0000 0.26406  0.28712  0.48663  Biso   1.000  C
  H237     1.0000 0.17912  0.27913  0.43395  Biso   1.000  H
  H238     1.0000 0.23833  0.27352  0.39215  Biso   1.000  H
  H239     1.0000 0.29266  0.26235  0.48785  Biso   1.000  H
  H240     1.0000 0.29786  0.33930  0.48077  Biso   1.000  H
  N61      1.0000 0.48711  0.32177  0.76759  Biso   1.000  N
  C241     1.0000 0.40824  0.28626  0.76548  Biso   1.000  C
  C242     1.0000 0.51364  0.28108  0.77637  Biso   1.000  C
  C243     1.0000 0.37954  0.31027  0.81999  Biso   1.000  C
  H241     1.0000 0.38754  0.23338  0.76726  Biso   1.000  H
  H242     1.0000 0.39312  0.29819  0.72546  Biso   1.000  H
  H243     1.0000 0.48151  0.23084  0.78218  Biso   1.000  H
  C244     1.0000 0.59205  0.30817  0.77810  Biso   1.000  C
  N62      1.0000 0.39132  0.28318  0.87910  Biso   1.000  N
  H244     1.0000 0.40431  0.36364  0.82117  Biso   1.000  H
  H245     1.0000 0.32735  0.29187  0.81408  Biso   1.000  H
  C245     1.0000 0.61662  0.25955  0.77787  Biso   1.000  C
  C246     1.0000 0.64290  0.38334  0.77787  Biso   1.000  C
  C247     1.0000 0.42521  0.32937  0.92109  Biso   1.000  C
  C248     1.0000 0.69183  0.28389  0.77810  Biso   1.000  C
  H246     1.0000 0.58292  0.20926  0.77758  Biso   1.000  H
  C249     1.0000 0.71610  0.40794  0.77810  Biso   1.000  C
  H247     1.0000 0.62631  0.41706  0.77758  Biso   1.000  H
  C250     1.0000 0.44072  0.31076  0.98358  Biso   1.000  C
  H248     1.0000 0.44162  0.37864  0.91208  Biso   1.000  H
  C251     1.0000 0.71893  0.23257  0.77637  Biso   1.000  C
  C252     1.0000 0.74042  0.35706  0.77787  Biso   1.000  C
  C253     1.0000 0.76740  0.48635  0.77637  Biso   1.000  C
  C254     1.0000 0.42214  0.23996  0.99991  Biso   1.000  C
  C255     1.0000 0.47540  0.36564  0.02758  Biso   1.000  C
  N63      1.0000 0.67824  0.16539  0.76759  Biso   1.000  N
  H249     1.0000 0.76909  0.25065  0.78218  Biso   1.000  H
  H250     1.0000 0.79074  0.37368  0.77758  Biso   1.000  H
  N64      1.0000 0.83462  0.51284  0.76759  Biso   1.000  N
  H251     1.0000 0.74934  0.51845  0.78218  Biso   1.000  H
  H252     1.0000 0.39852  0.20197  0.97030  Biso   1.000  H
  C256     1.0000 0.43830  0.22545  0.05949  Biso   1.000  C
  C257     1.0000 0.49193  0.35177  0.08768  Biso   1.000  C
  H253     1.0000 0.48814  0.41355  0.01656  Biso   1.000  H
  C258     1.0000 0.71372  0.12195  0.76548  Biso   1.000  C
  C259     1.0000 0.87802  0.59178  0.76548  Biso   1.000  C
  C260     1.0000 0.47285  0.28108  0.10326  Biso   1.000  C
  C261     1.0000 0.41931  0.15028  0.07619  Biso   1.000  C
  C262     1.0000 0.52964  0.41037  0.13366  Biso   1.000  C
  C263     1.0000 0.68972  0.06929  0.81999  Biso   1.000  C
  H254     1.0000 0.76660  0.15417  0.76726  Biso   1.000  H
  H255     1.0000 0.70181  0.09497  0.72546  Biso   1.000  H
  C264     1.0000 0.93072  0.62044  0.81999  Biso   1.000  C
  H256     1.0000 0.84583  0.61245  0.76726  Biso   1.000  H
  H257     1.0000 0.90499  0.60684  0.72546  Biso   1.000  H
  H258     1.0000 0.48315  0.27056  0.14398  Biso   1.000  H
  N65      1.0000 0.42581  0.13317  0.13239  Biso   1.000  N
  H259     1.0000 0.40223  0.11434  0.04447  Biso   1.000  H
  N66      1.0000 0.54834  0.47496  0.12005  Biso   1.000  N
  H260     1.0000 0.53984  0.39936  0.17428  Biso   1.000  H
  N67      1.0000 0.71684  0.10819  0.87910  Biso   1.000  N
  H261     1.0000 0.63635  0.04069  0.82117  Biso   1.000  H
  H262     1.0000 0.70813  0.03545  0.81408  Biso   1.000  H
  N68      1.0000 0.89184  0.60867  0.87910  Biso   1.000  N
  H263     1.0000 0.95931  0.59567  0.82117  Biso   1.000  H
  H264     1.0000 0.96454  0.67267  0.81408  Biso   1.000  H
  C265     1.0000 0.40700  0.05855  0.14299  Biso   1.000  C
  C266     1.0000 0.58362  0.52935  0.16907  Biso   1.000  C
  C267     1.0000 0.67064  0.09589  0.92109  Biso   1.000  C
  C268     1.0000 0.90412  0.57473  0.92109  Biso   1.000  C
  C269     1.0000 0.47062  0.05428  0.16907  Biso   1.000  C
  H265     1.0000 0.39142  0.03167  0.10288  Biso   1.000  H
  H266     1.0000 0.36622  0.03578  0.17278  Biso   1.000  H
  H267     1.0000 0.59591  0.50815  0.20496  Biso   1.000  H
  H268     1.0000 0.55031  0.54565  0.18418  Biso   1.000  H
  C270     1.0000 0.65155  0.59297  0.14299  Biso   1.000  C
  C271     1.0000 0.68923  0.12999  0.98358  Biso   1.000  C
  H269     1.0000 0.62133  0.06297  0.91208  Biso   1.000  H
  C272     1.0000 0.87002  0.55925  0.98358  Biso   1.000  C
  H270     1.0000 0.93703  0.55838  0.91208  Biso   1.000  H
  N69      1.0000 0.52503  0.07339  0.12005  Biso   1.000  N
  H271     1.0000 0.49183  0.08774  0.20496  Biso   1.000  H
  H272     1.0000 0.45430  0.00464  0.18418  Biso   1.000  H
  N70      1.0000 0.70732  0.57414  0.13239  Biso   1.000  N
  H273     1.0000 0.64023  0.60857  0.10288  Biso   1.000  H
  H274     1.0000 0.66952  0.63377  0.17278  Biso   1.000  H
  C273     1.0000 0.76004  0.18217  0.99991  Biso   1.000  C
  C274     1.0000 0.63430  0.10976  0.02758  Biso   1.000  C
  C275     1.0000 0.81783  0.57786  0.99991  Biso   1.000  C
  C276     1.0000 0.89020  0.52455  0.02758  Biso   1.000  C
  C277     1.0000 0.58960  0.11925  0.13366  Biso   1.000  C
  C278     1.0000 0.73092  0.58067  0.07619  Biso   1.000  C
  H275     1.0000 0.79804  0.19658  0.97030  Biso   1.000  H
  C279     1.0000 0.77451  0.21287  0.05949  Biso   1.000  C
  C280     1.0000 0.64825  0.14019  0.08768  Biso   1.000  C
  H276     1.0000 0.58642  0.07457  0.01656  Biso   1.000  H
  C281     1.0000 0.78712  0.56167  0.05949  Biso   1.000  C
  H277     1.0000 0.80341  0.60144  0.97030  Biso   1.000  H
  C282     1.0000 0.85979  0.50804  0.08768  Biso   1.000  C
  H278     1.0000 0.92541  0.51187  0.01656  Biso   1.000  H
  H279     1.0000 0.60063  0.14046  0.17428  Biso   1.000  H
  H280     1.0000 0.71213  0.59777  0.04447  Biso   1.000  H
  C283     1.0000 0.71891  0.19178  0.10326  Biso   1.000  C
  C284     1.0000 0.84970  0.26905  0.07619  Biso   1.000  C
  C285     1.0000 0.80822  0.52714  0.10326  Biso   1.000  C
  C286     1.0000 0.88073  0.47037  0.13366  Biso   1.000  C
  H281     1.0000 0.72944  0.21255  0.14398  Biso   1.000  H
  N71      1.0000 0.86684  0.29268  0.13239  Biso   1.000  N
  H282     1.0000 0.88561  0.28788  0.04447  Biso   1.000  H
  H283     1.0000 0.78741  0.51683  0.14398  Biso   1.000  H
  N72      1.0000 0.92661  0.45165  0.12005  Biso   1.000  N
  H284     1.0000 0.85951  0.46018  0.17428  Biso   1.000  H
  C287     1.0000 0.94142  0.34848  0.14299  Biso   1.000  C
  C288     1.0000 0.94574  0.41636  0.16907  Biso   1.000  C
  H285     1.0000 0.96833  0.35975  0.10288  Biso   1.000  H
  H286     1.0000 0.96424  0.33045  0.17278  Biso   1.000  H
  H287     1.0000 0.91220  0.40406  0.20496  Biso   1.000  H
  H288     1.0000 0.99533  0.44965  0.18418  Biso   1.000  H
  Ne1      1.0000 0.66666  0.33333  0.46308  Biso   1.000  Ne
  He1      1.0000 0.66668  0.33335  0.58953  Biso   1.000  He
  He2      1.0000 0.69217  0.48850  0.42924  Biso   1.000  He
  He3      1.0000 0.82143  0.29835  0.42414  Biso   1.000  He
  He4      1.0000 0.47549  0.17759  0.42389  Biso   1.000  He
  Ar1      1.0000 0.66659  0.33328  0.46826  Biso   1.000  Ar
  Ne2      1.0000 0.33333  0.66666  0.30935  Biso   1.000  Ne
  He5      1.0000 0.33332  0.66666  0.44303  Biso   1.000  He
  He6      1.0000 0.30942  0.77660  0.27122  Biso   1.000  He
  He7      1.0000 0.47124  0.69128  0.26987  Biso   1.000  He
  He8      1.0000 0.22160  0.53075  0.27157  Biso   1.000  He
  Ar2      1.0000 0.33329  0.66661  0.31403  Biso   1.000  Ar
  Ne3      1.0000 0.33333  0.66666  0.79642  Biso   1.000  Ne
  He9      1.0000 0.33333  0.66665  0.92284  Biso   1.000  He
  He10     1.0000 0.35884  0.82183  0.76259  Biso   1.000  He
  He11     1.0000 0.48807  0.63160  0.75746  Biso   1.000  He
  He12     1.0000 0.14212  0.51094  0.75726  Biso   1.000  He
  Ar3      1.0000 0.33280  0.66626  0.80173  Biso   1.000  Ar
  Ne4      1.0000 0.99999  0.99999  0.12975  Biso   1.000  Ne
  He13     1.0000 0.99996  0.99996  0.25616  Biso   1.000  He
  He14     1.0000 0.03527  0.19063  0.09069  Biso   1.000  He
  He15     1.0000 0.15481  0.96502  0.09082  Biso   1.000  He
  He16     1.0000 0.80879  0.84423  0.09058  Biso   1.000  He
  Ar4      1.0000 1.00000  0.99995  0.13514  Biso   1.000  Ar
  Ne5      1.0000 0.66666  0.33333  0.97602  Biso   1.000  Ne
  He17     1.0000 0.66665  0.33334  0.10966  Biso   1.000  He
  He18     1.0000 0.64275  0.44326  0.93792  Biso   1.000  He
  He19     1.0000 0.80456  0.35796  0.93655  Biso   1.000  He
  He20     1.0000 0.55990  0.20337  0.93920  Biso   1.000  He
  Ar5      1.0000 0.66815  0.33355  0.98051  Biso   1.000  Ar
  Ne6      1.0000 0.99999  0.99999  0.64269  Biso   1.000  Ne
  He21     1.0000 0.00000  0.99997  0.77635  Biso   1.000  He
  He22     1.0000 0.97608  0.10994  0.60459  Biso   1.000  He
  He23     1.0000 0.13790  0.02463  0.60324  Biso   1.000  He
  He24     1.0000 0.89325  0.87005  0.60588  Biso   1.000  He
  Ar6      1.0000 0.00156  0.00040  0.64729  Biso   1.000  Ar
