data_image0
_cell_length_a       46.875
_cell_length_b       46.875
_cell_length_c       46.875
_cell_angle_alpha    90
_cell_angle_beta     90
_cell_angle_gamma    90

_symmetry_space_group_name_H-M    "P 1"
_symmetry_int_tables_number       1

loop_
  _symmetry_equiv_pos_as_xyz
  'x, y, z'

loop_
  _atom_site_label
  _atom_site_occupancy
  _atom_site_fract_x
  _atom_site_fract_y
  _atom_site_fract_z
  _atom_site_thermal_displace_type
  _atom_site_B_iso_or_equiv
  _atom_site_type_symbol
  C1       1.0000 0.59851  0.36870  0.46502  Biso   1.000  C
  C2       1.0000 0.58016  0.34699  0.46453  Biso   1.000  C
  H1       1.0000 0.60301  0.37760  0.48271  Biso   1.000  H
  C3       1.0000 0.61086  0.37841  0.44087  Biso   1.000  C
  C4       1.0000 0.57391  0.33459  0.43787  Biso   1.000  C
  H2       1.0000 0.57161  0.34010  0.48160  Biso   1.000  H
  C5       1.0000 0.60375  0.36623  0.41470  Biso   1.000  C
  C6       1.0000 0.63273  0.40068  0.44320  Biso   1.000  C
  N1       1.0000 0.55411  0.30959  0.44030  Biso   1.000  N
  C7       1.0000 0.58496  0.34421  0.41423  Biso   1.000  C
  H3       1.0000 0.61190  0.37321  0.39750  Biso   1.000  H
  N2       1.0000 0.64745  0.40845  0.42157  Biso   1.000  N
  H4       1.0000 0.63599  0.40949  0.46110  Biso   1.000  H
  C8       1.0000 0.53327  0.30780  0.41741  Biso   1.000  C
  C9       1.0000 0.55676  0.28826  0.46140  Biso   1.000  C
  H5       1.0000 0.57980  0.33570  0.39650  Biso   1.000  H
  C10      1.0000 0.66780  0.43243  0.42447  Biso   1.000  C
  C11      1.0000 0.51753  0.33263  0.40937  Biso   1.000  C
  C12      1.0000 0.52693  0.28128  0.40698  Biso   1.000  C
  C13      1.0000 0.53536  0.27467  0.47055  Biso   1.000  C
  C14      1.0000 0.58174  0.27994  0.46993  Biso   1.000  C
  H6       1.0000 0.67189  0.43590  0.44510  Biso   1.000  H
  C15      1.0000 0.69591  0.42741  0.40819  Biso   1.000  C
  C16      1.0000 0.65457  0.46054  0.41060  Biso   1.000  C
  C17      1.0000 0.49579  0.33001  0.39006  Biso   1.000  C
  H7       1.0000 0.52209  0.35070  0.41730  Biso   1.000  H
  C18      1.0000 0.50195  0.27970  0.38705  Biso   1.000  C
  H8       1.0000 0.53771  0.26490  0.41199  Biso   1.000  H
  H9       1.0000 0.51699  0.27900  0.46310  Biso   1.000  H
  C19      1.0000 0.53777  0.25325  0.49150  Biso   1.000  C
  C20      1.0000 0.58628  0.25982  0.49007  Biso   1.000  C
  H10      1.0000 0.59799  0.28860  0.46140  Biso   1.000  H
  N3       1.0000 0.71066  0.40145  0.42052  Biso   1.000  N
  H11      1.0000 0.69261  0.42530  0.38720  Biso   1.000  H
  C21      1.0000 0.71563  0.45120  0.41446  Biso   1.000  C
  C22      1.0000 0.67294  0.48405  0.40894  Biso   1.000  C
  H12      1.0000 0.64800  0.45589  0.39110  Biso   1.000  H
  H13      1.0000 0.63759  0.46620  0.42180  Biso   1.000  H
  C23      1.0000 0.48821  0.30255  0.38046  Biso   1.000  C
  H14      1.0000 0.48599  0.34641  0.38330  Biso   1.000  H
  H15      1.0000 0.49630  0.26191  0.37931  Biso   1.000  H
  H16      1.0000 0.52090  0.24410  0.49809  Biso   1.000  H
  C24      1.0000 0.56292  0.24529  0.50246  Biso   1.000  C
  H17      1.0000 0.60521  0.25540  0.49589  Biso   1.000  H
  C25      1.0000 0.71697  0.38302  0.40352  Biso   1.000  C
  H18      1.0000 0.73220  0.45001  0.40149  Biso   1.000  H
  H19      1.0000 0.72279  0.44919  0.43420  Biso   1.000  H
  C26      1.0000 0.70170  0.48073  0.41120  Biso   1.000  C
  H20      1.0000 0.66519  0.50259  0.40621  Biso   1.000  H
  C27      1.0000 0.46167  0.30010  0.36073  Biso   1.000  C
  C28      1.0000 0.56672  0.22468  0.52747  Biso   1.000  C
  C29      1.0000 0.73178  0.35605  0.41024  Biso   1.000  C
  H21      1.0000 0.71189  0.38620  0.38419  Biso   1.000  H
  H22      1.0000 0.71360  0.49719  0.41071  Biso   1.000  H
  N4       1.0000 0.45186  0.27622  0.35351  Biso   1.000  N
  H23      1.0000 0.45269  0.31699  0.35401  Biso   1.000  H
  N5       1.0000 0.59070  0.21897  0.53649  Biso   1.000  N
  H24      1.0000 0.55040  0.21619  0.53611  Biso   1.000  H
  C30      1.0000 0.73929  0.34020  0.38972  Biso   1.000  C
  C31      1.0000 0.73696  0.34746  0.43710  Biso   1.000  C
  C32      1.0000 0.42720  0.27650  0.33632  Biso   1.000  C
  C33      1.0000 0.58997  0.19712  0.55735  Biso   1.000  C
  C34      1.0000 0.75396  0.31371  0.39315  Biso   1.000  C
  H25      1.0000 0.73489  0.34630  0.37090  Biso   1.000  H
  H26      1.0000 0.72979  0.35910  0.45210  Biso   1.000  H
  C35      1.0000 0.75119  0.32395  0.44463  Biso   1.000  C
  C36      1.0000 0.40260  0.26564  0.35497  Biso   1.000  C
  C37      1.0000 0.43025  0.25920  0.31070  Biso   1.000  C
  H27      1.0000 0.42310  0.29660  0.33060  Biso   1.000  H
  H28      1.0000 0.57030  0.18891  0.55829  Biso   1.000  H
  C38      1.0000 0.61041  0.17457  0.55057  Biso   1.000  C
  C39      1.0000 0.59849  0.20954  0.58810  Biso   1.000  C
  C40      1.0000 0.75959  0.30733  0.42295  Biso   1.000  C
  H29      1.0000 0.75940  0.30170  0.37779  Biso   1.000  H
  H30      1.0000 0.75509  0.31940  0.46400  Biso   1.000  H
  C41      1.0000 0.37687  0.25724  0.33681  Biso   1.000  C
  H31      1.0000 0.40911  0.24890  0.36610  Biso   1.000  H
  H32      1.0000 0.39691  0.28070  0.36860  Biso   1.000  H
  C42      1.0000 0.40681  0.25771  0.29058  Biso   1.000  C
  N6       1.0000 0.45636  0.26835  0.29378  Biso   1.000  N
  H33      1.0000 0.43390  0.23921  0.31721  Biso   1.000  H
  N7       1.0000 0.60151  0.16113  0.52265  Biso   1.000  N
  H34      1.0000 0.63010  0.18270  0.54891  Biso   1.000  H
  C43      1.0000 0.61007  0.14876  0.57363  Biso   1.000  C
  C44      1.0000 0.60587  0.18784  0.60687  Biso   1.000  C
  H35      1.0000 0.61481  0.22281  0.58601  Biso   1.000  H
  H36      1.0000 0.58221  0.22039  0.59601  Biso   1.000  H
  N8       1.0000 0.77553  0.27947  0.42658  Biso   1.000  N
  C45      1.0000 0.37743  0.25440  0.30660  Biso   1.000  C
  H37      1.0000 0.35930  0.25370  0.34630  Biso   1.000  H
  H38      1.0000 0.40971  0.24119  0.27770  Biso   1.000  H
  H39      1.0000 0.40651  0.27520  0.27881  Biso   1.000  H
  C46      1.0000 0.47403  0.25069  0.28723  Biso   1.000  C
  C47      1.0000 0.61982  0.15676  0.50398  Biso   1.000  C
  H40      1.0000 0.59241  0.13741  0.57169  Biso   1.000  H
  H41      1.0000 0.62660  0.13600  0.57071  Biso   1.000  H
  C48      1.0000 0.61158  0.16273  0.60294  Biso   1.000  C
  H42      1.0000 0.60659  0.19360  0.62630  Biso   1.000  H
  C49      1.0000 0.79959  0.27181  0.40919  Biso   1.000  C
  C50      1.0000 0.76973  0.26246  0.45099  Biso   1.000  C
  H43      1.0000 0.36041  0.25060  0.29630  Biso   1.000  H
  C51      1.0000 0.50097  0.25856  0.27076  Biso   1.000  C
  H44      1.0000 0.47100  0.23140  0.29250  Biso   1.000  H
  C52      1.0000 0.61559  0.14325  0.47674  Biso   1.000  C
  H45      1.0000 0.63859  0.16301  0.50810  Biso   1.000  H
  H46      1.0000 0.61719  0.15151  0.61879  Biso   1.000  H
  C53      1.0000 0.80371  0.24288  0.40271  Biso   1.000  C
  C54      1.0000 0.81807  0.28860  0.39808  Biso   1.000  C
  C55      1.0000 0.74336  0.25685  0.45792  Biso   1.000  C
  C56      1.0000 0.79183  0.25163  0.46756  Biso   1.000  C
  C57      1.0000 0.51733  0.23674  0.26025  Biso   1.000  C
  C58      1.0000 0.50923  0.28457  0.26327  Biso   1.000  C
  C59      1.0000 0.58756  0.13854  0.46833  Biso   1.000  C
  C60      1.0000 0.63701  0.13532  0.45901  Biso   1.000  C
  H47      1.0000 0.79130  0.22869  0.41001  Biso   1.000  H
  C61      1.0000 0.82709  0.23546  0.38483  Biso   1.000  C
  C62      1.0000 0.84166  0.28239  0.38257  Biso   1.000  C
  H48      1.0000 0.81481  0.30831  0.40119  Biso   1.000  H
  H49      1.0000 0.72830  0.26411  0.44651  Biso   1.000  H
  C63      1.0000 0.73675  0.23977  0.48267  Biso   1.000  C
  C64      1.0000 0.78455  0.23674  0.49077  Biso   1.000  C
  H50      1.0000 0.81120  0.25470  0.46259  Biso   1.000  H
  C65      1.0000 0.54208  0.24335  0.24316  Biso   1.000  C
  H51      1.0000 0.51241  0.21749  0.26419  Biso   1.000  H
  H52      1.0000 0.49719  0.29980  0.26921  Biso   1.000  H
  C66      1.0000 0.53244  0.29184  0.24836  Biso   1.000  C
  C67      1.0000 0.58195  0.12361  0.44318  Biso   1.000  C
  H53      1.0000 0.57231  0.14549  0.47959  Biso   1.000  H
  H54      1.0000 0.65611  0.14010  0.46389  Biso   1.000  H
  C68      1.0000 0.63223  0.12081  0.43460  Biso   1.000  C
  H55      1.0000 0.82839  0.21619  0.37871  Biso   1.000  H
  C69      1.0000 0.84708  0.25327  0.37611  Biso   1.000  C
  H56      1.0000 0.85421  0.29700  0.37619  Biso   1.000  H
  H57      1.0000 0.71750  0.23580  0.48759  Biso   1.000  H
  C70      1.0000 0.75857  0.22925  0.49903  Biso   1.000  C
  H58      1.0000 0.79981  0.23081  0.50281  Biso   1.000  H
  C71      1.0000 0.54901  0.26972  0.23755  Biso   1.000  C
  H59      1.0000 0.55349  0.22831  0.23590  Biso   1.000  H
  H60      1.0000 0.53741  0.31119  0.24529  Biso   1.000  H
  C72      1.0000 0.60450  0.11639  0.42490  Biso   1.000  C
  H61      1.0000 0.56290  0.11840  0.43851  Biso   1.000  H
  H62      1.0000 0.64789  0.11360  0.42400  Biso   1.000  H
  C73      1.0000 0.86989  0.24354  0.36090  Biso   1.000  C
  C74      1.0000 0.75070  0.21276  0.52597  Biso   1.000  C
  N9       1.0000 0.57342  0.27552  0.22052  Biso   1.000  N
  N10      1.0000 0.59872  0.09871  0.40128  Biso   1.000  N
  N11      1.0000 0.89156  0.25924  0.35307  Biso   1.000  N
  H63      1.0000 0.86999  0.22400  0.35561  Biso   1.000  H
  N12      1.0000 0.76834  0.20621  0.54364  Biso   1.000  N
  H64      1.0000 0.73139  0.20751  0.52900  Biso   1.000  H
  C75      1.0000 0.59081  0.29958  0.22820  Biso   1.000  C
  C76      1.0000 0.57705  0.25961  0.19268  Biso   1.000  C
  C77      1.0000 0.61638  0.07511  0.39550  Biso   1.000  C
  C78      1.0000 0.57510  0.10449  0.38362  Biso   1.000  C
  C79      1.0000 0.91584  0.24610  0.33933  Biso   1.000  C
  C80      1.0000 0.75921  0.18929  0.56975  Biso   1.000  C
  C81      1.0000 0.59729  0.30372  0.25713  Biso   1.000  C
  C82      1.0000 0.60192  0.31808  0.21141  Biso   1.000  C
  C83      1.0000 0.60685  0.25395  0.18628  Biso   1.000  C
  C84      1.0000 0.55537  0.25120  0.17604  Biso   1.000  C
  C85      1.0000 0.62362  0.05683  0.41805  Biso   1.000  C
  C86      1.0000 0.62082  0.06539  0.36777  Biso   1.000  C
  C87      1.0000 0.55682  0.08194  0.37638  Biso   1.000  C
  C88      1.0000 0.56540  0.13222  0.37918  Biso   1.000  C
  C89      1.0000 0.92122  0.26276  0.31121  Biso   1.000  C
  H65      1.0000 0.91230  0.22541  0.33551  Biso   1.000  H
  C90      1.0000 0.94174  0.25022  0.35863  Biso   1.000  C
  H66      1.0000 0.73920  0.18281  0.56610  Biso   1.000  H
  C91      1.0000 0.77651  0.16367  0.57280  Biso   1.000  C
  C92      1.0000 0.75770  0.20943  0.59319  Biso   1.000  C
  H67      1.0000 0.58999  0.29131  0.27130  Biso   1.000  H
  C93      1.0000 0.61517  0.32708  0.26455  Biso   1.000  C
  C94      1.0000 0.61743  0.34165  0.21760  Biso   1.000  C
  H68      1.0000 0.59881  0.31479  0.19170  Biso   1.000  H
  H69      1.0000 0.62221  0.25939  0.19829  Biso   1.000  H
  C95      1.0000 0.61028  0.23930  0.15981  Biso   1.000  C
  C96      1.0000 0.56290  0.23695  0.15255  Biso   1.000  C
  H70      1.0000 0.53600  0.25510  0.18061  Biso   1.000  H
  H71      1.0000 0.61841  0.06150  0.43710  Biso   1.000  H
  C97      1.0000 0.63855  0.03168  0.41244  Biso   1.000  C
  C98      1.0000 0.63531  0.04098  0.36299  Biso   1.000  C
  H72      1.0000 0.61361  0.07601  0.35211  Biso   1.000  H
  H73      1.0000 0.56149  0.06289  0.38159  Biso   1.000  H
  C99      1.0000 0.53167  0.08757  0.36145  Biso   1.000  C
  C100     1.0000 0.54099  0.13702  0.36469  Biso   1.000  C
  H74      1.0000 0.57600  0.14790  0.38639  Biso   1.000  H
  N13      1.0000 0.89574  0.25969  0.29314  Biso   1.000  N
  H75      1.0000 0.92689  0.28309  0.31441  Biso   1.000  H
  C101     1.0000 0.94571  0.24410  0.29551  Biso   1.000  C
  H76      1.0000 0.94400  0.27070  0.36320  Biso   1.000  H
  H77      1.0000 0.93879  0.23981  0.37670  Biso   1.000  H
  C102     1.0000 0.96617  0.24032  0.34543  Biso   1.000  C
  N14      1.0000 0.77621  0.14647  0.54814  Biso   1.000  N
  H78      1.0000 0.79661  0.16941  0.57690  Biso   1.000  H
  C103     1.0000 0.76563  0.14505  0.59740  Biso   1.000  C
  C104     1.0000 0.75439  0.19341  0.62257  Biso   1.000  C
  H79      1.0000 0.74121  0.22229  0.59029  Biso   1.000  H
  H80      1.0000 0.77519  0.22121  0.59349  Biso   1.000  H
  H81      1.0000 0.62129  0.32841  0.28380  Biso   1.000  H
  C105     1.0000 0.62389  0.34707  0.24674  Biso   1.000  C
  H82      1.0000 0.62381  0.35420  0.20301  Biso   1.000  H
  H83      1.0000 0.62910  0.23490  0.15371  Biso   1.000  H
  C106     1.0000 0.58976  0.23177  0.14396  Biso   1.000  C
  H84      1.0000 0.54790  0.22980  0.14091  Biso   1.000  H
  H85      1.0000 0.64550  0.02039  0.42769  Biso   1.000  H
  C107     1.0000 0.64324  0.02327  0.38441  Biso   1.000  C
  H86      1.0000 0.64011  0.03610  0.34389  Biso   1.000  H
  H87      1.0000 0.52041  0.07230  0.35450  Biso   1.000  H
  C108     1.0000 0.52326  0.11558  0.35676  Biso   1.000  C
  H88      1.0000 0.53611  0.15610  0.35989  Biso   1.000  H
  C109     1.0000 0.88478  0.28079  0.28506  Biso   1.000  C
  C110     1.0000 0.96937  0.23985  0.31699  Biso   1.000  C
  H89      1.0000 0.93790  0.22549  0.28930  Biso   1.000  H
  H90      1.0000 0.95300  0.25429  0.27851  Biso   1.000  H
  H91      1.0000 0.98140  0.23349  0.35699  Biso   1.000  H
  C111     1.0000 0.80011  0.13929  0.53833  Biso   1.000  C
  H92      1.0000 0.74891  0.13391  0.59089  Biso   1.000  H
  H93      1.0000 0.78069  0.13139  0.60309  Biso   1.000  H
  C112     1.0000 0.75725  0.16318  0.62313  Biso   1.000  C
  H94      1.0000 0.75059  0.20369  0.63959  Biso   1.000  H
  C113     1.0000 0.63910  0.36990  0.25647  Biso   1.000  C
  C114     1.0000 0.59648  0.21696  0.11697  Biso   1.000  C
  C115     1.0000 0.65675  0.99603  0.38018  Biso   1.000  C
  C116     1.0000 0.49602  0.11981  0.34325  Biso   1.000  C
  C117     1.0000 0.85837  0.28265  0.26635  Biso   1.000  C
  H95      1.0000 0.89321  0.29830  0.29079  Biso   1.000  H
  H96      1.0000 0.98799  0.23661  0.30980  Biso   1.000  H
  C118     1.0000 0.80254  0.11955  0.51179  Biso   1.000  C
  H97      1.0000 0.81700  0.14601  0.54731  Biso   1.000  H
  H98      1.0000 0.75371  0.15371  0.64070  Biso   1.000  H
  N15      1.0000 0.64693  0.39157  0.24077  Biso   1.000  N
  H99      1.0000 0.64439  0.37001  0.27601  Biso   1.000  H
  N16      1.0000 0.57948  0.21067  0.09856  Biso   1.000  N
  H100     1.0000 0.61581  0.21190  0.11379  Biso   1.000  H
  N17      1.0000 0.66112  0.97737  0.39849  Biso   1.000  N
  H101     1.0000 0.66300  0.99189  0.36141  Biso   1.000  H
  N18      1.0000 0.47735  0.10150  0.33888  Biso   1.000  N
  H102     1.0000 0.49190  0.13860  0.33700  Biso   1.000  H
  C119     1.0000 0.84781  0.30750  0.25662  Biso   1.000  C
  C120     1.0000 0.84548  0.25801  0.25792  Biso   1.000  C
  C121     1.0000 0.83002  0.10995  0.50421  Biso   1.000  C
  C122     1.0000 0.77969  0.11296  0.49805  Biso   1.000  C
  C123     1.0000 0.66067  0.41583  0.25391  Biso   1.000  C
  C124     1.0000 0.59181  0.19590  0.07260  Biso   1.000  C
  C125     1.0000 0.67456  0.94942  0.38959  Biso   1.000  C
  C126     1.0000 0.44943  0.11042  0.32544  Biso   1.000  C
  C127     1.0000 0.82289  0.31046  0.24041  Biso   1.000  C
  H103     1.0000 0.85809  0.32439  0.26110  Biso   1.000  H
  C128     1.0000 0.82170  0.26042  0.24137  Biso   1.000  C
  H104     1.0000 0.85280  0.23989  0.26340  Biso   1.000  H
  C129     1.0000 0.83264  0.09062  0.48247  Biso   1.000  C
  H105     1.0000 0.84640  0.11669  0.51401  Biso   1.000  H
  H106     1.0000 0.76190  0.12070  0.50370  Biso   1.000  H
  C130     1.0000 0.78129  0.09303  0.47307  Biso   1.000  C
  C131     1.0000 0.68879  0.42121  0.23723  Biso   1.000  C
  H107     1.0000 0.66449  0.41231  0.27460  Biso   1.000  H
  C132     1.0000 0.64137  0.44175  0.24979  Biso   1.000  C
  C133     1.0000 0.57553  0.16779  0.06756  Biso   1.000  C
  H108     1.0000 0.61280  0.19260  0.07471  Biso   1.000  H
  C134     1.0000 0.58554  0.21564  0.04881  Biso   1.000  C
  C135     1.0000 0.69713  0.94263  0.41003  Biso   1.000  C
  H109     1.0000 0.68271  0.95110  0.36990  Biso   1.000  H
  C136     1.0000 0.64877  0.92638  0.38993  Biso   1.000  C
  C137     1.0000 0.44265  0.08998  0.30287  Biso   1.000  C
  H110     1.0000 0.45109  0.13009  0.31729  Biso   1.000  H
  C138     1.0000 0.42637  0.11008  0.35123  Biso   1.000  C
  C139     1.0000 0.80971  0.28531  0.23093  Biso   1.000  C
  H111     1.0000 0.81530  0.32870  0.23599  Biso   1.000  H
  H112     1.0000 0.81231  0.24309  0.23639  Biso   1.000  H
  C140     1.0000 0.80781  0.08258  0.46673  Biso   1.000  C
  H113     1.0000 0.85071  0.08271  0.47791  Biso   1.000  H
  H114     1.0000 0.76491  0.08800  0.46229  Biso   1.000  H
  N19      1.0000 0.70686  0.39575  0.24032  Biso   1.000  N
  H115     1.0000 0.68561  0.42690  0.21690  Biso   1.000  H
  C141     1.0000 0.70449  0.44572  0.25589  Biso   1.000  C
  H116     1.0000 0.63680  0.44399  0.22929  Biso   1.000  H
  H117     1.0000 0.62330  0.43881  0.26020  Biso   1.000  H
  C142     1.0000 0.65457  0.46615  0.25969  Biso   1.000  C
  N20      1.0000 0.57843  0.14743  0.09154  Biso   1.000  N
  H118     1.0000 0.55490  0.17190  0.06411  Biso   1.000  H
  C143     1.0000 0.58940  0.15456  0.03945  Biso   1.000  C
  H119     1.0000 0.59851  0.23219  0.05001  Biso   1.000  H
  H120     1.0000 0.56580  0.22281  0.05079  Biso   1.000  H
  C144     1.0000 0.58880  0.20171  0.01929  Biso   1.000  C
  N21      1.0000 0.71895  0.96350  0.40930  Biso   1.000  N
  H121     1.0000 0.68890  0.94170  0.42970  Biso   1.000  H
  C145     1.0000 0.70955  0.91189  0.40151  Biso   1.000  C
  H122     1.0000 0.63740  0.92830  0.40759  Biso   1.000  H
  H123     1.0000 0.63599  0.92930  0.37340  Biso   1.000  H
  C146     1.0000 0.66272  0.89705  0.38842  Biso   1.000  C
  N22      1.0000 0.46351  0.09071  0.28105  Biso   1.000  N
  H124     1.0000 0.44171  0.07029  0.31110  Biso   1.000  H
  C147     1.0000 0.41190  0.09847  0.29045  Biso   1.000  C
  H125     1.0000 0.42831  0.09239  0.36260  Biso   1.000  H
  H126     1.0000 0.42929  0.12659  0.36399  Biso   1.000  H
  C148     1.0000 0.39706  0.11157  0.33728  Biso   1.000  C
  N23      1.0000 0.78643  0.28644  0.21357  Biso   1.000  N
  N24      1.0000 0.80958  0.05971  0.44589  Biso   1.000  N
  C149     1.0000 0.71494  0.38479  0.21922  Biso   1.000  C
  C150     1.0000 0.68301  0.46938  0.26016  Biso   1.000  C
  H127     1.0000 0.71070  0.43791  0.27450  Biso   1.000  H
  H128     1.0000 0.72149  0.45299  0.24570  Biso   1.000  H
  H129     1.0000 0.64301  0.48141  0.26650  Biso   1.000  H
  C151     1.0000 0.55680  0.13271  0.09931  Biso   1.000  C
  C152     1.0000 0.59106  0.17293  0.01594  Biso   1.000  C
  H130     1.0000 0.60890  0.14801  0.04410  Biso   1.000  H
  H131     1.0000 0.57820  0.13760  0.03379  Biso   1.000  H
  H132     1.0000 0.58929  0.21361  0.00279  Biso   1.000  H
  C153     1.0000 0.72469  0.97254  0.43328  Biso   1.000  C
  C154     1.0000 0.68785  0.89314  0.39413  Biso   1.000  C
  H133     1.0000 0.72279  0.91401  0.38519  Biso   1.000  H
  H134     1.0000 0.72041  0.90400  0.41779  Biso   1.000  H
  H135     1.0000 0.65150  0.88119  0.38281  Biso   1.000  H
  C155     1.0000 0.47253  0.06671  0.27531  Biso   1.000  C
  C156     1.0000 0.39313  0.10586  0.31215  Biso   1.000  C
  H136     1.0000 0.41399  0.11479  0.27721  Biso   1.000  H
  H137     1.0000 0.40401  0.08220  0.27959  Biso   1.000  H
  H138     1.0000 0.38121  0.11721  0.34850  Biso   1.000  H
  C157     1.0000 0.76907  0.30972  0.21468  Biso   1.000  C
  C158     1.0000 0.78532  0.26908  0.19029  Biso   1.000  C
  C159     1.0000 0.78825  0.03861  0.44324  Biso   1.000  C
  C160     1.0000 0.83460  0.06212  0.42609  Biso   1.000  C
  C161     1.0000 0.73365  0.35836  0.21734  Biso   1.000  C
  H139     1.0000 0.70921  0.39319  0.20171  Biso   1.000  H
  H140     1.0000 0.69020  0.48800  0.26340  Biso   1.000  H
  C162     1.0000 0.55913  0.11085  0.12160  Biso   1.000  C
  H141     1.0000 0.53890  0.13600  0.09050  Biso   1.000  H
  H142     1.0000 0.59379  0.16521  0.99740  Biso   1.000  H
  C163     1.0000 0.74528  0.99753  0.43708  Biso   1.000  C
  H143     1.0000 0.71620  0.96390  0.44960  Biso   1.000  H
  H144     1.0000 0.69361  0.87371  0.39341  Biso   1.000  H
  C164     1.0000 0.49754  0.06293  0.25472  Biso   1.000  C
  H145     1.0000 0.46389  0.05039  0.28380  Biso   1.000  H
  H146     1.0000 0.37370  0.10660  0.30641  Biso   1.000  H
  C165     1.0000 0.75959  0.32290  0.18953  Biso   1.000  C
  C166     1.0000 0.75863  0.32171  0.23959  Biso   1.000  C
  C167     1.0000 0.81047  0.25961  0.17711  Biso   1.000  C
  C168     1.0000 0.76041  0.25865  0.17830  Biso   1.000  C
  C169     1.0000 0.77468  0.02944  0.46464  Biso   1.000  C
  C170     1.0000 0.77993  0.03008  0.41826  Biso   1.000  C
  C171     1.0000 0.84698  0.03548  0.41984  Biso   1.000  C
  C172     1.0000 0.84420  0.08576  0.41504  Biso   1.000  C
  C173     1.0000 0.74338  0.34780  0.19251  Biso   1.000  C
  C174     1.0000 0.74208  0.34547  0.24198  Biso   1.000  C
  C175     1.0000 0.53498  0.09852  0.13129  Biso   1.000  C
  C176     1.0000 0.58530  0.10377  0.13376  Biso   1.000  C
  C177     1.0000 0.75326  0.00851  0.46223  Biso   1.000  C
  C178     1.0000 0.75981  0.00992  0.41372  Biso   1.000  C
  C179     1.0000 0.50850  0.03776  0.24674  Biso   1.000  C
  C180     1.0000 0.50993  0.08629  0.24019  Biso   1.000  C
  H147     1.0000 0.76399  0.31531  0.17131  Biso   1.000  H
  H148     1.0000 0.76361  0.31230  0.25690  Biso   1.000  H
  H149     1.0000 0.82869  0.26400  0.18470  Biso   1.000  H
  C181     1.0000 0.80749  0.24339  0.15219  Biso   1.000  C
  C182     1.0000 0.75802  0.24209  0.15452  Biso   1.000  C
  H150     1.0000 0.74310  0.26359  0.18769  Biso   1.000  H
  H151     1.0000 0.77901  0.03691  0.48301  Biso   1.000  H
  H152     1.0000 0.78861  0.03859  0.40201  Biso   1.000  H
  H153     1.0000 0.84011  0.01841  0.42839  Biso   1.000  H
  C183     1.0000 0.86871  0.03497  0.40149  Biso   1.000  C
  C184     1.0000 0.86624  0.08531  0.39625  Biso   1.000  C
  H154     1.0000 0.83569  0.10351  0.42020  Biso   1.000  H
  H155     1.0000 0.73890  0.35810  0.17559  Biso   1.000  H
  H156     1.0000 0.73660  0.35281  0.26010  Biso   1.000  H
  C185     1.0000 0.53547  0.08017  0.15302  Biso   1.000  C
  H157     1.0000 0.51729  0.10300  0.12241  Biso   1.000  H
  H158     1.0000 0.60250  0.11189  0.12681  Biso   1.000  H
  C186     1.0000 0.58577  0.08497  0.15580  Biso   1.000  C
  H159     1.0000 0.74411  0.00190  0.47910  Biso   1.000  H
  H160     1.0000 0.75539  0.00410  0.39479  Biso   1.000  H
  C187     1.0000 0.52945  0.03535  0.22532  Biso   1.000  C
  H161     1.0000 0.50191  0.02091  0.25589  Biso   1.000  H
  C188     1.0000 0.53007  0.08175  0.22007  Biso   1.000  C
  H162     1.0000 0.50411  0.10519  0.24461  Biso   1.000  H
  H163     1.0000 0.82441  0.23889  0.14191  Biso   1.000  H
  C189     1.0000 0.78266  0.23364  0.14163  Biso   1.000  C
  H164     1.0000 0.73990  0.23661  0.14720  Biso   1.000  H
  H165     1.0000 0.87759  0.01730  0.39699  Biso   1.000  H
  C190     1.0000 0.87840  0.05911  0.38914  Biso   1.000  C
  H166     1.0000 0.87319  0.10251  0.38810  Biso   1.000  H
  C191     1.0000 0.56213  0.07390  0.16540  Biso   1.000  C
  H167     1.0000 0.51840  0.07159  0.15989  Biso   1.000  H
  H168     1.0000 0.60350  0.07981  0.16431  Biso   1.000  H
  C192     1.0000 0.53860  0.05677  0.21175  Biso   1.000  C
  H169     1.0000 0.53690  0.01700  0.22099  Biso   1.000  H
  H170     1.0000 0.53860  0.09801  0.21139  Biso   1.000  H
  C193     1.0000 0.78078  0.21495  0.11522  Biso   1.000  C
  C194     1.0000 0.90069  0.05679  0.36727  Biso   1.000  C
  N25      1.0000 0.55970  0.05412  0.19042  Biso   1.000  N
  N26      1.0000 0.75968  0.20685  0.10426  Biso   1.000  N
  H171     1.0000 0.79829  0.20919  0.10679  Biso   1.000  H
  N27      1.0000 0.90846  0.07842  0.35255  Biso   1.000  N
  H172     1.0000 0.90950  0.03889  0.36399  Biso   1.000  H
  C195     1.0000 0.58259  0.03328  0.19219  Biso   1.000  C
  C196     1.0000 0.76277  0.18878  0.07878  Biso   1.000  C
  C197     1.0000 0.93244  0.07552  0.33220  Biso   1.000  C
  C198     1.0000 0.59063  0.01754  0.16736  Biso   1.000  C
  C199     1.0000 0.59302  0.02692  0.21873  Biso   1.000  C
  H173     1.0000 0.78310  0.18560  0.07311  Biso   1.000  H
  C200     1.0000 0.74609  0.16066  0.08416  Biso   1.000  C
  C201     1.0000 0.74411  0.20450  0.05429  Biso   1.000  C
  C202     1.0000 0.92740  0.09180  0.30409  Biso   1.000  C
  H174     1.0000 0.93589  0.05489  0.32811  Biso   1.000  H
  C203     1.0000 0.96055  0.08941  0.34543  Biso   1.000  C
  H175     1.0000 0.58270  0.02210  0.14929  Biso   1.000  H
  C204     1.0000 0.60994  0.99578  0.16998  Biso   1.000  C
  C205     1.0000 0.61295  0.00196  0.22031  Biso   1.000  C
  H176     1.0000 0.58801  0.03770  0.23509  Biso   1.000  H
  N28      1.0000 0.75923  0.14694  0.10844  Biso   1.000  N
  H177     1.0000 0.72540  0.16450  0.08770  Biso   1.000  H
  C206     1.0000 0.75021  0.14138  0.05826  Biso   1.000  C
  C207     1.0000 0.73984  0.18300  0.03063  Biso   1.000  C
  H178     1.0000 0.72550  0.21071  0.06210  Biso   1.000  H
  H179     1.0000 0.75430  0.22150  0.04700  Biso   1.000  H
  N29      1.0000 0.90144  0.07949  0.28934  Biso   1.000  N
  H180     1.0000 0.92529  0.11281  0.30739  Biso   1.000  H
  C208     1.0000 0.95121  0.08553  0.28437  Biso   1.000  C
  C209     1.0000 0.98406  0.09105  0.32706  Biso   1.000  C
  H181     1.0000 0.95590  0.10891  0.35200  Biso   1.000  H
  H182     1.0000 0.96621  0.07821  0.36241  Biso   1.000  H
  H183     1.0000 0.61670  0.98601  0.15360  Biso   1.000  H
  C210     1.0000 0.61954  0.98822  0.19746  Biso   1.000  C
  H184     1.0000 0.62069  0.99631  0.23810  Biso   1.000  H
  C211     1.0000 0.74353  0.13909  0.13011  Biso   1.000  C
  H185     1.0000 0.77071  0.13681  0.05600  Biso   1.000  H
  H186     1.0000 0.73980  0.12331  0.06121  Biso   1.000  H
  C212     1.0000 0.74033  0.15456  0.03383  Biso   1.000  C
  H187     1.0000 0.73660  0.19021  0.01201  Biso   1.000  H
  C213     1.0000 0.88303  0.09647  0.28305  Biso   1.000  C
  H188     1.0000 0.94999  0.09850  0.26780  Biso   1.000  H
  H189     1.0000 0.94921  0.06579  0.27721  Biso   1.000  H
  C214     1.0000 0.98071  0.08881  0.29830  Biso   1.000  C
  H190     1.0000 0.00260  0.09380  0.33481  Biso   1.000  H
  C215     1.0000 0.63927  0.96169  0.19989  Biso   1.000  C
  C216     1.0000 0.75326  0.12390  0.15292  Biso   1.000  C
  H191     1.0000 0.72401  0.14441  0.13001  Biso   1.000  H
  H192     1.0000 0.73350  0.14300  0.01860  Biso   1.000  H
  C217     1.0000 0.85604  0.08977  0.26822  Biso   1.000  C
  H193     1.0000 0.88621  0.11580  0.28811  Biso   1.000  H
  H194     1.0000 0.99721  0.08930  0.28640  Biso   1.000  H
  N30      1.0000 0.64649  0.95185  0.22379  Biso   1.000  N
  H195     1.0000 0.64599  0.95270  0.18300  Biso   1.000  H
  C218     1.0000 0.73545  0.11516  0.17291  Biso   1.000  C
  C219     1.0000 0.78240  0.11744  0.15834  Biso   1.000  C
  C220     1.0000 0.84019  0.11027  0.26071  Biso   1.000  C
  C221     1.0000 0.84745  0.06289  0.26304  Biso   1.000  C
  C222     1.0000 0.66368  0.92719  0.22349  Biso   1.000  C
  C223     1.0000 0.74287  0.09728  0.19629  Biso   1.000  C
  H196     1.0000 0.71620  0.12130  0.17161  Biso   1.000  H
  H197     1.0000 0.79699  0.12380  0.14579  Biso   1.000  H
  C224     1.0000 0.78859  0.10193  0.18193  Biso   1.000  C
  C225     1.0000 0.81372  0.10686  0.24604  Biso   1.000  C
  H198     1.0000 0.84629  0.12911  0.26511  Biso   1.000  H
  C226     1.0000 0.82396  0.05536  0.24881  Biso   1.000  C
  H199     1.0000 0.85909  0.04789  0.27021  Biso   1.000  H
  C227     1.0000 0.68930  0.93026  0.24079  Biso   1.000  C
  H200     1.0000 0.66940  0.92309  0.20339  Biso   1.000  H
  C228     1.0000 0.64503  0.90259  0.23437  Biso   1.000  C
  C229     1.0000 0.77180  0.09079  0.20041  Biso   1.000  C
  H201     1.0000 0.72870  0.09001  0.20870  Biso   1.000  H
  H202     1.0000 0.80830  0.09879  0.18519  Biso   1.000  H
  C230     1.0000 0.80732  0.07706  0.24041  Biso   1.000  C
  H203     1.0000 0.80171  0.12220  0.24060  Biso   1.000  H
  H204     1.0000 0.81939  0.03601  0.24491  Biso   1.000  H
  N31      1.0000 0.70622  0.95637  0.23166  Biso   1.000  N
  H205     1.0000 0.68279  0.93391  0.26080  Biso   1.000  H
  C231     1.0000 0.70942  0.90682  0.24230  Biso   1.000  C
  H206     1.0000 0.63390  0.90910  0.25109  Biso   1.000  H
  H207     1.0000 0.63140  0.89690  0.21931  Biso   1.000  H
  C232     1.0000 0.66319  0.87689  0.24275  Biso   1.000  C
  N32      1.0000 0.77948  0.07343  0.22447  Biso   1.000  N
  C233     1.0000 0.71277  0.97402  0.24930  Biso   1.000  C
  C234     1.0000 0.69340  0.87744  0.24561  Biso   1.000  C
  H208     1.0000 0.72230  0.90970  0.25879  Biso   1.000  H
  H209     1.0000 0.72119  0.90650  0.22479  Biso   1.000  H
  H210     1.0000 0.65370  0.85931  0.24629  Biso   1.000  H
  C235     1.0000 0.76245  0.04900  0.23027  Biso   1.000  C
  C236     1.0000 0.72924  0.00098  0.24143  Biso   1.000  C
  H211     1.0000 0.70750  0.97101  0.26861  Biso   1.000  H
  H212     1.0000 0.70370  0.86039  0.24941  Biso   1.000  H
  C237     1.0000 0.75684  0.04209  0.25664  Biso   1.000  C
  C238     1.0000 0.75164  0.03243  0.20817  Biso   1.000  C
  C239     1.0000 0.73975  0.01734  0.26325  Biso   1.000  C
  C240     1.0000 0.73673  0.00922  0.21545  Biso   1.000  C
  H213     1.0000 0.76410  0.05350  0.27170  Biso   1.000  H
  H214     1.0000 0.75471  0.03740  0.18880  Biso   1.000  H
  H215     1.0000 0.73581  0.01239  0.28250  Biso   1.000  H
  H216     1.0000 0.73079  0.99721  0.20019  Biso   1.000  H
  C241     1.0000 0.46502  0.59851  0.36870  Biso   1.000  C
  C242     1.0000 0.46453  0.58016  0.34699  Biso   1.000  C
  H217     1.0000 0.48271  0.60301  0.37760  Biso   1.000  H
  C243     1.0000 0.44087  0.61086  0.37841  Biso   1.000  C
  C244     1.0000 0.43787  0.57391  0.33459  Biso   1.000  C
  H218     1.0000 0.48160  0.57161  0.34010  Biso   1.000  H
  C245     1.0000 0.41470  0.60375  0.36623  Biso   1.000  C
  C246     1.0000 0.44320  0.63273  0.40068  Biso   1.000  C
  N33      1.0000 0.44030  0.55411  0.30959  Biso   1.000  N
  C247     1.0000 0.41423  0.58496  0.34421  Biso   1.000  C
  H219     1.0000 0.39750  0.61190  0.37321  Biso   1.000  H
  N34      1.0000 0.42157  0.64745  0.40845  Biso   1.000  N
  H220     1.0000 0.46110  0.63599  0.40949  Biso   1.000  H
  C248     1.0000 0.41741  0.53327  0.30780  Biso   1.000  C
  C249     1.0000 0.46140  0.55676  0.28826  Biso   1.000  C
  H221     1.0000 0.39650  0.57980  0.33570  Biso   1.000  H
  C250     1.0000 0.42447  0.66780  0.43243  Biso   1.000  C
  C251     1.0000 0.40937  0.51753  0.33263  Biso   1.000  C
  C252     1.0000 0.40698  0.52693  0.28128  Biso   1.000  C
  C253     1.0000 0.47055  0.53536  0.27467  Biso   1.000  C
  C254     1.0000 0.46993  0.58174  0.27994  Biso   1.000  C
  H222     1.0000 0.44510  0.67189  0.43590  Biso   1.000  H
  C255     1.0000 0.40819  0.69591  0.42741  Biso   1.000  C
  C256     1.0000 0.41060  0.65457  0.46054  Biso   1.000  C
  C257     1.0000 0.39006  0.49579  0.33001  Biso   1.000  C
  H223     1.0000 0.41730  0.52209  0.35070  Biso   1.000  H
  C258     1.0000 0.38705  0.50195  0.27970  Biso   1.000  C
  H224     1.0000 0.41199  0.53771  0.26490  Biso   1.000  H
  H225     1.0000 0.46310  0.51699  0.27900  Biso   1.000  H
  C259     1.0000 0.49150  0.53777  0.25325  Biso   1.000  C
  C260     1.0000 0.49007  0.58628  0.25982  Biso   1.000  C
  H226     1.0000 0.46140  0.59799  0.28860  Biso   1.000  H
  N35      1.0000 0.42052  0.71066  0.40145  Biso   1.000  N
  H227     1.0000 0.38720  0.69261  0.42530  Biso   1.000  H
  C261     1.0000 0.41446  0.71563  0.45120  Biso   1.000  C
  C262     1.0000 0.40894  0.67294  0.48405  Biso   1.000  C
  H228     1.0000 0.39110  0.64800  0.45589  Biso   1.000  H
  H229     1.0000 0.42180  0.63759  0.46620  Biso   1.000  H
  C263     1.0000 0.38046  0.48821  0.30255  Biso   1.000  C
  H230     1.0000 0.38330  0.48599  0.34641  Biso   1.000  H
  H231     1.0000 0.37931  0.49630  0.26191  Biso   1.000  H
  H232     1.0000 0.49809  0.52090  0.24410  Biso   1.000  H
  C264     1.0000 0.50246  0.56292  0.24529  Biso   1.000  C
  H233     1.0000 0.49589  0.60521  0.25540  Biso   1.000  H
  C265     1.0000 0.40352  0.71697  0.38302  Biso   1.000  C
  H234     1.0000 0.40149  0.73220  0.45001  Biso   1.000  H
  H235     1.0000 0.43420  0.72279  0.44919  Biso   1.000  H
  C266     1.0000 0.41120  0.70170  0.48073  Biso   1.000  C
  H236     1.0000 0.40621  0.66519  0.50259  Biso   1.000  H
  C267     1.0000 0.36073  0.46167  0.30010  Biso   1.000  C
  C268     1.0000 0.52747  0.56672  0.22468  Biso   1.000  C
  C269     1.0000 0.41024  0.73178  0.35605  Biso   1.000  C
  H237     1.0000 0.38419  0.71189  0.38620  Biso   1.000  H
  H238     1.0000 0.41071  0.71360  0.49719  Biso   1.000  H
  N36      1.0000 0.35351  0.45186  0.27622  Biso   1.000  N
  H239     1.0000 0.35401  0.45269  0.31699  Biso   1.000  H
  N37      1.0000 0.53649  0.59070  0.21897  Biso   1.000  N
  H240     1.0000 0.53611  0.55040  0.21619  Biso   1.000  H
  C270     1.0000 0.38972  0.73929  0.34020  Biso   1.000  C
  C271     1.0000 0.43710  0.73696  0.34746  Biso   1.000  C
  C272     1.0000 0.33632  0.42720  0.27650  Biso   1.000  C
  C273     1.0000 0.55735  0.58997  0.19712  Biso   1.000  C
  C274     1.0000 0.39315  0.75396  0.31371  Biso   1.000  C
  H241     1.0000 0.37090  0.73489  0.34630  Biso   1.000  H
  H242     1.0000 0.45210  0.72979  0.35910  Biso   1.000  H
  C275     1.0000 0.44463  0.75119  0.32395  Biso   1.000  C
  C276     1.0000 0.35497  0.40260  0.26564  Biso   1.000  C
  C277     1.0000 0.31070  0.43025  0.25920  Biso   1.000  C
  H243     1.0000 0.33060  0.42310  0.29660  Biso   1.000  H
  H244     1.0000 0.55829  0.57030  0.18891  Biso   1.000  H
  C278     1.0000 0.55057  0.61041  0.17457  Biso   1.000  C
  C279     1.0000 0.58810  0.59849  0.20954  Biso   1.000  C
  C280     1.0000 0.42295  0.75959  0.30733  Biso   1.000  C
  H245     1.0000 0.37779  0.75940  0.30170  Biso   1.000  H
  H246     1.0000 0.46400  0.75509  0.31940  Biso   1.000  H
  C281     1.0000 0.33681  0.37687  0.25724  Biso   1.000  C
  H247     1.0000 0.36610  0.40911  0.24890  Biso   1.000  H
  H248     1.0000 0.36860  0.39691  0.28070  Biso   1.000  H
  C282     1.0000 0.29058  0.40681  0.25771  Biso   1.000  C
  N38      1.0000 0.29378  0.45636  0.26835  Biso   1.000  N
  H249     1.0000 0.31721  0.43390  0.23921  Biso   1.000  H
  N39      1.0000 0.52265  0.60151  0.16113  Biso   1.000  N
  H250     1.0000 0.54891  0.63010  0.18270  Biso   1.000  H
  C283     1.0000 0.57363  0.61007  0.14876  Biso   1.000  C
  C284     1.0000 0.60687  0.60587  0.18784  Biso   1.000  C
  H251     1.0000 0.58601  0.61481  0.22281  Biso   1.000  H
  H252     1.0000 0.59601  0.58221  0.22039  Biso   1.000  H
  N40      1.0000 0.42658  0.77553  0.27947  Biso   1.000  N
  C285     1.0000 0.30660  0.37743  0.25440  Biso   1.000  C
  H253     1.0000 0.34630  0.35930  0.25370  Biso   1.000  H
  H254     1.0000 0.27770  0.40971  0.24119  Biso   1.000  H
  H255     1.0000 0.27881  0.40651  0.27520  Biso   1.000  H
  C286     1.0000 0.28723  0.47403  0.25069  Biso   1.000  C
  C287     1.0000 0.50398  0.61982  0.15676  Biso   1.000  C
  H256     1.0000 0.57169  0.59241  0.13741  Biso   1.000  H
  H257     1.0000 0.57071  0.62660  0.13600  Biso   1.000  H
  C288     1.0000 0.60294  0.61158  0.16273  Biso   1.000  C
  H258     1.0000 0.62630  0.60659  0.19360  Biso   1.000  H
  C289     1.0000 0.40919  0.79959  0.27181  Biso   1.000  C
  C290     1.0000 0.45099  0.76973  0.26246  Biso   1.000  C
  H259     1.0000 0.29630  0.36041  0.25060  Biso   1.000  H
  C291     1.0000 0.27076  0.50097  0.25856  Biso   1.000  C
  H260     1.0000 0.29250  0.47100  0.23140  Biso   1.000  H
  C292     1.0000 0.47674  0.61559  0.14325  Biso   1.000  C
  H261     1.0000 0.50810  0.63859  0.16301  Biso   1.000  H
  H262     1.0000 0.61879  0.61719  0.15151  Biso   1.000  H
  C293     1.0000 0.40271  0.80371  0.24288  Biso   1.000  C
  C294     1.0000 0.39808  0.81807  0.28860  Biso   1.000  C
  C295     1.0000 0.45792  0.74336  0.25685  Biso   1.000  C
  C296     1.0000 0.46756  0.79183  0.25163  Biso   1.000  C
  C297     1.0000 0.26025  0.51733  0.23674  Biso   1.000  C
  C298     1.0000 0.26327  0.50923  0.28457  Biso   1.000  C
  C299     1.0000 0.46833  0.58756  0.13854  Biso   1.000  C
  C300     1.0000 0.45901  0.63701  0.13532  Biso   1.000  C
  H263     1.0000 0.41001  0.79130  0.22869  Biso   1.000  H
  C301     1.0000 0.38483  0.82709  0.23546  Biso   1.000  C
  C302     1.0000 0.38257  0.84166  0.28239  Biso   1.000  C
  H264     1.0000 0.40119  0.81481  0.30831  Biso   1.000  H
  H265     1.0000 0.44651  0.72830  0.26411  Biso   1.000  H
  C303     1.0000 0.48267  0.73675  0.23977  Biso   1.000  C
  C304     1.0000 0.49077  0.78455  0.23674  Biso   1.000  C
  H266     1.0000 0.46259  0.81120  0.25470  Biso   1.000  H
  C305     1.0000 0.24316  0.54208  0.24335  Biso   1.000  C
  H267     1.0000 0.26419  0.51241  0.21749  Biso   1.000  H
  H268     1.0000 0.26921  0.49719  0.29980  Biso   1.000  H
  C306     1.0000 0.24836  0.53244  0.29184  Biso   1.000  C
  C307     1.0000 0.44318  0.58195  0.12361  Biso   1.000  C
  H269     1.0000 0.47959  0.57231  0.14549  Biso   1.000  H
  H270     1.0000 0.46389  0.65611  0.14010  Biso   1.000  H
  C308     1.0000 0.43460  0.63223  0.12081  Biso   1.000  C
  H271     1.0000 0.37871  0.82839  0.21619  Biso   1.000  H
  C309     1.0000 0.37611  0.84708  0.25327  Biso   1.000  C
  H272     1.0000 0.37619  0.85421  0.29700  Biso   1.000  H
  H273     1.0000 0.48759  0.71750  0.23580  Biso   1.000  H
  C310     1.0000 0.49903  0.75857  0.22925  Biso   1.000  C
  H274     1.0000 0.50281  0.79981  0.23081  Biso   1.000  H
  C311     1.0000 0.23755  0.54901  0.26972  Biso   1.000  C
  H275     1.0000 0.23590  0.55349  0.22831  Biso   1.000  H
  H276     1.0000 0.24529  0.53741  0.31119  Biso   1.000  H
  C312     1.0000 0.42490  0.60450  0.11639  Biso   1.000  C
  H277     1.0000 0.43851  0.56290  0.11840  Biso   1.000  H
  H278     1.0000 0.42400  0.64789  0.11360  Biso   1.000  H
  C313     1.0000 0.36090  0.86989  0.24354  Biso   1.000  C
  C314     1.0000 0.52597  0.75070  0.21276  Biso   1.000  C
  N41      1.0000 0.22052  0.57342  0.27552  Biso   1.000  N
  N42      1.0000 0.40128  0.59872  0.09873  Biso   1.000  N
  N43      1.0000 0.35307  0.89156  0.25924  Biso   1.000  N
  H279     1.0000 0.35561  0.86999  0.22400  Biso   1.000  H
  N44      1.0000 0.54364  0.76834  0.20621  Biso   1.000  N
  H280     1.0000 0.52900  0.73139  0.20751  Biso   1.000  H
  C315     1.0000 0.22820  0.59081  0.29958  Biso   1.000  C
  C316     1.0000 0.19268  0.57705  0.25961  Biso   1.000  C
  C317     1.0000 0.38362  0.57510  0.10449  Biso   1.000  C
  C318     1.0000 0.39550  0.61638  0.07511  Biso   1.000  C
  C319     1.0000 0.33933  0.91584  0.24610  Biso   1.000  C
  C320     1.0000 0.56975  0.75921  0.18929  Biso   1.000  C
  C321     1.0000 0.25713  0.59729  0.30372  Biso   1.000  C
  C322     1.0000 0.21141  0.60192  0.31808  Biso   1.000  C
  C323     1.0000 0.18628  0.60685  0.25395  Biso   1.000  C
  C324     1.0000 0.17604  0.55537  0.25120  Biso   1.000  C
  C325     1.0000 0.37638  0.55682  0.08194  Biso   1.000  C
  C326     1.0000 0.37918  0.56540  0.13222  Biso   1.000  C
  C327     1.0000 0.41805  0.62362  0.05683  Biso   1.000  C
  C328     1.0000 0.36777  0.62082  0.06539  Biso   1.000  C
  C329     1.0000 0.31121  0.92122  0.26276  Biso   1.000  C
  H281     1.0000 0.33551  0.91230  0.22541  Biso   1.000  H
  C330     1.0000 0.35863  0.94174  0.25022  Biso   1.000  C
  H282     1.0000 0.56610  0.73920  0.18281  Biso   1.000  H
  C331     1.0000 0.57280  0.77651  0.16367  Biso   1.000  C
  C332     1.0000 0.59319  0.75770  0.20943  Biso   1.000  C
  H283     1.0000 0.27130  0.58999  0.29131  Biso   1.000  H
  C333     1.0000 0.26455  0.61517  0.32708  Biso   1.000  C
  C334     1.0000 0.21760  0.61743  0.34165  Biso   1.000  C
  H284     1.0000 0.19170  0.59881  0.31479  Biso   1.000  H
  H285     1.0000 0.19829  0.62221  0.25939  Biso   1.000  H
  C335     1.0000 0.15981  0.61028  0.23930  Biso   1.000  C
  C336     1.0000 0.15255  0.56290  0.23695  Biso   1.000  C
  H286     1.0000 0.18061  0.53600  0.25510  Biso   1.000  H
  H287     1.0000 0.38159  0.56149  0.06289  Biso   1.000  H
  C337     1.0000 0.36145  0.53167  0.08757  Biso   1.000  C
  C338     1.0000 0.36469  0.54099  0.13702  Biso   1.000  C
  H288     1.0000 0.38639  0.57600  0.14790  Biso   1.000  H
  H289     1.0000 0.43710  0.61841  0.06150  Biso   1.000  H
  C339     1.0000 0.41244  0.63855  0.03168  Biso   1.000  C
  C340     1.0000 0.36299  0.63531  0.04098  Biso   1.000  C
  H290     1.0000 0.35211  0.61361  0.07601  Biso   1.000  H
  N45      1.0000 0.29314  0.89574  0.25969  Biso   1.000  N
  H291     1.0000 0.31441  0.92689  0.28309  Biso   1.000  H
  C341     1.0000 0.29551  0.94571  0.24410  Biso   1.000  C
  H292     1.0000 0.36320  0.94400  0.27070  Biso   1.000  H
  H293     1.0000 0.37670  0.93879  0.23981  Biso   1.000  H
  C342     1.0000 0.34543  0.96617  0.24032  Biso   1.000  C
  N46      1.0000 0.54814  0.77621  0.14647  Biso   1.000  N
  H294     1.0000 0.57690  0.79661  0.16941  Biso   1.000  H
  C343     1.0000 0.59740  0.76563  0.14505  Biso   1.000  C
  C344     1.0000 0.62257  0.75439  0.19341  Biso   1.000  C
  H295     1.0000 0.59029  0.74121  0.22229  Biso   1.000  H
  H296     1.0000 0.59349  0.77519  0.22121  Biso   1.000  H
  H297     1.0000 0.28380  0.62129  0.32841  Biso   1.000  H
  C345     1.0000 0.24674  0.62389  0.34707  Biso   1.000  C
  H298     1.0000 0.20301  0.62381  0.35420  Biso   1.000  H
  H299     1.0000 0.15371  0.62910  0.23490  Biso   1.000  H
  C346     1.0000 0.14396  0.58976  0.23177  Biso   1.000  C
  H300     1.0000 0.14091  0.54790  0.22980  Biso   1.000  H
  H301     1.0000 0.35450  0.52041  0.07230  Biso   1.000  H
  C347     1.0000 0.35676  0.52326  0.11558  Biso   1.000  C
  H302     1.0000 0.35989  0.53611  0.15610  Biso   1.000  H
  H303     1.0000 0.42769  0.64550  0.02039  Biso   1.000  H
  C348     1.0000 0.38441  0.64324  0.02327  Biso   1.000  C
  H304     1.0000 0.34389  0.64011  0.03610  Biso   1.000  H
  C349     1.0000 0.28506  0.88478  0.28079  Biso   1.000  C
  C350     1.0000 0.31699  0.96937  0.23985  Biso   1.000  C
  H305     1.0000 0.28930  0.93790  0.22549  Biso   1.000  H
  H306     1.0000 0.27851  0.95300  0.25429  Biso   1.000  H
  H307     1.0000 0.35699  0.98140  0.23349  Biso   1.000  H
  C351     1.0000 0.53833  0.80011  0.13929  Biso   1.000  C
  H308     1.0000 0.59089  0.74891  0.13391  Biso   1.000  H
  H309     1.0000 0.60309  0.78069  0.13139  Biso   1.000  H
  C352     1.0000 0.62313  0.75725  0.16318  Biso   1.000  C
  H310     1.0000 0.63959  0.75059  0.20369  Biso   1.000  H
  C353     1.0000 0.25647  0.63910  0.36990  Biso   1.000  C
  C354     1.0000 0.11697  0.59648  0.21696  Biso   1.000  C
  C355     1.0000 0.34325  0.49602  0.11981  Biso   1.000  C
  C356     1.0000 0.38018  0.65675  0.99603  Biso   1.000  C
  C357     1.0000 0.26635  0.85837  0.28265  Biso   1.000  C
  H311     1.0000 0.29079  0.89321  0.29830  Biso   1.000  H
  H312     1.0000 0.30980  0.98799  0.23661  Biso   1.000  H
  C358     1.0000 0.51179  0.80254  0.11955  Biso   1.000  C
  H313     1.0000 0.54731  0.81700  0.14601  Biso   1.000  H
  H314     1.0000 0.64070  0.75371  0.15371  Biso   1.000  H
  N47      1.0000 0.24077  0.64693  0.39157  Biso   1.000  N
  H315     1.0000 0.27601  0.64439  0.37001  Biso   1.000  H
  N48      1.0000 0.09856  0.57948  0.21067  Biso   1.000  N
  H316     1.0000 0.11379  0.61581  0.21190  Biso   1.000  H
  N49      1.0000 0.33888  0.47735  0.10150  Biso   1.000  N
  H317     1.0000 0.33700  0.49190  0.13860  Biso   1.000  H
  N50      1.0000 0.39849  0.66112  0.97737  Biso   1.000  N
  H318     1.0000 0.36141  0.66300  0.99189  Biso   1.000  H
  C359     1.0000 0.25662  0.84781  0.30750  Biso   1.000  C
  C360     1.0000 0.25792  0.84548  0.25801  Biso   1.000  C
  C361     1.0000 0.50421  0.83002  0.10995  Biso   1.000  C
  C362     1.0000 0.49805  0.77969  0.11296  Biso   1.000  C
  C363     1.0000 0.25391  0.66067  0.41583  Biso   1.000  C
  C364     1.0000 0.07260  0.59181  0.19590  Biso   1.000  C
  C365     1.0000 0.32544  0.44943  0.11042  Biso   1.000  C
  C366     1.0000 0.38959  0.67456  0.94942  Biso   1.000  C
  C367     1.0000 0.24041  0.82289  0.31046  Biso   1.000  C
  H319     1.0000 0.26110  0.85809  0.32439  Biso   1.000  H
  C368     1.0000 0.24137  0.82170  0.26042  Biso   1.000  C
  H320     1.0000 0.26340  0.85280  0.23989  Biso   1.000  H
  C369     1.0000 0.48247  0.83264  0.09062  Biso   1.000  C
  H321     1.0000 0.51401  0.84640  0.11669  Biso   1.000  H
  H322     1.0000 0.50370  0.76190  0.12070  Biso   1.000  H
  C370     1.0000 0.47307  0.78129  0.09303  Biso   1.000  C
  C371     1.0000 0.23723  0.68879  0.42121  Biso   1.000  C
  H323     1.0000 0.27460  0.66449  0.41231  Biso   1.000  H
  C372     1.0000 0.24979  0.64137  0.44175  Biso   1.000  C
  C373     1.0000 0.06756  0.57553  0.16779  Biso   1.000  C
  H324     1.0000 0.07471  0.61280  0.19260  Biso   1.000  H
  C374     1.0000 0.04881  0.58554  0.21564  Biso   1.000  C
  C375     1.0000 0.30287  0.44265  0.08998  Biso   1.000  C
  H325     1.0000 0.31729  0.45109  0.13009  Biso   1.000  H
  C376     1.0000 0.35123  0.42637  0.11008  Biso   1.000  C
  C377     1.0000 0.41003  0.69713  0.94263  Biso   1.000  C
  H326     1.0000 0.36990  0.68271  0.95110  Biso   1.000  H
  C378     1.0000 0.38993  0.64877  0.92638  Biso   1.000  C
  C379     1.0000 0.23093  0.80971  0.28531  Biso   1.000  C
  H327     1.0000 0.23599  0.81530  0.32870  Biso   1.000  H
  H328     1.0000 0.23639  0.81231  0.24309  Biso   1.000  H
  C380     1.0000 0.46673  0.80781  0.08258  Biso   1.000  C
  H329     1.0000 0.47791  0.85071  0.08271  Biso   1.000  H
  H330     1.0000 0.46229  0.76491  0.08800  Biso   1.000  H
  N51      1.0000 0.24032  0.70686  0.39575  Biso   1.000  N
  H331     1.0000 0.21690  0.68561  0.42690  Biso   1.000  H
  C381     1.0000 0.25589  0.70449  0.44572  Biso   1.000  C
  H332     1.0000 0.22929  0.63680  0.44399  Biso   1.000  H
  H333     1.0000 0.26020  0.62330  0.43881  Biso   1.000  H
  C382     1.0000 0.25969  0.65457  0.46615  Biso   1.000  C
  N52      1.0000 0.09154  0.57843  0.14743  Biso   1.000  N
  H334     1.0000 0.06411  0.55490  0.17190  Biso   1.000  H
  C383     1.0000 0.03945  0.58940  0.15456  Biso   1.000  C
  H335     1.0000 0.05001  0.59851  0.23219  Biso   1.000  H
  H336     1.0000 0.05079  0.56580  0.22281  Biso   1.000  H
  C384     1.0000 0.01929  0.58880  0.20171  Biso   1.000  C
  N53      1.0000 0.28105  0.46351  0.09071  Biso   1.000  N
  H337     1.0000 0.31110  0.44171  0.07029  Biso   1.000  H
  C385     1.0000 0.29045  0.41190  0.09847  Biso   1.000  C
  H338     1.0000 0.36260  0.42831  0.09239  Biso   1.000  H
  H339     1.0000 0.36399  0.42929  0.12659  Biso   1.000  H
  C386     1.0000 0.33728  0.39706  0.11157  Biso   1.000  C
  N54      1.0000 0.40930  0.71895  0.96350  Biso   1.000  N
  H340     1.0000 0.42970  0.68890  0.94170  Biso   1.000  H
  C387     1.0000 0.40151  0.70955  0.91189  Biso   1.000  C
  H341     1.0000 0.40759  0.63740  0.92830  Biso   1.000  H
  H342     1.0000 0.37340  0.63599  0.92930  Biso   1.000  H
  C388     1.0000 0.38842  0.66272  0.89705  Biso   1.000  C
  N55      1.0000 0.21357  0.78643  0.28644  Biso   1.000  N
  N56      1.0000 0.44589  0.80958  0.05971  Biso   1.000  N
  C389     1.0000 0.21922  0.71494  0.38479  Biso   1.000  C
  C390     1.0000 0.26016  0.68301  0.46938  Biso   1.000  C
  H343     1.0000 0.27450  0.71070  0.43791  Biso   1.000  H
  H344     1.0000 0.24570  0.72149  0.45299  Biso   1.000  H
  H345     1.0000 0.26650  0.64301  0.48141  Biso   1.000  H
  C391     1.0000 0.09931  0.55680  0.13271  Biso   1.000  C
  C392     1.0000 0.01594  0.59106  0.17293  Biso   1.000  C
  H346     1.0000 0.04410  0.60890  0.14801  Biso   1.000  H
  H347     1.0000 0.03379  0.57820  0.13760  Biso   1.000  H
  H348     1.0000 0.00279  0.58929  0.21361  Biso   1.000  H
  C393     1.0000 0.27531  0.47253  0.06671  Biso   1.000  C
  C394     1.0000 0.31215  0.39313  0.10586  Biso   1.000  C
  H349     1.0000 0.27721  0.41399  0.11479  Biso   1.000  H
  H350     1.0000 0.27959  0.40401  0.08220  Biso   1.000  H
  H351     1.0000 0.34850  0.38121  0.11721  Biso   1.000  H
  C395     1.0000 0.43328  0.72469  0.97254  Biso   1.000  C
  C396     1.0000 0.39413  0.68785  0.89314  Biso   1.000  C
  H352     1.0000 0.38519  0.72279  0.91401  Biso   1.000  H
  H353     1.0000 0.41779  0.72041  0.90400  Biso   1.000  H
  H354     1.0000 0.38281  0.65150  0.88119  Biso   1.000  H
  C397     1.0000 0.21468  0.76907  0.30972  Biso   1.000  C
  C398     1.0000 0.19029  0.78532  0.26908  Biso   1.000  C
  C399     1.0000 0.44324  0.78825  0.03861  Biso   1.000  C
  C400     1.0000 0.42609  0.83460  0.06212  Biso   1.000  C
  C401     1.0000 0.21734  0.73365  0.35836  Biso   1.000  C
  H355     1.0000 0.20171  0.70921  0.39319  Biso   1.000  H
  H356     1.0000 0.26340  0.69020  0.48800  Biso   1.000  H
  C402     1.0000 0.12160  0.55913  0.11085  Biso   1.000  C
  H357     1.0000 0.09050  0.53890  0.13600  Biso   1.000  H
  H358     1.0000 0.99740  0.59379  0.16521  Biso   1.000  H
  C403     1.0000 0.25472  0.49754  0.06293  Biso   1.000  C
  H359     1.0000 0.28380  0.46389  0.05039  Biso   1.000  H
  H360     1.0000 0.30641  0.37370  0.10660  Biso   1.000  H
  C404     1.0000 0.43708  0.74528  0.99753  Biso   1.000  C
  H361     1.0000 0.44960  0.71620  0.96390  Biso   1.000  H
  H362     1.0000 0.39341  0.69361  0.87371  Biso   1.000  H
  C405     1.0000 0.18953  0.75959  0.32290  Biso   1.000  C
  C406     1.0000 0.23959  0.75863  0.32171  Biso   1.000  C
  C407     1.0000 0.17711  0.81047  0.25961  Biso   1.000  C
  C408     1.0000 0.17830  0.76041  0.25865  Biso   1.000  C
  C409     1.0000 0.46464  0.77468  0.02944  Biso   1.000  C
  C410     1.0000 0.41826  0.77993  0.03008  Biso   1.000  C
  C411     1.0000 0.41984  0.84698  0.03548  Biso   1.000  C
  C412     1.0000 0.41504  0.84420  0.08576  Biso   1.000  C
  C413     1.0000 0.19251  0.74338  0.34780  Biso   1.000  C
  C414     1.0000 0.24198  0.74208  0.34547  Biso   1.000  C
  C415     1.0000 0.13129  0.53498  0.09852  Biso   1.000  C
  C416     1.0000 0.13376  0.58530  0.10377  Biso   1.000  C
  C417     1.0000 0.24674  0.50850  0.03776  Biso   1.000  C
  C418     1.0000 0.24019  0.50993  0.08629  Biso   1.000  C
  C419     1.0000 0.46223  0.75326  0.00851  Biso   1.000  C
  C420     1.0000 0.41372  0.75981  0.00992  Biso   1.000  C
  H363     1.0000 0.17131  0.76399  0.31531  Biso   1.000  H
  H364     1.0000 0.25690  0.76361  0.31230  Biso   1.000  H
  H365     1.0000 0.18470  0.82869  0.26400  Biso   1.000  H
  C421     1.0000 0.15219  0.80749  0.24339  Biso   1.000  C
  C422     1.0000 0.15452  0.75802  0.24209  Biso   1.000  C
  H366     1.0000 0.18769  0.74310  0.26359  Biso   1.000  H
  H367     1.0000 0.48301  0.77901  0.03691  Biso   1.000  H
  H368     1.0000 0.40201  0.78861  0.03859  Biso   1.000  H
  H369     1.0000 0.42839  0.84011  0.01841  Biso   1.000  H
  C423     1.0000 0.40149  0.86871  0.03497  Biso   1.000  C
  C424     1.0000 0.39625  0.86624  0.08531  Biso   1.000  C
  H370     1.0000 0.42020  0.83569  0.10351  Biso   1.000  H
  H371     1.0000 0.17559  0.73890  0.35810  Biso   1.000  H
  H372     1.0000 0.26010  0.73660  0.35281  Biso   1.000  H
  C425     1.0000 0.15302  0.53547  0.08017  Biso   1.000  C
  H373     1.0000 0.12241  0.51729  0.10300  Biso   1.000  H
  H374     1.0000 0.12681  0.60250  0.11189  Biso   1.000  H
  C426     1.0000 0.15580  0.58577  0.08497  Biso   1.000  C
  C427     1.0000 0.22532  0.52945  0.03535  Biso   1.000  C
  H375     1.0000 0.25589  0.50191  0.02091  Biso   1.000  H
  C428     1.0000 0.22007  0.53007  0.08175  Biso   1.000  C
  H376     1.0000 0.24461  0.50411  0.10519  Biso   1.000  H
  H377     1.0000 0.47910  0.74411  0.00190  Biso   1.000  H
  H378     1.0000 0.39479  0.75539  0.00410  Biso   1.000  H
  H379     1.0000 0.14191  0.82441  0.23889  Biso   1.000  H
  C429     1.0000 0.14163  0.78266  0.23364  Biso   1.000  C
  H380     1.0000 0.14720  0.73990  0.23661  Biso   1.000  H
  H381     1.0000 0.39699  0.87759  0.01730  Biso   1.000  H
  C430     1.0000 0.38914  0.87840  0.05911  Biso   1.000  C
  H382     1.0000 0.38810  0.87319  0.10251  Biso   1.000  H
  C431     1.0000 0.16540  0.56213  0.07390  Biso   1.000  C
  H383     1.0000 0.15989  0.51840  0.07159  Biso   1.000  H
  H384     1.0000 0.16431  0.60350  0.07981  Biso   1.000  H
  C432     1.0000 0.21175  0.53860  0.05677  Biso   1.000  C
  H385     1.0000 0.22099  0.53690  0.01700  Biso   1.000  H
  H386     1.0000 0.21139  0.53860  0.09801  Biso   1.000  H
  C433     1.0000 0.11522  0.78078  0.21495  Biso   1.000  C
  C434     1.0000 0.36727  0.90069  0.05679  Biso   1.000  C
  N57      1.0000 0.19042  0.55970  0.05412  Biso   1.000  N
  N58      1.0000 0.10426  0.75968  0.20685  Biso   1.000  N
  H387     1.0000 0.10679  0.79829  0.20919  Biso   1.000  H
  N59      1.0000 0.35255  0.90846  0.07842  Biso   1.000  N
  H388     1.0000 0.36399  0.90950  0.03889  Biso   1.000  H
  C435     1.0000 0.19219  0.58259  0.03328  Biso   1.000  C
  C436     1.0000 0.07878  0.76277  0.18878  Biso   1.000  C
  C437     1.0000 0.33220  0.93244  0.07552  Biso   1.000  C
  C438     1.0000 0.16736  0.59063  0.01754  Biso   1.000  C
  C439     1.0000 0.21873  0.59302  0.02692  Biso   1.000  C
  H389     1.0000 0.07311  0.78310  0.18560  Biso   1.000  H
  C440     1.0000 0.08416  0.74609  0.16066  Biso   1.000  C
  C441     1.0000 0.05429  0.74411  0.20450  Biso   1.000  C
  C442     1.0000 0.30409  0.92740  0.09180  Biso   1.000  C
  H390     1.0000 0.32811  0.93589  0.05489  Biso   1.000  H
  C443     1.0000 0.34543  0.96055  0.08941  Biso   1.000  C
  H391     1.0000 0.14929  0.58270  0.02210  Biso   1.000  H
  C444     1.0000 0.16998  0.60994  0.99578  Biso   1.000  C
  C445     1.0000 0.22031  0.61295  0.00196  Biso   1.000  C
  H392     1.0000 0.23509  0.58801  0.03770  Biso   1.000  H
  N60      1.0000 0.10844  0.75923  0.14694  Biso   1.000  N
  H393     1.0000 0.08770  0.72540  0.16450  Biso   1.000  H
  C446     1.0000 0.05826  0.75021  0.14138  Biso   1.000  C
  C447     1.0000 0.03063  0.73984  0.18300  Biso   1.000  C
  H394     1.0000 0.06210  0.72550  0.21071  Biso   1.000  H
  H395     1.0000 0.04700  0.75430  0.22150  Biso   1.000  H
  N61      1.0000 0.28934  0.90144  0.07949  Biso   1.000  N
  H396     1.0000 0.30739  0.92529  0.11281  Biso   1.000  H
  C448     1.0000 0.28437  0.95121  0.08553  Biso   1.000  C
  C449     1.0000 0.32706  0.98406  0.09105  Biso   1.000  C
  H397     1.0000 0.35200  0.95590  0.10891  Biso   1.000  H
  H398     1.0000 0.36241  0.96621  0.07821  Biso   1.000  H
  H399     1.0000 0.15360  0.61670  0.98601  Biso   1.000  H
  C450     1.0000 0.19746  0.61954  0.98822  Biso   1.000  C
  H400     1.0000 0.23810  0.62069  0.99631  Biso   1.000  H
  C451     1.0000 0.13011  0.74353  0.13909  Biso   1.000  C
  H401     1.0000 0.05600  0.77071  0.13681  Biso   1.000  H
  H402     1.0000 0.06121  0.73980  0.12331  Biso   1.000  H
  C452     1.0000 0.03383  0.74033  0.15456  Biso   1.000  C
  H403     1.0000 0.01201  0.73660  0.19021  Biso   1.000  H
  C453     1.0000 0.28305  0.88303  0.09647  Biso   1.000  C
  H404     1.0000 0.26780  0.94999  0.09850  Biso   1.000  H
  H405     1.0000 0.27721  0.94921  0.06579  Biso   1.000  H
  C454     1.0000 0.29830  0.98071  0.08881  Biso   1.000  C
  H406     1.0000 0.33481  0.00260  0.09380  Biso   1.000  H
  C455     1.0000 0.19989  0.63927  0.96169  Biso   1.000  C
  C456     1.0000 0.15292  0.75326  0.12390  Biso   1.000  C
  H407     1.0000 0.13001  0.72401  0.14441  Biso   1.000  H
  H408     1.0000 0.01860  0.73350  0.14300  Biso   1.000  H
  C457     1.0000 0.26822  0.85604  0.08977  Biso   1.000  C
  H409     1.0000 0.28811  0.88621  0.11580  Biso   1.000  H
  H410     1.0000 0.28640  0.99721  0.08930  Biso   1.000  H
  N62      1.0000 0.22379  0.64649  0.95185  Biso   1.000  N
  H411     1.0000 0.18300  0.64599  0.95270  Biso   1.000  H
  C458     1.0000 0.17291  0.73545  0.11516  Biso   1.000  C
  C459     1.0000 0.15834  0.78240  0.11744  Biso   1.000  C
  C460     1.0000 0.26071  0.84019  0.11027  Biso   1.000  C
  C461     1.0000 0.26304  0.84745  0.06289  Biso   1.000  C
  C462     1.0000 0.22349  0.66368  0.92719  Biso   1.000  C
  C463     1.0000 0.19629  0.74287  0.09728  Biso   1.000  C
  H412     1.0000 0.17161  0.71620  0.12130  Biso   1.000  H
  H413     1.0000 0.14579  0.79699  0.12380  Biso   1.000  H
  C464     1.0000 0.18193  0.78859  0.10193  Biso   1.000  C
  C465     1.0000 0.24604  0.81372  0.10686  Biso   1.000  C
  H414     1.0000 0.26511  0.84629  0.12911  Biso   1.000  H
  C466     1.0000 0.24881  0.82396  0.05536  Biso   1.000  C
  H415     1.0000 0.27021  0.85909  0.04789  Biso   1.000  H
  C467     1.0000 0.24079  0.68930  0.93026  Biso   1.000  C
  H416     1.0000 0.20339  0.66940  0.92309  Biso   1.000  H
  C468     1.0000 0.23437  0.64503  0.90259  Biso   1.000  C
  C469     1.0000 0.20041  0.77180  0.09079  Biso   1.000  C
  H417     1.0000 0.20870  0.72870  0.09001  Biso   1.000  H
  H418     1.0000 0.18519  0.80830  0.09879  Biso   1.000  H
  C470     1.0000 0.24041  0.80732  0.07706  Biso   1.000  C
  H419     1.0000 0.24060  0.80171  0.12220  Biso   1.000  H
  H420     1.0000 0.24491  0.81939  0.03601  Biso   1.000  H
  N63      1.0000 0.23166  0.70622  0.95637  Biso   1.000  N
  H421     1.0000 0.26080  0.68279  0.93391  Biso   1.000  H
  C471     1.0000 0.24230  0.70942  0.90682  Biso   1.000  C
  H422     1.0000 0.25109  0.63390  0.90910  Biso   1.000  H
  H423     1.0000 0.21931  0.63140  0.89690  Biso   1.000  H
  C472     1.0000 0.24275  0.66319  0.87689  Biso   1.000  C
  N64      1.0000 0.22447  0.77948  0.07343  Biso   1.000  N
  C473     1.0000 0.24930  0.71277  0.97402  Biso   1.000  C
  C474     1.0000 0.24561  0.69340  0.87744  Biso   1.000  C
  H424     1.0000 0.25879  0.72230  0.90970  Biso   1.000  H
  H425     1.0000 0.22479  0.72119  0.90650  Biso   1.000  H
  H426     1.0000 0.24629  0.65370  0.85931  Biso   1.000  H
  C475     1.0000 0.23027  0.76245  0.04900  Biso   1.000  C
  C476     1.0000 0.24143  0.72924  0.00098  Biso   1.000  C
  H427     1.0000 0.26861  0.70750  0.97101  Biso   1.000  H
  H428     1.0000 0.24941  0.70370  0.86039  Biso   1.000  H
  C477     1.0000 0.25664  0.75684  0.04209  Biso   1.000  C
  C478     1.0000 0.20817  0.75164  0.03243  Biso   1.000  C
  C479     1.0000 0.26325  0.73975  0.01734  Biso   1.000  C
  C480     1.0000 0.21545  0.73673  0.00922  Biso   1.000  C
  H429     1.0000 0.27170  0.76410  0.05350  Biso   1.000  H
  H430     1.0000 0.18880  0.75471  0.03740  Biso   1.000  H
  H431     1.0000 0.28250  0.73581  0.01239  Biso   1.000  H
  H432     1.0000 0.20019  0.73079  0.99721  Biso   1.000  H
  C481     1.0000 0.36870  0.46502  0.59851  Biso   1.000  C
  C482     1.0000 0.34699  0.46453  0.58016  Biso   1.000  C
  H433     1.0000 0.37760  0.48271  0.60301  Biso   1.000  H
  C483     1.0000 0.37841  0.44087  0.61086  Biso   1.000  C
  C484     1.0000 0.33459  0.43787  0.57391  Biso   1.000  C
  H434     1.0000 0.34010  0.48160  0.57161  Biso   1.000  H
  C485     1.0000 0.36623  0.41470  0.60375  Biso   1.000  C
  C486     1.0000 0.40068  0.44320  0.63273  Biso   1.000  C
  N65      1.0000 0.30959  0.44030  0.55411  Biso   1.000  N
  C487     1.0000 0.34421  0.41423  0.58496  Biso   1.000  C
  H435     1.0000 0.37321  0.39750  0.61190  Biso   1.000  H
  N66      1.0000 0.40845  0.42157  0.64745  Biso   1.000  N
  H436     1.0000 0.40949  0.46110  0.63599  Biso   1.000  H
  C488     1.0000 0.30780  0.41741  0.53327  Biso   1.000  C
  C489     1.0000 0.28826  0.46140  0.55676  Biso   1.000  C
  H437     1.0000 0.33570  0.39650  0.57980  Biso   1.000  H
  C490     1.0000 0.43243  0.42447  0.66780  Biso   1.000  C
  C491     1.0000 0.33263  0.40937  0.51753  Biso   1.000  C
  C492     1.0000 0.28128  0.40698  0.52693  Biso   1.000  C
  C493     1.0000 0.27467  0.47055  0.53536  Biso   1.000  C
  C494     1.0000 0.27994  0.46993  0.58174  Biso   1.000  C
  H438     1.0000 0.43590  0.44510  0.67189  Biso   1.000  H
  C495     1.0000 0.42741  0.40819  0.69591  Biso   1.000  C
  C496     1.0000 0.46054  0.41060  0.65457  Biso   1.000  C
  C497     1.0000 0.33001  0.39006  0.49579  Biso   1.000  C
  H439     1.0000 0.35070  0.41730  0.52209  Biso   1.000  H
  C498     1.0000 0.27970  0.38705  0.50195  Biso   1.000  C
  H440     1.0000 0.26490  0.41199  0.53771  Biso   1.000  H
  H441     1.0000 0.27900  0.46310  0.51699  Biso   1.000  H
  C499     1.0000 0.25325  0.49150  0.53777  Biso   1.000  C
  C500     1.0000 0.25982  0.49007  0.58628  Biso   1.000  C
  H442     1.0000 0.28860  0.46140  0.59799  Biso   1.000  H
  N67      1.0000 0.40145  0.42052  0.71066  Biso   1.000  N
  H443     1.0000 0.42530  0.38720  0.69261  Biso   1.000  H
  C501     1.0000 0.45120  0.41446  0.71563  Biso   1.000  C
  C502     1.0000 0.48405  0.40894  0.67294  Biso   1.000  C
  H444     1.0000 0.45589  0.39110  0.64800  Biso   1.000  H
  H445     1.0000 0.46620  0.42180  0.63759  Biso   1.000  H
  C503     1.0000 0.30255  0.38046  0.48821  Biso   1.000  C
  H446     1.0000 0.34641  0.38330  0.48599  Biso   1.000  H
  H447     1.0000 0.26191  0.37931  0.49630  Biso   1.000  H
  H448     1.0000 0.24410  0.49809  0.52090  Biso   1.000  H
  C504     1.0000 0.24529  0.50246  0.56292  Biso   1.000  C
  H449     1.0000 0.25540  0.49589  0.60521  Biso   1.000  H
  C505     1.0000 0.38302  0.40352  0.71697  Biso   1.000  C
  H450     1.0000 0.45001  0.40149  0.73220  Biso   1.000  H
  H451     1.0000 0.44919  0.43420  0.72279  Biso   1.000  H
  C506     1.0000 0.48073  0.41120  0.70170  Biso   1.000  C
  H452     1.0000 0.50259  0.40621  0.66519  Biso   1.000  H
  C507     1.0000 0.30010  0.36073  0.46167  Biso   1.000  C
  C508     1.0000 0.22468  0.52747  0.56672  Biso   1.000  C
  C509     1.0000 0.35605  0.41024  0.73178  Biso   1.000  C
  H453     1.0000 0.38620  0.38419  0.71189  Biso   1.000  H
  H454     1.0000 0.49719  0.41071  0.71360  Biso   1.000  H
  N68      1.0000 0.27622  0.35351  0.45186  Biso   1.000  N
  H455     1.0000 0.31699  0.35401  0.45269  Biso   1.000  H
  N69      1.0000 0.21897  0.53649  0.59070  Biso   1.000  N
  H456     1.0000 0.21619  0.53611  0.55040  Biso   1.000  H
  C510     1.0000 0.34020  0.38972  0.73929  Biso   1.000  C
  C511     1.0000 0.34746  0.43710  0.73696  Biso   1.000  C
  C512     1.0000 0.27650  0.33632  0.42720  Biso   1.000  C
  C513     1.0000 0.19712  0.55735  0.58997  Biso   1.000  C
  C514     1.0000 0.31371  0.39315  0.75396  Biso   1.000  C
  H457     1.0000 0.34630  0.37090  0.73489  Biso   1.000  H
  H458     1.0000 0.35910  0.45210  0.72979  Biso   1.000  H
  C515     1.0000 0.32395  0.44463  0.75119  Biso   1.000  C
  C516     1.0000 0.26564  0.35497  0.40260  Biso   1.000  C
  C517     1.0000 0.25920  0.31070  0.43025  Biso   1.000  C
  H459     1.0000 0.29660  0.33060  0.42310  Biso   1.000  H
  H460     1.0000 0.18891  0.55829  0.57030  Biso   1.000  H
  C518     1.0000 0.17457  0.55057  0.61041  Biso   1.000  C
  C519     1.0000 0.20954  0.58810  0.59849  Biso   1.000  C
  C520     1.0000 0.30733  0.42295  0.75959  Biso   1.000  C
  H461     1.0000 0.30170  0.37779  0.75940  Biso   1.000  H
  H462     1.0000 0.31940  0.46400  0.75509  Biso   1.000  H
  C521     1.0000 0.25724  0.33681  0.37687  Biso   1.000  C
  H463     1.0000 0.24890  0.36610  0.40911  Biso   1.000  H
  H464     1.0000 0.28070  0.36860  0.39691  Biso   1.000  H
  C522     1.0000 0.25771  0.29058  0.40681  Biso   1.000  C
  N70      1.0000 0.26835  0.29378  0.45636  Biso   1.000  N
  H465     1.0000 0.23921  0.31721  0.43390  Biso   1.000  H
  N71      1.0000 0.16113  0.52265  0.60151  Biso   1.000  N
  H466     1.0000 0.18270  0.54891  0.63010  Biso   1.000  H
  C523     1.0000 0.14876  0.57363  0.61007  Biso   1.000  C
  C524     1.0000 0.18784  0.60687  0.60587  Biso   1.000  C
  H467     1.0000 0.22281  0.58601  0.61481  Biso   1.000  H
  H468     1.0000 0.22039  0.59601  0.58221  Biso   1.000  H
  N72      1.0000 0.27947  0.42658  0.77553  Biso   1.000  N
  C525     1.0000 0.25440  0.30660  0.37743  Biso   1.000  C
  H469     1.0000 0.25370  0.34630  0.35930  Biso   1.000  H
  H470     1.0000 0.24119  0.27770  0.40971  Biso   1.000  H
  H471     1.0000 0.27520  0.27881  0.40651  Biso   1.000  H
  C526     1.0000 0.25069  0.28723  0.47403  Biso   1.000  C
  C527     1.0000 0.15676  0.50398  0.61982  Biso   1.000  C
  H472     1.0000 0.13741  0.57169  0.59241  Biso   1.000  H
  H473     1.0000 0.13600  0.57071  0.62660  Biso   1.000  H
  C528     1.0000 0.16273  0.60294  0.61158  Biso   1.000  C
  H474     1.0000 0.19360  0.62630  0.60659  Biso   1.000  H
  C529     1.0000 0.27181  0.40919  0.79959  Biso   1.000  C
  C530     1.0000 0.26246  0.45099  0.76973  Biso   1.000  C
  H475     1.0000 0.25060  0.29630  0.36041  Biso   1.000  H
  C531     1.0000 0.25856  0.27076  0.50097  Biso   1.000  C
  H476     1.0000 0.23140  0.29250  0.47100  Biso   1.000  H
  C532     1.0000 0.14325  0.47674  0.61559  Biso   1.000  C
  H477     1.0000 0.16301  0.50810  0.63859  Biso   1.000  H
  H478     1.0000 0.15151  0.61879  0.61719  Biso   1.000  H
  C533     1.0000 0.24288  0.40271  0.80371  Biso   1.000  C
  C534     1.0000 0.28860  0.39808  0.81807  Biso   1.000  C
  C535     1.0000 0.25685  0.45792  0.74336  Biso   1.000  C
  C536     1.0000 0.25163  0.46756  0.79183  Biso   1.000  C
  C537     1.0000 0.23674  0.26025  0.51733  Biso   1.000  C
  C538     1.0000 0.28457  0.26327  0.50923  Biso   1.000  C
  C539     1.0000 0.13854  0.46833  0.58756  Biso   1.000  C
  C540     1.0000 0.13532  0.45901  0.63701  Biso   1.000  C
  H479     1.0000 0.22869  0.41001  0.79130  Biso   1.000  H
  C541     1.0000 0.23546  0.38483  0.82709  Biso   1.000  C
  C542     1.0000 0.28239  0.38257  0.84166  Biso   1.000  C
  H480     1.0000 0.30831  0.40119  0.81481  Biso   1.000  H
  H481     1.0000 0.26411  0.44651  0.72830  Biso   1.000  H
  C543     1.0000 0.23977  0.48267  0.73675  Biso   1.000  C
  C544     1.0000 0.23674  0.49077  0.78455  Biso   1.000  C
  H482     1.0000 0.25470  0.46259  0.81120  Biso   1.000  H
  C545     1.0000 0.24335  0.24316  0.54208  Biso   1.000  C
  H483     1.0000 0.21749  0.26419  0.51241  Biso   1.000  H
  H484     1.0000 0.29980  0.26921  0.49719  Biso   1.000  H
  C546     1.0000 0.29184  0.24836  0.53244  Biso   1.000  C
  C547     1.0000 0.12361  0.44318  0.58195  Biso   1.000  C
  H485     1.0000 0.14549  0.47959  0.57231  Biso   1.000  H
  H486     1.0000 0.14010  0.46389  0.65611  Biso   1.000  H
  C548     1.0000 0.12081  0.43460  0.63223  Biso   1.000  C
  H487     1.0000 0.21619  0.37871  0.82839  Biso   1.000  H
  C549     1.0000 0.25327  0.37611  0.84708  Biso   1.000  C
  H488     1.0000 0.29700  0.37619  0.85421  Biso   1.000  H
  H489     1.0000 0.23580  0.48759  0.71750  Biso   1.000  H
  C550     1.0000 0.22925  0.49903  0.75857  Biso   1.000  C
  H490     1.0000 0.23081  0.50281  0.79981  Biso   1.000  H
  C551     1.0000 0.26972  0.23755  0.54901  Biso   1.000  C
  H491     1.0000 0.22831  0.23590  0.55349  Biso   1.000  H
  H492     1.0000 0.31119  0.24529  0.53741  Biso   1.000  H
  C552     1.0000 0.11639  0.42490  0.60450  Biso   1.000  C
  H493     1.0000 0.11840  0.43851  0.56290  Biso   1.000  H
  H494     1.0000 0.11360  0.42400  0.64789  Biso   1.000  H
  C553     1.0000 0.24354  0.36090  0.86989  Biso   1.000  C
  C554     1.0000 0.21276  0.52597  0.75070  Biso   1.000  C
  N73      1.0000 0.27552  0.22052  0.57342  Biso   1.000  N
  N74      1.0000 0.09873  0.40128  0.59872  Biso   1.000  N
  N75      1.0000 0.25924  0.35307  0.89156  Biso   1.000  N
  H495     1.0000 0.22400  0.35561  0.86999  Biso   1.000  H
  N76      1.0000 0.20621  0.54364  0.76834  Biso   1.000  N
  H496     1.0000 0.20751  0.52900  0.73139  Biso   1.000  H
  C555     1.0000 0.29958  0.22820  0.59081  Biso   1.000  C
  C556     1.0000 0.25961  0.19268  0.57705  Biso   1.000  C
  C557     1.0000 0.10449  0.38362  0.57510  Biso   1.000  C
  C558     1.0000 0.07511  0.39550  0.61638  Biso   1.000  C
  C559     1.0000 0.24610  0.33933  0.91584  Biso   1.000  C
  C560     1.0000 0.18929  0.56975  0.75921  Biso   1.000  C
  C561     1.0000 0.30372  0.25713  0.59729  Biso   1.000  C
  C562     1.0000 0.31808  0.21141  0.60192  Biso   1.000  C
  C563     1.0000 0.25395  0.18628  0.60685  Biso   1.000  C
  C564     1.0000 0.25120  0.17604  0.55537  Biso   1.000  C
  C565     1.0000 0.08194  0.37638  0.55682  Biso   1.000  C
  C566     1.0000 0.13222  0.37918  0.56540  Biso   1.000  C
  C567     1.0000 0.05683  0.41805  0.62362  Biso   1.000  C
  C568     1.0000 0.06539  0.36777  0.62082  Biso   1.000  C
  C569     1.0000 0.26276  0.31121  0.92122  Biso   1.000  C
  H497     1.0000 0.22541  0.33551  0.91230  Biso   1.000  H
  C570     1.0000 0.25022  0.35863  0.94174  Biso   1.000  C
  H498     1.0000 0.18281  0.56610  0.73920  Biso   1.000  H
  C571     1.0000 0.16367  0.57280  0.77651  Biso   1.000  C
  C572     1.0000 0.20943  0.59319  0.75770  Biso   1.000  C
  H499     1.0000 0.29131  0.27130  0.58999  Biso   1.000  H
  C573     1.0000 0.32708  0.26455  0.61517  Biso   1.000  C
  C574     1.0000 0.34165  0.21760  0.61743  Biso   1.000  C
  H500     1.0000 0.31479  0.19170  0.59881  Biso   1.000  H
  H501     1.0000 0.25939  0.19829  0.62221  Biso   1.000  H
  C575     1.0000 0.23930  0.15981  0.61028  Biso   1.000  C
  C576     1.0000 0.23695  0.15255  0.56290  Biso   1.000  C
  H502     1.0000 0.25510  0.18061  0.53600  Biso   1.000  H
  H503     1.0000 0.06289  0.38159  0.56149  Biso   1.000  H
  C577     1.0000 0.08757  0.36145  0.53167  Biso   1.000  C
  C578     1.0000 0.13702  0.36469  0.54099  Biso   1.000  C
  H504     1.0000 0.14790  0.38639  0.57600  Biso   1.000  H
  H505     1.0000 0.06150  0.43710  0.61841  Biso   1.000  H
  C579     1.0000 0.03168  0.41244  0.63855  Biso   1.000  C
  C580     1.0000 0.04098  0.36299  0.63531  Biso   1.000  C
  H506     1.0000 0.07601  0.35211  0.61361  Biso   1.000  H
  N77      1.0000 0.25969  0.29314  0.89574  Biso   1.000  N
  H507     1.0000 0.28309  0.31441  0.92689  Biso   1.000  H
  C581     1.0000 0.24410  0.29551  0.94571  Biso   1.000  C
  H508     1.0000 0.27070  0.36320  0.94400  Biso   1.000  H
  H509     1.0000 0.23981  0.37670  0.93879  Biso   1.000  H
  C582     1.0000 0.24032  0.34543  0.96617  Biso   1.000  C
  N78      1.0000 0.14647  0.54814  0.77621  Biso   1.000  N
  H510     1.0000 0.16941  0.57690  0.79661  Biso   1.000  H
  C583     1.0000 0.14505  0.59740  0.76563  Biso   1.000  C
  C584     1.0000 0.19341  0.62257  0.75439  Biso   1.000  C
  H511     1.0000 0.22229  0.59029  0.74121  Biso   1.000  H
  H512     1.0000 0.22121  0.59349  0.77519  Biso   1.000  H
  H513     1.0000 0.32841  0.28380  0.62129  Biso   1.000  H
  C585     1.0000 0.34707  0.24674  0.62389  Biso   1.000  C
  H514     1.0000 0.35420  0.20301  0.62381  Biso   1.000  H
  H515     1.0000 0.23490  0.15371  0.62910  Biso   1.000  H
  C586     1.0000 0.23177  0.14396  0.58976  Biso   1.000  C
  H516     1.0000 0.22980  0.14091  0.54790  Biso   1.000  H
  H517     1.0000 0.07230  0.35450  0.52041  Biso   1.000  H
  C587     1.0000 0.11558  0.35676  0.52326  Biso   1.000  C
  H518     1.0000 0.15610  0.35989  0.53611  Biso   1.000  H
  H519     1.0000 0.02039  0.42769  0.64550  Biso   1.000  H
  C588     1.0000 0.02327  0.38441  0.64324  Biso   1.000  C
  H520     1.0000 0.03610  0.34389  0.64011  Biso   1.000  H
  C589     1.0000 0.28079  0.28506  0.88478  Biso   1.000  C
  C590     1.0000 0.23985  0.31699  0.96937  Biso   1.000  C
  H521     1.0000 0.22549  0.28930  0.93790  Biso   1.000  H
  H522     1.0000 0.25429  0.27851  0.95300  Biso   1.000  H
  H523     1.0000 0.23349  0.35699  0.98140  Biso   1.000  H
  C591     1.0000 0.13929  0.53833  0.80011  Biso   1.000  C
  H524     1.0000 0.13391  0.59089  0.74891  Biso   1.000  H
  H525     1.0000 0.13139  0.60309  0.78069  Biso   1.000  H
  C592     1.0000 0.16318  0.62313  0.75725  Biso   1.000  C
  H526     1.0000 0.20369  0.63959  0.75059  Biso   1.000  H
  C593     1.0000 0.36990  0.25647  0.63910  Biso   1.000  C
  C594     1.0000 0.21696  0.11697  0.59648  Biso   1.000  C
  C595     1.0000 0.11981  0.34325  0.49602  Biso   1.000  C
  C596     1.0000 0.99603  0.38018  0.65675  Biso   1.000  C
  C597     1.0000 0.28265  0.26635  0.85837  Biso   1.000  C
  H527     1.0000 0.29830  0.29079  0.89321  Biso   1.000  H
  H528     1.0000 0.23661  0.30980  0.98799  Biso   1.000  H
  C598     1.0000 0.11955  0.51179  0.80254  Biso   1.000  C
  H529     1.0000 0.14601  0.54731  0.81700  Biso   1.000  H
  H530     1.0000 0.15371  0.64070  0.75371  Biso   1.000  H
  N79      1.0000 0.39157  0.24077  0.64693  Biso   1.000  N
  H531     1.0000 0.37001  0.27601  0.64439  Biso   1.000  H
  N80      1.0000 0.21067  0.09856  0.57948  Biso   1.000  N
  H532     1.0000 0.21190  0.11379  0.61581  Biso   1.000  H
  N81      1.0000 0.10150  0.33888  0.47735  Biso   1.000  N
  H533     1.0000 0.13860  0.33700  0.49190  Biso   1.000  H
  N82      1.0000 0.97737  0.39849  0.66112  Biso   1.000  N
  H534     1.0000 0.99189  0.36141  0.66300  Biso   1.000  H
  C599     1.0000 0.30750  0.25662  0.84781  Biso   1.000  C
  C600     1.0000 0.25801  0.25792  0.84548  Biso   1.000  C
  C601     1.0000 0.10995  0.50421  0.83002  Biso   1.000  C
  C602     1.0000 0.11296  0.49805  0.77969  Biso   1.000  C
  C603     1.0000 0.41583  0.25391  0.66067  Biso   1.000  C
  C604     1.0000 0.19590  0.07260  0.59181  Biso   1.000  C
  C605     1.0000 0.11042  0.32544  0.44943  Biso   1.000  C
  C606     1.0000 0.94942  0.38959  0.67456  Biso   1.000  C
  C607     1.0000 0.31046  0.24041  0.82289  Biso   1.000  C
  H535     1.0000 0.32439  0.26110  0.85809  Biso   1.000  H
  C608     1.0000 0.26042  0.24137  0.82170  Biso   1.000  C
  H536     1.0000 0.23989  0.26340  0.85280  Biso   1.000  H
  C609     1.0000 0.09062  0.48247  0.83264  Biso   1.000  C
  H537     1.0000 0.11669  0.51401  0.84640  Biso   1.000  H
  H538     1.0000 0.12070  0.50370  0.76190  Biso   1.000  H
  C610     1.0000 0.09303  0.47307  0.78129  Biso   1.000  C
  C611     1.0000 0.42121  0.23723  0.68879  Biso   1.000  C
  H539     1.0000 0.41231  0.27460  0.66449  Biso   1.000  H
  C612     1.0000 0.44175  0.24979  0.64137  Biso   1.000  C
  C613     1.0000 0.16779  0.06756  0.57553  Biso   1.000  C
  H540     1.0000 0.19260  0.07471  0.61280  Biso   1.000  H
  C614     1.0000 0.21564  0.04881  0.58554  Biso   1.000  C
  C615     1.0000 0.08998  0.30287  0.44265  Biso   1.000  C
  H541     1.0000 0.13009  0.31729  0.45109  Biso   1.000  H
  C616     1.0000 0.11008  0.35123  0.42637  Biso   1.000  C
  C617     1.0000 0.94263  0.41003  0.69713  Biso   1.000  C
  H542     1.0000 0.95110  0.36990  0.68271  Biso   1.000  H
  C618     1.0000 0.92638  0.38993  0.64877  Biso   1.000  C
  C619     1.0000 0.28531  0.23093  0.80971  Biso   1.000  C
  H543     1.0000 0.32870  0.23599  0.81530  Biso   1.000  H
  H544     1.0000 0.24309  0.23639  0.81231  Biso   1.000  H
  C620     1.0000 0.08258  0.46673  0.80781  Biso   1.000  C
  H545     1.0000 0.08271  0.47791  0.85071  Biso   1.000  H
  H546     1.0000 0.08800  0.46229  0.76491  Biso   1.000  H
  N83      1.0000 0.39575  0.24032  0.70686  Biso   1.000  N
  H547     1.0000 0.42690  0.21690  0.68561  Biso   1.000  H
  C621     1.0000 0.44572  0.25589  0.70449  Biso   1.000  C
  H548     1.0000 0.44399  0.22929  0.63680  Biso   1.000  H
  H549     1.0000 0.43881  0.26020  0.62330  Biso   1.000  H
  C622     1.0000 0.46615  0.25969  0.65457  Biso   1.000  C
  N84      1.0000 0.14743  0.09154  0.57843  Biso   1.000  N
  H550     1.0000 0.17190  0.06411  0.55490  Biso   1.000  H
  C623     1.0000 0.15456  0.03945  0.58940  Biso   1.000  C
  H551     1.0000 0.23219  0.05001  0.59851  Biso   1.000  H
  H552     1.0000 0.22281  0.05079  0.56580  Biso   1.000  H
  C624     1.0000 0.20171  0.01929  0.58880  Biso   1.000  C
  N85      1.0000 0.09071  0.28105  0.46351  Biso   1.000  N
  H553     1.0000 0.07029  0.31110  0.44171  Biso   1.000  H
  C625     1.0000 0.09847  0.29045  0.41190  Biso   1.000  C
  H554     1.0000 0.09239  0.36260  0.42831  Biso   1.000  H
  H555     1.0000 0.12659  0.36399  0.42929  Biso   1.000  H
  C626     1.0000 0.11157  0.33728  0.39706  Biso   1.000  C
  N86      1.0000 0.96350  0.40930  0.71895  Biso   1.000  N
  H556     1.0000 0.94170  0.42970  0.68890  Biso   1.000  H
  C627     1.0000 0.91189  0.40151  0.70955  Biso   1.000  C
  H557     1.0000 0.92830  0.40759  0.63740  Biso   1.000  H
  H558     1.0000 0.92930  0.37340  0.63599  Biso   1.000  H
  C628     1.0000 0.89705  0.38842  0.66272  Biso   1.000  C
  N87      1.0000 0.28644  0.21357  0.78643  Biso   1.000  N
  N88      1.0000 0.05971  0.44589  0.80958  Biso   1.000  N
  C629     1.0000 0.38479  0.21922  0.71494  Biso   1.000  C
  C630     1.0000 0.46938  0.26016  0.68301  Biso   1.000  C
  H559     1.0000 0.43791  0.27450  0.71070  Biso   1.000  H
  H560     1.0000 0.45299  0.24570  0.72149  Biso   1.000  H
  H561     1.0000 0.48141  0.26650  0.64301  Biso   1.000  H
  C631     1.0000 0.13271  0.09931  0.55680  Biso   1.000  C
  C632     1.0000 0.17293  0.01594  0.59106  Biso   1.000  C
  H562     1.0000 0.14801  0.04410  0.60890  Biso   1.000  H
  H563     1.0000 0.13760  0.03379  0.57820  Biso   1.000  H
  H564     1.0000 0.21361  0.00279  0.58929  Biso   1.000  H
  C633     1.0000 0.06671  0.27531  0.47253  Biso   1.000  C
  C634     1.0000 0.10586  0.31215  0.39313  Biso   1.000  C
  H565     1.0000 0.11479  0.27721  0.41399  Biso   1.000  H
  H566     1.0000 0.08220  0.27959  0.40401  Biso   1.000  H
  H567     1.0000 0.11721  0.34850  0.38121  Biso   1.000  H
  C635     1.0000 0.97254  0.43328  0.72469  Biso   1.000  C
  C636     1.0000 0.89314  0.39413  0.68785  Biso   1.000  C
  H568     1.0000 0.91401  0.38519  0.72279  Biso   1.000  H
  H569     1.0000 0.90400  0.41779  0.72041  Biso   1.000  H
  H570     1.0000 0.88119  0.38281  0.65150  Biso   1.000  H
  C637     1.0000 0.30972  0.21468  0.76907  Biso   1.000  C
  C638     1.0000 0.26908  0.19029  0.78532  Biso   1.000  C
  C639     1.0000 0.03861  0.44324  0.78825  Biso   1.000  C
  C640     1.0000 0.06212  0.42609  0.83460  Biso   1.000  C
  C641     1.0000 0.35836  0.21734  0.73365  Biso   1.000  C
  H571     1.0000 0.39319  0.20171  0.70921  Biso   1.000  H
  H572     1.0000 0.48800  0.26340  0.69020  Biso   1.000  H
  C642     1.0000 0.11085  0.12160  0.55913  Biso   1.000  C
  H573     1.0000 0.13600  0.09050  0.53890  Biso   1.000  H
  H574     1.0000 0.16521  0.99740  0.59379  Biso   1.000  H
  C643     1.0000 0.06293  0.25472  0.49754  Biso   1.000  C
  H575     1.0000 0.05039  0.28380  0.46389  Biso   1.000  H
  H576     1.0000 0.10660  0.30641  0.37370  Biso   1.000  H
  C644     1.0000 0.99753  0.43708  0.74528  Biso   1.000  C
  H577     1.0000 0.96390  0.44960  0.71620  Biso   1.000  H
  H578     1.0000 0.87371  0.39341  0.69361  Biso   1.000  H
  C645     1.0000 0.32290  0.18953  0.75959  Biso   1.000  C
  C646     1.0000 0.32171  0.23959  0.75863  Biso   1.000  C
  C647     1.0000 0.25961  0.17711  0.81047  Biso   1.000  C
  C648     1.0000 0.25865  0.17830  0.76041  Biso   1.000  C
  C649     1.0000 0.02944  0.46464  0.77468  Biso   1.000  C
  C650     1.0000 0.03008  0.41826  0.77993  Biso   1.000  C
  C651     1.0000 0.03548  0.41984  0.84698  Biso   1.000  C
  C652     1.0000 0.08576  0.41504  0.84420  Biso   1.000  C
  C653     1.0000 0.34780  0.19251  0.74338  Biso   1.000  C
  C654     1.0000 0.34547  0.24198  0.74208  Biso   1.000  C
  C655     1.0000 0.09852  0.13129  0.53498  Biso   1.000  C
  C656     1.0000 0.10377  0.13376  0.58530  Biso   1.000  C
  C657     1.0000 0.03776  0.24674  0.50850  Biso   1.000  C
  C658     1.0000 0.08629  0.24019  0.50993  Biso   1.000  C
  C659     1.0000 0.00851  0.46223  0.75326  Biso   1.000  C
  C660     1.0000 0.00992  0.41372  0.75981  Biso   1.000  C
  H579     1.0000 0.31531  0.17131  0.76399  Biso   1.000  H
  H580     1.0000 0.31230  0.25690  0.76361  Biso   1.000  H
  H581     1.0000 0.26400  0.18470  0.82869  Biso   1.000  H
  C661     1.0000 0.24339  0.15219  0.80749  Biso   1.000  C
  C662     1.0000 0.24209  0.15452  0.75802  Biso   1.000  C
  H582     1.0000 0.26359  0.18769  0.74310  Biso   1.000  H
  H583     1.0000 0.03691  0.48301  0.77901  Biso   1.000  H
  H584     1.0000 0.03859  0.40201  0.78861  Biso   1.000  H
  H585     1.0000 0.01841  0.42839  0.84011  Biso   1.000  H
  C663     1.0000 0.03497  0.40149  0.86871  Biso   1.000  C
  C664     1.0000 0.08531  0.39625  0.86624  Biso   1.000  C
  H586     1.0000 0.10351  0.42020  0.83569  Biso   1.000  H
  H587     1.0000 0.35810  0.17559  0.73890  Biso   1.000  H
  H588     1.0000 0.35281  0.26010  0.73660  Biso   1.000  H
  C665     1.0000 0.08017  0.15302  0.53547  Biso   1.000  C
  H589     1.0000 0.10300  0.12241  0.51729  Biso   1.000  H
  H590     1.0000 0.11189  0.12681  0.60250  Biso   1.000  H
  C666     1.0000 0.08497  0.15580  0.58577  Biso   1.000  C
  C667     1.0000 0.03535  0.22532  0.52945  Biso   1.000  C
  H591     1.0000 0.02091  0.25589  0.50191  Biso   1.000  H
  C668     1.0000 0.08175  0.22007  0.53007  Biso   1.000  C
  H592     1.0000 0.10519  0.24461  0.50411  Biso   1.000  H
  H593     1.0000 0.00190  0.47910  0.74411  Biso   1.000  H
  H594     1.0000 0.00410  0.39479  0.75539  Biso   1.000  H
  H595     1.0000 0.23889  0.14191  0.82441  Biso   1.000  H
  C669     1.0000 0.23364  0.14163  0.78266  Biso   1.000  C
  H596     1.0000 0.23661  0.14720  0.73990  Biso   1.000  H
  H597     1.0000 0.01730  0.39699  0.87759  Biso   1.000  H
  C670     1.0000 0.05911  0.38914  0.87840  Biso   1.000  C
  H598     1.0000 0.10251  0.38810  0.87319  Biso   1.000  H
  C671     1.0000 0.07390  0.16540  0.56213  Biso   1.000  C
  H599     1.0000 0.07159  0.15989  0.51840  Biso   1.000  H
  H600     1.0000 0.07981  0.16431  0.60350  Biso   1.000  H
  C672     1.0000 0.05677  0.21175  0.53860  Biso   1.000  C
  H601     1.0000 0.01700  0.22099  0.53690  Biso   1.000  H
  H602     1.0000 0.09801  0.21139  0.53860  Biso   1.000  H
  C673     1.0000 0.21495  0.11522  0.78078  Biso   1.000  C
  C674     1.0000 0.05679  0.36727  0.90069  Biso   1.000  C
  N89      1.0000 0.05412  0.19042  0.55970  Biso   1.000  N
  N90      1.0000 0.20685  0.10426  0.75968  Biso   1.000  N
  H603     1.0000 0.20919  0.10679  0.79829  Biso   1.000  H
  N91      1.0000 0.07842  0.35255  0.90846  Biso   1.000  N
  H604     1.0000 0.03889  0.36399  0.90950  Biso   1.000  H
  C675     1.0000 0.03328  0.19219  0.58259  Biso   1.000  C
  C676     1.0000 0.18878  0.07878  0.76277  Biso   1.000  C
  C677     1.0000 0.07552  0.33220  0.93244  Biso   1.000  C
  C678     1.0000 0.01754  0.16736  0.59063  Biso   1.000  C
  C679     1.0000 0.02692  0.21873  0.59302  Biso   1.000  C
  H605     1.0000 0.18560  0.07311  0.78310  Biso   1.000  H
  C680     1.0000 0.16066  0.08416  0.74609  Biso   1.000  C
  C681     1.0000 0.20450  0.05429  0.74411  Biso   1.000  C
  C682     1.0000 0.09180  0.30409  0.92740  Biso   1.000  C
  H606     1.0000 0.05489  0.32811  0.93589  Biso   1.000  H
  C683     1.0000 0.08941  0.34543  0.96055  Biso   1.000  C
  H607     1.0000 0.02210  0.14929  0.58270  Biso   1.000  H
  C684     1.0000 0.99578  0.16998  0.60994  Biso   1.000  C
  C685     1.0000 0.00196  0.22031  0.61295  Biso   1.000  C
  H608     1.0000 0.03770  0.23509  0.58801  Biso   1.000  H
  N92      1.0000 0.14694  0.10844  0.75923  Biso   1.000  N
  H609     1.0000 0.16450  0.08770  0.72540  Biso   1.000  H
  C686     1.0000 0.14138  0.05826  0.75021  Biso   1.000  C
  C687     1.0000 0.18300  0.03063  0.73984  Biso   1.000  C
  H610     1.0000 0.21071  0.06210  0.72550  Biso   1.000  H
  H611     1.0000 0.22150  0.04700  0.75430  Biso   1.000  H
  N93      1.0000 0.07949  0.28934  0.90144  Biso   1.000  N
  H612     1.0000 0.11281  0.30739  0.92529  Biso   1.000  H
  C688     1.0000 0.08553  0.28437  0.95121  Biso   1.000  C
  C689     1.0000 0.09105  0.32706  0.98406  Biso   1.000  C
  H613     1.0000 0.10891  0.35200  0.95590  Biso   1.000  H
  H614     1.0000 0.07821  0.36241  0.96621  Biso   1.000  H
  H615     1.0000 0.98601  0.15360  0.61670  Biso   1.000  H
  C690     1.0000 0.98822  0.19746  0.61954  Biso   1.000  C
  H616     1.0000 0.99631  0.23810  0.62069  Biso   1.000  H
  C691     1.0000 0.13909  0.13011  0.74353  Biso   1.000  C
  H617     1.0000 0.13681  0.05600  0.77071  Biso   1.000  H
  H618     1.0000 0.12331  0.06121  0.73980  Biso   1.000  H
  C692     1.0000 0.15456  0.03383  0.74033  Biso   1.000  C
  H619     1.0000 0.19021  0.01201  0.73660  Biso   1.000  H
  C693     1.0000 0.09647  0.28305  0.88303  Biso   1.000  C
  H620     1.0000 0.09850  0.26780  0.94999  Biso   1.000  H
  H621     1.0000 0.06579  0.27721  0.94921  Biso   1.000  H
  C694     1.0000 0.08881  0.29830  0.98071  Biso   1.000  C
  H622     1.0000 0.09380  0.33481  0.00260  Biso   1.000  H
  C695     1.0000 0.96169  0.19989  0.63927  Biso   1.000  C
  C696     1.0000 0.12390  0.15292  0.75326  Biso   1.000  C
  H623     1.0000 0.14441  0.13001  0.72401  Biso   1.000  H
  H624     1.0000 0.14300  0.01860  0.73350  Biso   1.000  H
  C697     1.0000 0.08977  0.26822  0.85604  Biso   1.000  C
  H625     1.0000 0.11580  0.28811  0.88621  Biso   1.000  H
  H626     1.0000 0.08930  0.28640  0.99721  Biso   1.000  H
  N94      1.0000 0.95185  0.22379  0.64649  Biso   1.000  N
  H627     1.0000 0.95270  0.18300  0.64599  Biso   1.000  H
  C698     1.0000 0.11516  0.17291  0.73545  Biso   1.000  C
  C699     1.0000 0.11744  0.15834  0.78240  Biso   1.000  C
  C700     1.0000 0.11027  0.26071  0.84019  Biso   1.000  C
  C701     1.0000 0.06289  0.26304  0.84745  Biso   1.000  C
  C702     1.0000 0.92719  0.22349  0.66368  Biso   1.000  C
  C703     1.0000 0.09728  0.19629  0.74287  Biso   1.000  C
  H628     1.0000 0.12130  0.17161  0.71620  Biso   1.000  H
  H629     1.0000 0.12380  0.14579  0.79699  Biso   1.000  H
  C704     1.0000 0.10193  0.18193  0.78859  Biso   1.000  C
  C705     1.0000 0.10686  0.24604  0.81372  Biso   1.000  C
  H630     1.0000 0.12911  0.26511  0.84629  Biso   1.000  H
  C706     1.0000 0.05536  0.24881  0.82396  Biso   1.000  C
  H631     1.0000 0.04789  0.27021  0.85909  Biso   1.000  H
  C707     1.0000 0.93026  0.24079  0.68930  Biso   1.000  C
  H632     1.0000 0.92309  0.20339  0.66940  Biso   1.000  H
  C708     1.0000 0.90259  0.23437  0.64503  Biso   1.000  C
  C709     1.0000 0.09079  0.20041  0.77180  Biso   1.000  C
  H633     1.0000 0.09001  0.20870  0.72870  Biso   1.000  H
  H634     1.0000 0.09879  0.18519  0.80830  Biso   1.000  H
  C710     1.0000 0.07706  0.24041  0.80732  Biso   1.000  C
  H635     1.0000 0.12220  0.24060  0.80171  Biso   1.000  H
  H636     1.0000 0.03601  0.24491  0.81939  Biso   1.000  H
  N95      1.0000 0.95637  0.23166  0.70622  Biso   1.000  N
  H637     1.0000 0.93391  0.26080  0.68279  Biso   1.000  H
  C711     1.0000 0.90682  0.24230  0.70942  Biso   1.000  C
  H638     1.0000 0.90910  0.25109  0.63390  Biso   1.000  H
  H639     1.0000 0.89690  0.21931  0.63140  Biso   1.000  H
  C712     1.0000 0.87689  0.24275  0.66319  Biso   1.000  C
  N96      1.0000 0.07343  0.22447  0.77948  Biso   1.000  N
  C713     1.0000 0.97402  0.24930  0.71277  Biso   1.000  C
  C714     1.0000 0.87744  0.24561  0.69340  Biso   1.000  C
  H640     1.0000 0.90970  0.25879  0.72230  Biso   1.000  H
  H641     1.0000 0.90650  0.22479  0.72119  Biso   1.000  H
  H642     1.0000 0.85931  0.24629  0.65370  Biso   1.000  H
  C715     1.0000 0.04900  0.23027  0.76245  Biso   1.000  C
  C716     1.0000 0.00098  0.24143  0.72924  Biso   1.000  C
  H643     1.0000 0.97101  0.26861  0.70750  Biso   1.000  H
  H644     1.0000 0.86039  0.24941  0.70370  Biso   1.000  H
  C717     1.0000 0.04209  0.25664  0.75684  Biso   1.000  C
  C718     1.0000 0.03243  0.20817  0.75164  Biso   1.000  C
  C719     1.0000 0.01734  0.26325  0.73975  Biso   1.000  C
  C720     1.0000 0.00922  0.21545  0.73673  Biso   1.000  C
  H645     1.0000 0.05350  0.27170  0.76410  Biso   1.000  H
  H646     1.0000 0.03740  0.18880  0.75471  Biso   1.000  H
  H647     1.0000 0.01239  0.28250  0.73581  Biso   1.000  H
  H648     1.0000 0.99721  0.20019  0.73079  Biso   1.000  H
  C721     1.0000 0.60911  0.36192  0.56777  Biso   1.000  C
  C722     1.0000 0.61553  0.35072  0.53865  Biso   1.000  C
  C723     1.0000 0.61146  0.33995  0.59290  Biso   1.000  C
  H649     1.0000 0.58950  0.36979  0.56770  Biso   1.000  H
  H650     1.0000 0.62229  0.37790  0.57169  Biso   1.000  H
  C724     1.0000 0.61423  0.32177  0.53551  Biso   1.000  C
  H651     1.0000 0.62020  0.36301  0.52320  Biso   1.000  H
  C725     1.0000 0.59490  0.31296  0.58293  Biso   1.000  C
  N97      1.0000 0.59462  0.35264  0.61638  Biso   1.000  N
  H652     1.0000 0.63159  0.33581  0.59840  Biso   1.000  H
  C726     1.0000 0.60894  0.29807  0.55569  Biso   1.000  C
  H653     1.0000 0.61741  0.31561  0.51650  Biso   1.000  H
  N98      1.0000 0.59561  0.29329  0.60416  Biso   1.000  N
  H654     1.0000 0.57470  0.31810  0.57860  Biso   1.000  H
  C727     1.0000 0.60937  0.35703  0.63565  Biso   1.000  C
  H655     1.0000 0.62701  0.28841  0.56090  Biso   1.000  H
  H656     1.0000 0.59580  0.28380  0.54731  Biso   1.000  H
  C728     1.0000 0.57235  0.28448  0.61515  Biso   1.000  C
  C729     1.0000 0.59804  0.37393  0.66402  Biso   1.000  C
  H657     1.0000 0.62861  0.35070  0.63501  Biso   1.000  H
  C730     1.0000 0.57054  0.26144  0.63932  Biso   1.000  C
  H658     1.0000 0.55501  0.29239  0.60830  Biso   1.000  H
  C731     1.0000 0.61909  0.38202  0.68461  Biso   1.000  C
  C732     1.0000 0.57216  0.37995  0.66912  Biso   1.000  C
  C733     1.0000 0.54654  0.25009  0.64819  Biso   1.000  C
  C734     1.0000 0.59258  0.25212  0.65237  Biso   1.000  C
  C735     1.0000 0.61184  0.39678  0.70876  Biso   1.000  C
  H659     1.0000 0.63851  0.37700  0.68149  Biso   1.000  H
  H660     1.0000 0.55780  0.37350  0.65630  Biso   1.000  H
  C736     1.0000 0.56480  0.39450  0.69114  Biso   1.000  C
  C737     1.0000 0.54234  0.23332  0.67023  Biso   1.000  C
  H661     1.0000 0.53009  0.25459  0.63729  Biso   1.000  H
  H662     1.0000 0.61060  0.25901  0.64610  Biso   1.000  H
  C738     1.0000 0.59255  0.23253  0.67522  Biso   1.000  C
  C739     1.0000 0.58368  0.40303  0.71046  Biso   1.000  C
  H663     1.0000 0.62530  0.40209  0.72301  Biso   1.000  H
  H664     1.0000 0.54530  0.39930  0.69370  Biso   1.000  H
  C740     1.0000 0.56676  0.22377  0.68410  Biso   1.000  C
  H665     1.0000 0.52369  0.22801  0.67631  Biso   1.000  H
  H666     1.0000 0.60971  0.22601  0.68380  Biso   1.000  H
  N99      1.0000 0.57481  0.42185  0.73574  Biso   1.000  N
  N100     1.0000 0.56301  0.20237  0.70633  Biso   1.000  N
  C741     1.0000 0.59145  0.44691  0.74182  Biso   1.000  C
  C742     1.0000 0.55010  0.41504  0.74972  Biso   1.000  C
  C743     1.0000 0.58426  0.17875  0.70492  Biso   1.000  C
  C744     1.0000 0.54148  0.20286  0.72454  Biso   1.000  C
  C745     1.0000 0.59693  0.45461  0.76826  Biso   1.000  C
  C746     1.0000 0.60378  0.46153  0.71902  Biso   1.000  C
  C747     1.0000 0.54394  0.38748  0.75680  Biso   1.000  C
  C748     1.0000 0.53310  0.43703  0.75844  Biso   1.000  C
  C749     1.0000 0.59089  0.16617  0.68233  Biso   1.000  C
  C750     1.0000 0.59823  0.17033  0.72945  Biso   1.000  C
  C751     1.0000 0.53052  0.17984  0.73813  Biso   1.000  C
  C752     1.0000 0.53171  0.22972  0.73299  Biso   1.000  C
  H667     1.0000 0.58950  0.44361  0.78359  Biso   1.000  H
  C753     1.0000 0.61293  0.47774  0.77399  Biso   1.000  C
  C754     1.0000 0.61873  0.48544  0.72508  Biso   1.000  C
  H668     1.0000 0.60171  0.45489  0.69999  Biso   1.000  H
  H669     1.0000 0.55639  0.37220  0.75219  Biso   1.000  H
  C755     1.0000 0.51802  0.38304  0.77129  Biso   1.000  C
  C756     1.0000 0.50788  0.43153  0.77457  Biso   1.000  C
  H670     1.0000 0.53809  0.45611  0.75379  Biso   1.000  H
  H671     1.0000 0.58330  0.17350  0.66500  Biso   1.000  H
  C757     1.0000 0.60779  0.14325  0.68062  Biso   1.000  C
  C758     1.0000 0.61408  0.14786  0.73015  Biso   1.000  C
  H672     1.0000 0.59610  0.18140  0.74630  Biso   1.000  H
  H673     1.0000 0.53871  0.16160  0.73459  Biso   1.000  H
  C759     1.0000 0.50846  0.18176  0.75644  Biso   1.000  C
  C760     1.0000 0.50735  0.23145  0.75298  Biso   1.000  C
  H674     1.0000 0.54061  0.24659  0.72599  Biso   1.000  H
  H675     1.0000 0.61670  0.48279  0.79319  Biso   1.000  H
  C761     1.0000 0.62432  0.49487  0.75108  Biso   1.000  C
  H676     1.0000 0.62579  0.49630  0.70950  Biso   1.000  H
  H677     1.0000 0.51300  0.36390  0.77570  Biso   1.000  H
  C762     1.0000 0.49931  0.40412  0.77967  Biso   1.000  C
  H678     1.0000 0.49700  0.44700  0.78180  Biso   1.000  H
  H679     1.0000 0.61090  0.13421  0.66281  Biso   1.000  H
  C763     1.0000 0.62003  0.13329  0.70387  Biso   1.000  C
  H680     1.0000 0.62170  0.14110  0.74769  Biso   1.000  H
  H681     1.0000 0.49990  0.16510  0.76420  Biso   1.000  H
  C764     1.0000 0.49869  0.20813  0.76343  Biso   1.000  C
  H682     1.0000 0.49871  0.24911  0.75770  Biso   1.000  H
  C765     1.0000 0.64256  0.51876  0.75940  Biso   1.000  C
  C766     1.0000 0.47298  0.39674  0.79599  Biso   1.000  C
  C767     1.0000 0.64011  0.10771  0.70793  Biso   1.000  C
  C768     1.0000 0.46978  0.21135  0.78359  Biso   1.000  C
  N101     1.0000 0.64986  0.53591  0.74025  Biso   1.000  N
  H683     1.0000 0.64860  0.52119  0.77860  Biso   1.000  H
  N102     1.0000 0.45408  0.41685  0.80162  Biso   1.000  N
  H684     1.0000 0.46980  0.37771  0.80230  Biso   1.000  H
  N103     1.0000 0.64983  0.09764  0.72917  Biso   1.000  N
  H685     1.0000 0.64559  0.09839  0.69079  Biso   1.000  H
  N104     1.0000 0.45999  0.23627  0.78812  Biso   1.000  N
  H686     1.0000 0.46080  0.19501  0.79159  Biso   1.000  H
  C769     1.0000 0.66588  0.56000  0.75236  Biso   1.000  C
  C770     1.0000 0.42801  0.40512  0.81743  Biso   1.000  C
  C771     1.0000 0.66859  0.07110  0.72459  Biso   1.000  C
  C772     1.0000 0.43509  0.23262  0.80732  Biso   1.000  C
  C773     1.0000 0.69267  0.56491  0.73263  Biso   1.000  C
  H687     1.0000 0.67200  0.55561  0.77231  Biso   1.000  H
  C774     1.0000 0.64740  0.58767  0.75172  Biso   1.000  C
  H688     1.0000 0.43089  0.38449  0.82229  Biso   1.000  H
  C775     1.0000 0.42251  0.42195  0.84363  Biso   1.000  C
  C776     1.0000 0.40523  0.40826  0.79571  Biso   1.000  C
  C777     1.0000 0.69525  0.07541  0.74131  Biso   1.000  C
  H689     1.0000 0.67249  0.06750  0.70389  Biso   1.000  H
  C778     1.0000 0.65092  0.04655  0.73839  Biso   1.000  C
  H690     1.0000 0.43159  0.21220  0.81261  Biso   1.000  H
  C779     1.0000 0.44000  0.25235  0.83413  Biso   1.000  C
  C780     1.0000 0.40796  0.24721  0.78953  Biso   1.000  C
  N105     1.0000 0.71189  0.53999  0.73626  Biso   1.000  N
  H691     1.0000 0.68740  0.56841  0.71219  Biso   1.000  H
  C781     1.0000 0.71049  0.59204  0.74722  Biso   1.000  C
  H692     1.0000 0.63770  0.58950  0.73310  Biso   1.000  H
  H693     1.0000 0.63270  0.58690  0.76689  Biso   1.000  H
  C782     1.0000 0.66537  0.61079  0.75607  Biso   1.000  C
  N106     1.0000 0.44734  0.42012  0.86240  Biso   1.000  N
  H694     1.0000 0.41890  0.44230  0.83840  Biso   1.000  H
  C783     1.0000 0.39913  0.41116  0.85841  Biso   1.000  C
  C784     1.0000 0.37766  0.40352  0.81184  Biso   1.000  C
  H695     1.0000 0.40751  0.39390  0.78039  Biso   1.000  H
  H696     1.0000 0.40570  0.42761  0.78709  Biso   1.000  H
  N107     1.0000 0.71061  0.09954  0.72858  Biso   1.000  N
  H697     1.0000 0.69101  0.07900  0.76190  Biso   1.000  H
  C785     1.0000 0.71262  0.04902  0.73756  Biso   1.000  C
  H698     1.0000 0.64309  0.05321  0.75680  Biso   1.000  H
  H699     1.0000 0.63471  0.04179  0.72580  Biso   1.000  H
  C786     1.0000 0.66743  0.02172  0.74315  Biso   1.000  C
  N108     1.0000 0.46409  0.24023  0.85015  Biso   1.000  N
  H700     1.0000 0.44439  0.27230  0.82799  Biso   1.000  H
  C787     1.0000 0.41233  0.25171  0.85259  Biso   1.000  C
  C788     1.0000 0.38485  0.25022  0.80873  Biso   1.000  C
  H701     1.0000 0.41361  0.26609  0.78191  Biso   1.000  H
  H702     1.0000 0.40241  0.23479  0.77329  Biso   1.000  H
  C789     1.0000 0.71639  0.53022  0.71136  Biso   1.000  C
  C790     1.0000 0.69129  0.61515  0.75023  Biso   1.000  C
  H703     1.0000 0.71810  0.58641  0.76610  Biso   1.000  H
  H704     1.0000 0.72670  0.59759  0.73481  Biso   1.000  H
  H705     1.0000 0.65641  0.62650  0.76529  Biso   1.000  H
  C791     1.0000 0.45641  0.44540  0.87196  Biso   1.000  C
  H706     1.0000 0.39371  0.42479  0.87360  Biso   1.000  H
  H707     1.0000 0.40461  0.39300  0.86769  Biso   1.000  H
  C792     1.0000 0.37254  0.40572  0.83836  Biso   1.000  C
  H708     1.0000 0.36179  0.39810  0.80041  Biso   1.000  H
  C793     1.0000 0.71731  0.11998  0.74276  Biso   1.000  C
  C794     1.0000 0.69615  0.02368  0.74349  Biso   1.000  C
  H709     1.0000 0.71981  0.04819  0.71770  Biso   1.000  H
  H710     1.0000 0.72930  0.04971  0.75051  Biso   1.000  H
  H711     1.0000 0.65841  0.00380  0.74601  Biso   1.000  H
  C795     1.0000 0.48124  0.25941  0.85745  Biso   1.000  C
  H712     1.0000 0.41050  0.23311  0.86229  Biso   1.000  H
  H713     1.0000 0.41310  0.26690  0.86731  Biso   1.000  H
  C796     1.0000 0.38921  0.25606  0.83462  Biso   1.000  C
  H714     1.0000 0.36591  0.24781  0.80201  Biso   1.000  H
  C797     1.0000 0.73658  0.50131  0.70814  Biso   1.000  C
  H715     1.0000 0.70839  0.53920  0.69500  Biso   1.000  H
  H716     1.0000 0.69801  0.63409  0.74780  Biso   1.000  H
  C798     1.0000 0.48192  0.44815  0.89293  Biso   1.000  C
  H717     1.0000 0.44689  0.46221  0.86579  Biso   1.000  H
  H718     1.0000 0.35379  0.40420  0.84580  Biso   1.000  H
  C799     1.0000 0.73193  0.14494  0.73801  Biso   1.000  C
  H719     1.0000 0.71089  0.11840  0.76190  Biso   1.000  H
  H720     1.0000 0.70650  0.00689  0.74810  Biso   1.000  H
  C800     1.0000 0.50513  0.25107  0.87569  Biso   1.000  C
  H721     1.0000 0.47881  0.27859  0.85139  Biso   1.000  H
  H722     1.0000 0.37350  0.26530  0.84361  Biso   1.000  H
  C801     1.0000 0.74357  0.49154  0.68177  Biso   1.000  C
  C802     1.0000 0.74701  0.49265  0.73146  Biso   1.000  C
  C803     1.0000 0.49557  0.42317  0.90121  Biso   1.000  C
  C804     1.0000 0.49244  0.47422  0.90246  Biso   1.000  C
  C805     1.0000 0.74150  0.15185  0.70982  Biso   1.000  C
  C806     1.0000 0.73958  0.16446  0.75742  Biso   1.000  C
  C807     1.0000 0.52226  0.27401  0.88708  Biso   1.000  C
  C808     1.0000 0.51456  0.22507  0.88128  Biso   1.000  C
  C809     1.0000 0.76188  0.46948  0.67983  Biso   1.000  C
  H723     1.0000 0.73581  0.50010  0.66511  Biso   1.000  H
  H724     1.0000 0.74229  0.50129  0.74910  Biso   1.000  H
  C810     1.0000 0.76700  0.46829  0.72973  Biso   1.000  C
  C811     1.0000 0.51733  0.42530  0.92265  Biso   1.000  C
  H725     1.0000 0.49071  0.40529  0.89299  Biso   1.000  H
  H726     1.0000 0.48491  0.49120  0.89440  Biso   1.000  H
  C812     1.0000 0.51339  0.47646  0.92324  Biso   1.000  C
  C813     1.0000 0.75721  0.17487  0.70402  Biso   1.000  C
  H727     1.0000 0.73649  0.13950  0.69459  Biso   1.000  H
  H728     1.0000 0.73269  0.16190  0.77630  Biso   1.000  H
  C814     1.0000 0.75680  0.18831  0.75253  Biso   1.000  C
  C815     1.0000 0.54539  0.26825  0.90306  Biso   1.000  C
  H729     1.0000 0.51721  0.29321  0.88331  Biso   1.000  H
  H730     1.0000 0.50370  0.20949  0.87420  Biso   1.000  H
  C816     1.0000 0.53847  0.21903  0.89621  Biso   1.000  C
  C817     1.0000 0.77547  0.45852  0.70285  Biso   1.000  C
  H731     1.0000 0.76540  0.46129  0.66159  Biso   1.000  H
  H732     1.0000 0.77399  0.45939  0.74660  Biso   1.000  H
  C818     1.0000 0.52700  0.45150  0.93291  Biso   1.000  C
  H733     1.0000 0.52540  0.40830  0.93009  Biso   1.000  H
  H734     1.0000 0.51851  0.49459  0.93079  Biso   1.000  H
  C819     1.0000 0.76446  0.19409  0.72704  Biso   1.000  C
  H735     1.0000 0.76350  0.17860  0.68510  Biso   1.000  H
  H736     1.0000 0.76271  0.20000  0.76800  Biso   1.000  H
  C820     1.0000 0.55309  0.24183  0.90857  Biso   1.000  C
  H737     1.0000 0.55639  0.28361  0.91051  Biso   1.000  H
  H738     1.0000 0.54511  0.20000  0.89830  Biso   1.000  H
  N109     1.0000 0.79369  0.43699  0.70238  Biso   1.000  N
  N110     1.0000 0.54658  0.45342  0.95343  Biso   1.000  N
  N111     1.0000 0.78148  0.21852  0.71851  Biso   1.000  N
  N112     1.0000 0.57815  0.23575  0.92521  Biso   1.000  N
  C821     1.0000 0.79507  0.41574  0.67876  Biso   1.000  C
  C822     1.0000 0.81591  0.43324  0.72378  Biso   1.000  C
  C823     1.0000 0.56708  0.47300  0.95149  Biso   1.000  C
  C824     1.0000 0.54850  0.43292  0.97299  Biso   1.000  C
  C825     1.0000 0.80591  0.22705  0.73555  Biso   1.000  C
  C826     1.0000 0.77297  0.23554  0.69408  Biso   1.000  C
  C827     1.0000 0.59697  0.21047  0.91633  Biso   1.000  C
  C828     1.0000 0.58496  0.24971  0.94989  Biso   1.000  C
  C829     1.0000 0.81766  0.40911  0.66618  Biso   1.000  C
  C830     1.0000 0.77054  0.40177  0.67034  Biso   1.000  C
  C831     1.0000 0.82976  0.45766  0.73333  Biso   1.000  C
  C832     1.0000 0.82479  0.40745  0.73254  Biso   1.000  C
  C833     1.0000 0.57734  0.48267  0.92529  Biso   1.000  C
  C834     1.0000 0.57677  0.48661  0.97647  Biso   1.000  C
  C835     1.0000 0.57470  0.42266  0.98268  Biso   1.000  C
  C836     1.0000 0.52354  0.42323  0.98660  Biso   1.000  C
  C837     1.0000 0.82513  0.20401  0.74281  Biso   1.000  C
  C838     1.0000 0.81169  0.25252  0.74319  Biso   1.000  C
  C839     1.0000 0.79599  0.24279  0.67488  Biso   1.000  C
  C840     1.0000 0.74748  0.24320  0.68830  Biso   1.000  C
  C841     1.0000 0.60322  0.20875  0.88817  Biso   1.000  C
  C842     1.0000 0.60550  0.19113  0.93521  Biso   1.000  C
  C843     1.0000 0.61252  0.25679  0.95607  Biso   1.000  C
  C844     1.0000 0.56297  0.25845  0.96689  Biso   1.000  C
  H739     1.0000 0.83501  0.41670  0.67349  Biso   1.000  H
  C845     1.0000 0.81939  0.39221  0.64324  Biso   1.000  C
  C846     1.0000 0.76986  0.38592  0.64785  Biso   1.000  C
  H740     1.0000 0.75371  0.40390  0.68141  Biso   1.000  H
  H741     1.0000 0.82370  0.47631  0.72800  Biso   1.000  H
  C847     1.0000 0.85182  0.45346  0.75008  Biso   1.000  C
  C848     1.0000 0.84762  0.40742  0.75213  Biso   1.000  C
  H742     1.0000 0.81619  0.39029  0.72599  Biso   1.000  H
  H743     1.0000 0.56990  0.47460  0.90831  Biso   1.000  H
  C849     1.0000 0.59881  0.50443  0.92318  Biso   1.000  C
  C850     1.0000 0.59753  0.50756  0.97423  Biso   1.000  C
  H744     1.0000 0.56919  0.48149  0.99460  Biso   1.000  H
  H745     1.0000 0.59170  0.43010  0.97459  Biso   1.000  H
  C851     1.0000 0.57683  0.40119  0.00442  Biso   1.000  C
  H746     1.0000 0.50541  0.43081  0.98150  Biso   1.000  H
  C852     1.0000 0.52578  0.40247  0.00755  Biso   1.000  C
  H747     1.0000 0.82140  0.18511  0.73649  Biso   1.000  H
  C853     1.0000 0.84815  0.20981  0.75849  Biso   1.000  C
  C854     1.0000 0.83554  0.25741  0.76041  Biso   1.000  C
  H748     1.0000 0.80000  0.26799  0.73730  Biso   1.000  H
  H749     1.0000 0.81489  0.23650  0.67859  Biso   1.000  H
  C855     1.0000 0.79019  0.25850  0.65184  Biso   1.000  C
  C856     1.0000 0.74259  0.26042  0.66447  Biso   1.000  C
  H750     1.0000 0.73199  0.23729  0.69999  Biso   1.000  H
  H751     1.0000 0.59791  0.22300  0.87471  Biso   1.000  H
  C857     1.0000 0.61798  0.18462  0.88090  Biso   1.000  C
  C858     1.0000 0.62005  0.16913  0.92783  Biso   1.000  C
  H752     1.0000 0.60070  0.19371  0.95471  Biso   1.000  H
  H753     1.0000 0.62780  0.25220  0.94359  Biso   1.000  H
  C859     1.0000 0.61696  0.27130  0.98197  Biso   1.000  C
  C860     1.0000 0.56847  0.27456  0.99213  Biso   1.000  C
  H754     1.0000 0.54389  0.25380  0.96190  Biso   1.000  H
  H755     1.0000 0.83721  0.38910  0.63420  Biso   1.000  H
  C861     1.0000 0.79612  0.37997  0.63328  Biso   1.000  C
  H756     1.0000 0.75230  0.37830  0.64111  Biso   1.000  H
  H757     1.0000 0.86270  0.46991  0.75460  Biso   1.000  H
  C862     1.0000 0.86067  0.42946  0.76145  Biso   1.000  C
  H758     1.0000 0.85391  0.38940  0.75900  Biso   1.000  H
  H759     1.0000 0.60700  0.50929  0.90530  Biso   1.000  H
  C863     1.0000 0.60706  0.51808  0.94816  Biso   1.000  C
  H760     1.0000 0.60561  0.51509  0.99119  Biso   1.000  H
  H761     1.0000 0.59471  0.39300  0.00930  Biso   1.000  H
  C864     1.0000 0.55185  0.39294  0.01807  Biso   1.000  C
  H762     1.0000 0.50880  0.39439  0.01510  Biso   1.000  H
  H763     1.0000 0.86050  0.19460  0.76350  Biso   1.000  H
  C865     1.0000 0.85506  0.23802  0.76806  Biso   1.000  C
  H764     1.0000 0.83810  0.27631  0.76730  Biso   1.000  H
  H765     1.0000 0.80540  0.26351  0.63951  Biso   1.000  H
  C866     1.0000 0.76198  0.26807  0.64493  Biso   1.000  C
  H766     1.0000 0.72369  0.26731  0.66191  Biso   1.000  H
  H767     1.0000 0.62300  0.18150  0.86150  Biso   1.000  H
  C867     1.0000 0.62607  0.16403  0.90197  Biso   1.000  C
  H768     1.0000 0.62650  0.15631  0.94221  Biso   1.000  H
  H769     1.0000 0.63610  0.27569  0.98701  Biso   1.000  H
  C868     1.0000 0.59588  0.27968  0.00068  Biso   1.000  C
  H770     1.0000 0.55300  0.28179  0.00301  Biso   1.000  H
  C869     1.0000 0.79209  0.35989  0.60770  Biso   1.000  C
  C870     1.0000 0.88484  0.42765  0.78449  Biso   1.000  C
  C871     1.0000 0.62803  0.54359  0.94541  Biso   1.000  C
  C872     1.0000 0.55460  0.37197  0.04361  Biso   1.000  C
  C873     1.0000 0.88002  0.24275  0.78268  Biso   1.000  C
  C874     1.0000 0.75725  0.28269  0.61999  Biso   1.000  C
  C875     1.0000 0.64297  0.13564  0.89062  Biso   1.000  C
  C876     1.0000 0.60326  0.29600  0.02703  Biso   1.000  C
  N113     1.0000 0.77082  0.35017  0.59765  Biso   1.000  N
  H771     1.0000 0.80919  0.35441  0.59840  Biso   1.000  H
  N114     1.0000 0.89585  0.40439  0.79330  Biso   1.000  N
  H772     1.0000 0.89169  0.44499  0.79241  Biso   1.000  H
  N115     1.0000 0.63759  0.55266  0.92013  Biso   1.000  N
  H773     1.0000 0.63420  0.55311  0.96220  Biso   1.000  H
  N116     1.0000 0.57988  0.36241  0.05267  Biso   1.000  N
  H774     1.0000 0.53779  0.36580  0.05310  Biso   1.000  H
  N117     1.0000 0.90046  0.22857  0.78938  Biso   1.000  N
  H775     1.0000 0.88160  0.26191  0.78910  Biso   1.000  H
  N118     1.0000 0.77143  0.28939  0.59953  Biso   1.000  N
  H776     1.0000 0.73809  0.28911  0.61841  Biso   1.000  H
  N119     1.0000 0.64736  0.11639  0.90537  Biso   1.000  N
  H777     1.0000 0.64930  0.13500  0.87140  Biso   1.000  H
  N120     1.0000 0.58315  0.30161  0.04593  Biso   1.000  N
  H778     1.0000 0.62229  0.30229  0.03021  Biso   1.000  H
  C877     1.0000 0.77542  0.33141  0.57109  Biso   1.000  C
  C878     1.0000 0.91706  0.40510  0.81295  Biso   1.000  C
  C879     1.0000 0.65638  0.57749  0.92196  Biso   1.000  C
  C880     1.0000 0.57805  0.34362  0.07750  Biso   1.000  C
  C881     1.0000 0.92459  0.24132  0.80474  Biso   1.000  C
  C882     1.0000 0.75868  0.30475  0.57542  Biso   1.000  C
  C883     1.0000 0.66005  0.09289  0.88855  Biso   1.000  C
  C884     1.0000 0.59488  0.31744  0.07200  Biso   1.000  C
  H779     1.0000 0.79610  0.32751  0.56751  Biso   1.000  H
  C885     1.0000 0.76160  0.34908  0.54656  Biso   1.000  C
  C886     1.0000 0.90711  0.38854  0.83994  Biso   1.000  C
  H780     1.0000 0.92141  0.42530  0.81809  Biso   1.000  H
  C887     1.0000 0.94432  0.39106  0.79806  Biso   1.000  C
  C888     1.0000 0.68256  0.57199  0.90513  Biso   1.000  C
  H781     1.0000 0.66159  0.58110  0.94229  Biso   1.000  H
  C889     1.0000 0.64160  0.60087  0.91115  Biso   1.000  C
  H782     1.0000 0.55770  0.33839  0.08111  Biso   1.000  H
  C890     1.0000 0.58884  0.35840  0.10086  Biso   1.000  C
  H783     1.0000 0.92100  0.26191  0.80900  Biso   1.000  H
  C891     1.0000 0.92890  0.22458  0.83142  Biso   1.000  C
  C892     1.0000 0.95098  0.23755  0.78737  Biso   1.000  C
  H784     1.0000 0.73809  0.30899  0.57901  Biso   1.000  H
  C893     1.0000 0.76245  0.28738  0.54901  Biso   1.000  C
  H785     1.0000 0.66419  0.09839  0.86839  Biso   1.000  H
  C894     1.0000 0.68704  0.08294  0.90511  Biso   1.000  C
  C895     1.0000 0.63808  0.06775  0.89088  Biso   1.000  C
  H786     1.0000 0.61551  0.32230  0.06910  Biso   1.000  H
  C896     1.0000 0.59174  0.29570  0.09478  Biso   1.000  C
  H787     1.0000 0.74319  0.35691  0.55319  Biso   1.000  H
  H788     1.0000 0.77421  0.36529  0.54180  Biso   1.000  H
  C897     1.0000 0.75686  0.33257  0.52171  Biso   1.000  C
  N121     1.0000 0.88361  0.40538  0.85263  Biso   1.000  N
  H789     1.0000 0.90159  0.36841  0.83580  Biso   1.000  H
  C898     1.0000 0.93225  0.39089  0.86193  Biso   1.000  C
  H790     1.0000 0.93909  0.37299  0.78839  Biso   1.000  H
  H791     1.0000 0.95270  0.40420  0.78381  Biso   1.000  H
  C899     1.0000 0.96448  0.38577  0.82176  Biso   1.000  C
  N122     1.0000 0.69839  0.54592  0.91686  Biso   1.000  N
  H792     1.0000 0.67770  0.56911  0.88450  Biso   1.000  H
  C900     1.0000 0.70430  0.59477  0.90827  Biso   1.000  C
  H793     1.0000 0.62641  0.60629  0.92480  Biso   1.000  H
  H794     1.0000 0.63230  0.59539  0.89299  Biso   1.000  H
  C901     1.0000 0.66165  0.62746  0.90573  Biso   1.000  C
  H795     1.0000 0.57521  0.37359  0.10630  Biso   1.000  H
  H796     1.0000 0.60700  0.36770  0.09540  Biso   1.000  H
  C902     1.0000 0.59428  0.33835  0.12745  Biso   1.000  C
  N123     1.0000 0.90236  0.22918  0.85015  Biso   1.000  N
  H797     1.0000 0.93250  0.20390  0.82750  Biso   1.000  H
  C903     1.0000 0.95343  0.23840  0.84907  Biso   1.000  C
  C904     1.0000 0.97632  0.24348  0.80386  Biso   1.000  C
  H798     1.0000 0.95181  0.21771  0.78020  Biso   1.000  H
  H799     1.0000 0.95029  0.25050  0.77071  Biso   1.000  H
  C905     1.0000 0.75652  0.30385  0.52369  Biso   1.000  C
  H800     1.0000 0.78229  0.28019  0.54820  Biso   1.000  H
  H801     1.0000 0.74950  0.27070  0.54970  Biso   1.000  H
  N124     1.0000 0.70671  0.10415  0.90438  Biso   1.000  N
  H802     1.0000 0.68190  0.07859  0.92529  Biso   1.000  H
  C906     1.0000 0.70193  0.05568  0.89107  Biso   1.000  C
  C907     1.0000 0.64928  0.03866  0.88448  Biso   1.000  C
  H803     1.0000 0.63021  0.06769  0.91051  Biso   1.000  H
  H804     1.0000 0.62210  0.07170  0.87770  Biso   1.000  H
  C908     1.0000 0.59648  0.31183  0.12235  Biso   1.000  C
  H805     1.0000 0.60610  0.28041  0.09250  Biso   1.000  H
  H806     1.0000 0.57239  0.28710  0.09429  Biso   1.000  H
  H807     1.0000 0.75401  0.34159  0.50381  Biso   1.000  H
  C909     1.0000 0.86436  0.39063  0.85702  Biso   1.000  C
  C910     1.0000 0.96134  0.38447  0.85071  Biso   1.000  C
  H808     1.0000 0.93231  0.41050  0.86980  Biso   1.000  H
  H809     1.0000 0.92830  0.37771  0.87791  Biso   1.000  H
  H810     1.0000 0.98351  0.38259  0.81559  Biso   1.000  H
  C911     1.0000 0.70400  0.52702  0.89675  Biso   1.000  C
  C912     1.0000 0.68817  0.62234  0.90353  Biso   1.000  C
  H811     1.0000 0.71959  0.59249  0.89391  Biso   1.000  H
  H812     1.0000 0.71290  0.59430  0.92759  Biso   1.000  H
  H813     1.0000 0.65421  0.64621  0.90419  Biso   1.000  H
  H814     1.0000 0.59580  0.34579  0.14620  Biso   1.000  H
  C913     1.0000 0.89229  0.20791  0.85990  Biso   1.000  C
  H815     1.0000 0.94679  0.25681  0.85690  Biso   1.000  H
  H816     1.0000 0.95821  0.22579  0.86530  Biso   1.000  H
  C914     1.0000 0.97828  0.24314  0.83258  Biso   1.000  C
  H817     1.0000 0.99311  0.24811  0.79349  Biso   1.000  H
  H818     1.0000 0.75189  0.29350  0.50690  Biso   1.000  H
  C915     1.0000 0.71552  0.11516  0.92764  Biso   1.000  C
  H819     1.0000 0.71159  0.06091  0.87300  Biso   1.000  H
  H820     1.0000 0.71620  0.04730  0.90419  Biso   1.000  H
  C916     1.0000 0.67823  0.03552  0.88576  Biso   1.000  C
  H821     1.0000 0.63699  0.02319  0.87981  Biso   1.000  H
  H822     1.0000 0.60190  0.30039  0.13820  Biso   1.000  H
  C917     1.0000 0.83597  0.40196  0.87392  Biso   1.000  C
  H823     1.0000 0.86500  0.37139  0.85071  Biso   1.000  H
  H824     1.0000 0.97681  0.37980  0.86300  Biso   1.000  H
  C918     1.0000 0.72032  0.50069  0.90411  Biso   1.000  C
  H825     1.0000 0.69771  0.53020  0.87770  Biso   1.000  H
  H826     1.0000 0.69961  0.63821  0.89809  Biso   1.000  H
  C919     1.0000 0.86671  0.20388  0.87996  Biso   1.000  C
  H827     1.0000 0.90159  0.19081  0.85440  Biso   1.000  H
  H828     1.0000 0.99620  0.24599  0.84160  Biso   1.000  H
  C920     1.0000 0.73856  0.13933  0.92945  Biso   1.000  C
  H829     1.0000 0.70761  0.10831  0.94500  Biso   1.000  H
  H830     1.0000 0.68439  0.01649  0.88260  Biso   1.000  H
  C921     1.0000 0.81538  0.38091  0.88201  Biso   1.000  C
  C922     1.0000 0.83087  0.42784  0.87996  Biso   1.000  C
  C923     1.0000 0.72870  0.48198  0.88305  Biso   1.000  C
  C924     1.0000 0.72544  0.49212  0.93152  Biso   1.000  C
  C925     1.0000 0.85675  0.18061  0.89222  Biso   1.000  C
  C926     1.0000 0.85214  0.23014  0.88591  Biso   1.000  C
  C927     1.0000 0.74991  0.14818  0.95345  Biso   1.000  C
  C928     1.0000 0.74788  0.15238  0.90741  Biso   1.000  C
  C929     1.0000 0.79125  0.38816  0.89677  Biso   1.000  C
  H831     1.0000 0.81850  0.36149  0.87699  Biso   1.000  H
  H832     1.0000 0.84369  0.44220  0.87349  Biso   1.000  H
  C930     1.0000 0.80887  0.43520  0.89451  Biso   1.000  C
  C931     1.0000 0.74321  0.45606  0.88747  Biso   1.000  C
  H833     1.0000 0.72431  0.48700  0.86389  Biso   1.000  H
  H834     1.0000 0.71821  0.50300  0.94701  Biso   1.000  H
  C932     1.0000 0.74155  0.46690  0.93705  Biso   1.000  C
  C933     1.0000 0.83383  0.18234  0.90910  Biso   1.000  C
  H835     1.0000 0.86579  0.16279  0.88911  Biso   1.000  H
  H836     1.0000 0.85890  0.24770  0.87829  Biso   1.000  H
  C934     1.0000 0.82967  0.22946  0.90178  Biso   1.000  C
  C935     1.0000 0.76668  0.17024  0.95767  Biso   1.000  C
  H837     1.0000 0.74541  0.13730  0.96990  Biso   1.000  H
  H838     1.0000 0.74099  0.14609  0.88941  Biso   1.000  H
  C936     1.0000 0.76747  0.17521  0.90743  Biso   1.000  C
  C937     1.0000 0.78953  0.41632  0.90304  Biso   1.000  C
  H839     1.0000 0.77700  0.37470  0.90210  Biso   1.000  H
  H840     1.0000 0.80629  0.45470  0.89931  Biso   1.000  H
  C938     1.0000 0.75029  0.44990  0.91503  Biso   1.000  C
  H841     1.0000 0.74780  0.44361  0.87219  Biso   1.000  H
  H842     1.0000 0.74620  0.46191  0.95610  Biso   1.000  H
  C939     1.0000 0.82125  0.20493  0.91575  Biso   1.000  C
  H843     1.0000 0.82650  0.16499  0.91669  Biso   1.000  H
  H844     1.0000 0.81860  0.24629  0.90389  Biso   1.000  H
  C940     1.0000 0.77623  0.18409  0.93323  Biso   1.000  C
  H845     1.0000 0.77201  0.17630  0.97630  Biso   1.000  H
  H846     1.0000 0.77399  0.18381  0.89030  Biso   1.000  H
  N125     1.0000 0.76425  0.42519  0.92183  Biso   1.000  N
  N126     1.0000 0.79763  0.20631  0.93700  Biso   1.000  N
  C941     1.0000 0.75817  0.40855  0.94690  Biso   1.000  C
  C942     1.0000 0.79714  0.22453  0.95851  Biso   1.000  C
  C943     1.0000 0.73175  0.40307  0.95462  Biso   1.000  C
  C944     1.0000 0.78097  0.39622  0.96154  Biso   1.000  C
  C945     1.0000 0.82016  0.23812  0.96949  Biso   1.000  C
  C946     1.0000 0.77028  0.23300  0.96830  Biso   1.000  C
  H847     1.0000 0.71639  0.41050  0.94359  Biso   1.000  H
  C947     1.0000 0.72599  0.38707  0.97775  Biso   1.000  C
  C948     1.0000 0.77493  0.38127  0.98543  Biso   1.000  C
  H848     1.0000 0.80000  0.39829  0.95490  Biso   1.000  H
  H849     1.0000 0.83840  0.23460  0.96130  Biso   1.000  H
  C949     1.0000 0.81824  0.25643  0.99155  Biso   1.000  C
  C950     1.0000 0.76855  0.25299  0.99266  Biso   1.000  C
  H850     1.0000 0.75341  0.22601  0.95940  Biso   1.000  H
  H851     1.0000 0.70679  0.38330  0.98281  Biso   1.000  H
  C951     1.0000 0.74893  0.37568  0.99486  Biso   1.000  C
  H852     1.0000 0.79051  0.37421  0.99631  Biso   1.000  H
  H853     1.0000 0.83490  0.26419  0.00011  Biso   1.000  H
  C952     1.0000 0.79187  0.26342  0.00130  Biso   1.000  C
  H854     1.0000 0.75089  0.25771  0.00130  Biso   1.000  H
  C953     1.0000 0.74059  0.35744  0.01877  Biso   1.000  C
  C954     1.0000 0.78865  0.28361  0.03023  Biso   1.000  C
  N127     1.0000 0.75977  0.35014  0.03593  Biso   1.000  N
  H855     1.0000 0.72141  0.35140  0.02121  Biso   1.000  H
  N128     1.0000 0.76373  0.28811  0.04000  Biso   1.000  N
  H856     1.0000 0.80499  0.29161  0.03921  Biso   1.000  H
  C955     1.0000 0.74765  0.33412  0.05999  Biso   1.000  C
  C956     1.0000 0.76738  0.30733  0.06492  Biso   1.000  C
  H857     1.0000 0.72770  0.32800  0.05559  Biso   1.000  H
  C957     1.0000 0.74829  0.35260  0.08768  Biso   1.000  C
  H858     1.0000 0.78780  0.31260  0.06839  Biso   1.000  H
  C958     1.0000 0.75279  0.28951  0.09205  Biso   1.000  C
  H859     1.0000 0.76689  0.36230  0.08949  Biso   1.000  H
  H860     1.0000 0.73310  0.36730  0.08689  Biso   1.000  H
  C959     1.0000 0.74394  0.33463  0.11081  Biso   1.000  C
  C960     1.0000 0.74978  0.30871  0.11514  Biso   1.000  C
  H861     1.0000 0.73391  0.28190  0.08640  Biso   1.000  H
  H862     1.0000 0.76521  0.27330  0.09760  Biso   1.000  H
  H863     1.0000 0.73470  0.34359  0.12651  Biso   1.000  H
  H864     1.0000 0.75219  0.30199  0.13410  Biso   1.000  H
  C961     1.0000 0.56777  0.60911  0.36192  Biso   1.000  C
  C962     1.0000 0.53865  0.61553  0.35072  Biso   1.000  C
  C963     1.0000 0.59290  0.61146  0.33995  Biso   1.000  C
  H865     1.0000 0.56770  0.58950  0.36979  Biso   1.000  H
  H866     1.0000 0.57169  0.62229  0.37790  Biso   1.000  H
  C964     1.0000 0.53551  0.61423  0.32177  Biso   1.000  C
  H867     1.0000 0.52320  0.62020  0.36301  Biso   1.000  H
  C965     1.0000 0.58293  0.59490  0.31296  Biso   1.000  C
  N129     1.0000 0.61638  0.59462  0.35264  Biso   1.000  N
  H868     1.0000 0.59840  0.63159  0.33581  Biso   1.000  H
  C966     1.0000 0.55569  0.60894  0.29807  Biso   1.000  C
  H869     1.0000 0.51650  0.61741  0.31561  Biso   1.000  H
  N130     1.0000 0.60416  0.59561  0.29329  Biso   1.000  N
  H870     1.0000 0.57860  0.57470  0.31810  Biso   1.000  H
  C967     1.0000 0.63565  0.60937  0.35703  Biso   1.000  C
  H871     1.0000 0.56090  0.62701  0.28841  Biso   1.000  H
  H872     1.0000 0.54731  0.59580  0.28380  Biso   1.000  H
  C968     1.0000 0.61515  0.57235  0.28448  Biso   1.000  C
  C969     1.0000 0.66402  0.59804  0.37393  Biso   1.000  C
  H873     1.0000 0.63501  0.62861  0.35070  Biso   1.000  H
  C970     1.0000 0.63932  0.57054  0.26144  Biso   1.000  C
  H874     1.0000 0.60830  0.55501  0.29239  Biso   1.000  H
  C971     1.0000 0.68461  0.61909  0.38202  Biso   1.000  C
  C972     1.0000 0.66912  0.57216  0.37995  Biso   1.000  C
  C973     1.0000 0.64819  0.54654  0.25009  Biso   1.000  C
  C974     1.0000 0.65237  0.59258  0.25212  Biso   1.000  C
  C975     1.0000 0.70876  0.61184  0.39678  Biso   1.000  C
  H875     1.0000 0.68149  0.63851  0.37700  Biso   1.000  H
  H876     1.0000 0.65630  0.55780  0.37350  Biso   1.000  H
  C976     1.0000 0.69114  0.56480  0.39450  Biso   1.000  C
  C977     1.0000 0.67023  0.54234  0.23332  Biso   1.000  C
  H877     1.0000 0.63729  0.53009  0.25459  Biso   1.000  H
  H878     1.0000 0.64610  0.61060  0.25901  Biso   1.000  H
  C978     1.0000 0.67522  0.59255  0.23253  Biso   1.000  C
  C979     1.0000 0.71046  0.58368  0.40303  Biso   1.000  C
  H879     1.0000 0.72301  0.62530  0.40209  Biso   1.000  H
  H880     1.0000 0.69370  0.54530  0.39930  Biso   1.000  H
  C980     1.0000 0.68410  0.56676  0.22377  Biso   1.000  C
  H881     1.0000 0.67631  0.52369  0.22801  Biso   1.000  H
  H882     1.0000 0.68380  0.60971  0.22601  Biso   1.000  H
  N131     1.0000 0.73574  0.57481  0.42185  Biso   1.000  N
  N132     1.0000 0.70633  0.56301  0.20237  Biso   1.000  N
  C981     1.0000 0.74182  0.59145  0.44691  Biso   1.000  C
  C982     1.0000 0.74972  0.55010  0.41504  Biso   1.000  C
  C983     1.0000 0.70492  0.58426  0.17875  Biso   1.000  C
  C984     1.0000 0.72454  0.54148  0.20286  Biso   1.000  C
  C985     1.0000 0.76826  0.59693  0.45461  Biso   1.000  C
  C986     1.0000 0.71902  0.60378  0.46153  Biso   1.000  C
  C987     1.0000 0.75680  0.54394  0.38748  Biso   1.000  C
  C988     1.0000 0.75844  0.53310  0.43703  Biso   1.000  C
  C989     1.0000 0.68233  0.59089  0.16617  Biso   1.000  C
  C990     1.0000 0.72945  0.59823  0.17033  Biso   1.000  C
  C991     1.0000 0.73813  0.53052  0.17984  Biso   1.000  C
  C992     1.0000 0.73299  0.53171  0.22972  Biso   1.000  C
  H883     1.0000 0.78359  0.58950  0.44361  Biso   1.000  H
  C993     1.0000 0.77399  0.61293  0.47774  Biso   1.000  C
  C994     1.0000 0.72508  0.61873  0.48544  Biso   1.000  C
  H884     1.0000 0.69999  0.60171  0.45489  Biso   1.000  H
  H885     1.0000 0.75219  0.55639  0.37220  Biso   1.000  H
  C995     1.0000 0.77129  0.51802  0.38304  Biso   1.000  C
  C996     1.0000 0.77457  0.50788  0.43153  Biso   1.000  C
  H886     1.0000 0.75379  0.53809  0.45611  Biso   1.000  H
  H887     1.0000 0.66500  0.58330  0.17350  Biso   1.000  H
  C997     1.0000 0.68062  0.60779  0.14325  Biso   1.000  C
  C998     1.0000 0.73015  0.61408  0.14786  Biso   1.000  C
  H888     1.0000 0.74630  0.59610  0.18140  Biso   1.000  H
  H889     1.0000 0.73459  0.53871  0.16160  Biso   1.000  H
  C999     1.0000 0.75644  0.50846  0.18176  Biso   1.000  C
  C1000    1.0000 0.75298  0.50735  0.23145  Biso   1.000  C
  H890     1.0000 0.72599  0.54061  0.24659  Biso   1.000  H
  H891     1.0000 0.79319  0.61670  0.48279  Biso   1.000  H
  C1001    1.0000 0.75108  0.62432  0.49487  Biso   1.000  C
  H892     1.0000 0.70950  0.62579  0.49630  Biso   1.000  H
  H893     1.0000 0.77570  0.51300  0.36390  Biso   1.000  H
  C1002    1.0000 0.77967  0.49931  0.40412  Biso   1.000  C
  H894     1.0000 0.78180  0.49700  0.44700  Biso   1.000  H
  H895     1.0000 0.66281  0.61090  0.13421  Biso   1.000  H
  C1003    1.0000 0.70387  0.62003  0.13329  Biso   1.000  C
  H896     1.0000 0.74769  0.62170  0.14110  Biso   1.000  H
  H897     1.0000 0.76420  0.49990  0.16510  Biso   1.000  H
  C1004    1.0000 0.76343  0.49869  0.20813  Biso   1.000  C
  H898     1.0000 0.75770  0.49871  0.24911  Biso   1.000  H
  C1005    1.0000 0.75940  0.64256  0.51876  Biso   1.000  C
  C1006    1.0000 0.79599  0.47298  0.39674  Biso   1.000  C
  C1007    1.0000 0.70793  0.64011  0.10771  Biso   1.000  C
  C1008    1.0000 0.78359  0.46978  0.21135  Biso   1.000  C
  N133     1.0000 0.74025  0.64986  0.53591  Biso   1.000  N
  H899     1.0000 0.77860  0.64860  0.52119  Biso   1.000  H
  N134     1.0000 0.80162  0.45408  0.41685  Biso   1.000  N
  H900     1.0000 0.80230  0.46980  0.37771  Biso   1.000  H
  N135     1.0000 0.72917  0.64983  0.09764  Biso   1.000  N
  H901     1.0000 0.69079  0.64559  0.09839  Biso   1.000  H
  N136     1.0000 0.78812  0.45999  0.23627  Biso   1.000  N
  H902     1.0000 0.79159  0.46080  0.19501  Biso   1.000  H
  C1009    1.0000 0.75236  0.66588  0.56000  Biso   1.000  C
  C1010    1.0000 0.81743  0.42801  0.40512  Biso   1.000  C
  C1011    1.0000 0.72459  0.66859  0.07110  Biso   1.000  C
  C1012    1.0000 0.80732  0.43509  0.23262  Biso   1.000  C
  C1013    1.0000 0.73263  0.69267  0.56491  Biso   1.000  C
  H903     1.0000 0.77231  0.67200  0.55561  Biso   1.000  H
  C1014    1.0000 0.75172  0.64740  0.58767  Biso   1.000  C
  H904     1.0000 0.82229  0.43089  0.38449  Biso   1.000  H
  C1015    1.0000 0.84363  0.42251  0.42195  Biso   1.000  C
  C1016    1.0000 0.79571  0.40523  0.40826  Biso   1.000  C
  C1017    1.0000 0.74131  0.69525  0.07541  Biso   1.000  C
  H905     1.0000 0.70389  0.67249  0.06750  Biso   1.000  H
  C1018    1.0000 0.73839  0.65092  0.04655  Biso   1.000  C
  H906     1.0000 0.81261  0.43159  0.21220  Biso   1.000  H
  C1019    1.0000 0.83413  0.44000  0.25235  Biso   1.000  C
  C1020    1.0000 0.78953  0.40796  0.24721  Biso   1.000  C
  N137     1.0000 0.73626  0.71189  0.53999  Biso   1.000  N
  H907     1.0000 0.71219  0.68740  0.56841  Biso   1.000  H
  C1021    1.0000 0.74722  0.71049  0.59204  Biso   1.000  C
  H908     1.0000 0.73310  0.63770  0.58950  Biso   1.000  H
  H909     1.0000 0.76689  0.63270  0.58690  Biso   1.000  H
  C1022    1.0000 0.75607  0.66537  0.61079  Biso   1.000  C
  N138     1.0000 0.86240  0.44734  0.42012  Biso   1.000  N
  H910     1.0000 0.83840  0.41890  0.44230  Biso   1.000  H
  C1023    1.0000 0.85841  0.39913  0.41116  Biso   1.000  C
  C1024    1.0000 0.81184  0.37766  0.40352  Biso   1.000  C
  H911     1.0000 0.78039  0.40751  0.39390  Biso   1.000  H
  H912     1.0000 0.78709  0.40570  0.42761  Biso   1.000  H
  N139     1.0000 0.72858  0.71061  0.09954  Biso   1.000  N
  H913     1.0000 0.76190  0.69101  0.07900  Biso   1.000  H
  C1025    1.0000 0.73756  0.71262  0.04902  Biso   1.000  C
  H914     1.0000 0.75680  0.64309  0.05321  Biso   1.000  H
  H915     1.0000 0.72580  0.63471  0.04179  Biso   1.000  H
  C1026    1.0000 0.74315  0.66743  0.02172  Biso   1.000  C
  N140     1.0000 0.85015  0.46409  0.24023  Biso   1.000  N
  H916     1.0000 0.82799  0.44439  0.27230  Biso   1.000  H
  C1027    1.0000 0.85259  0.41233  0.25171  Biso   1.000  C
  C1028    1.0000 0.80873  0.38485  0.25022  Biso   1.000  C
  H917     1.0000 0.78191  0.41361  0.26609  Biso   1.000  H
  H918     1.0000 0.77329  0.40241  0.23479  Biso   1.000  H
  C1029    1.0000 0.71136  0.71639  0.53022  Biso   1.000  C
  C1030    1.0000 0.75023  0.69129  0.61515  Biso   1.000  C
  H919     1.0000 0.76610  0.71810  0.58641  Biso   1.000  H
  H920     1.0000 0.73481  0.72670  0.59759  Biso   1.000  H
  H921     1.0000 0.76529  0.65641  0.62650  Biso   1.000  H
  C1031    1.0000 0.87196  0.45641  0.44540  Biso   1.000  C
  H922     1.0000 0.87360  0.39371  0.42479  Biso   1.000  H
  H923     1.0000 0.86769  0.40461  0.39300  Biso   1.000  H
  C1032    1.0000 0.83836  0.37254  0.40572  Biso   1.000  C
  H924     1.0000 0.80041  0.36179  0.39810  Biso   1.000  H
  C1033    1.0000 0.74276  0.71731  0.11998  Biso   1.000  C
  C1034    1.0000 0.74349  0.69615  0.02368  Biso   1.000  C
  H925     1.0000 0.71770  0.71981  0.04819  Biso   1.000  H
  H926     1.0000 0.75051  0.72930  0.04971  Biso   1.000  H
  H927     1.0000 0.74601  0.65841  0.00380  Biso   1.000  H
  C1035    1.0000 0.85745  0.48124  0.25941  Biso   1.000  C
  H928     1.0000 0.86229  0.41050  0.23311  Biso   1.000  H
  H929     1.0000 0.86731  0.41310  0.26690  Biso   1.000  H
  C1036    1.0000 0.83462  0.38921  0.25606  Biso   1.000  C
  H930     1.0000 0.80201  0.36591  0.24781  Biso   1.000  H
  C1037    1.0000 0.70814  0.73658  0.50131  Biso   1.000  C
  H931     1.0000 0.69500  0.70839  0.53920  Biso   1.000  H
  H932     1.0000 0.74780  0.69801  0.63409  Biso   1.000  H
  C1038    1.0000 0.89293  0.48192  0.44815  Biso   1.000  C
  H933     1.0000 0.86579  0.44689  0.46221  Biso   1.000  H
  H934     1.0000 0.84580  0.35379  0.40420  Biso   1.000  H
  C1039    1.0000 0.73801  0.73193  0.14494  Biso   1.000  C
  H935     1.0000 0.76190  0.71089  0.11840  Biso   1.000  H
  H936     1.0000 0.74810  0.70650  0.00689  Biso   1.000  H
  C1040    1.0000 0.87569  0.50513  0.25107  Biso   1.000  C
  H937     1.0000 0.85139  0.47881  0.27859  Biso   1.000  H
  H938     1.0000 0.84361  0.37350  0.26530  Biso   1.000  H
  C1041    1.0000 0.68177  0.74357  0.49154  Biso   1.000  C
  C1042    1.0000 0.73146  0.74701  0.49265  Biso   1.000  C
  C1043    1.0000 0.90121  0.49557  0.42317  Biso   1.000  C
  C1044    1.0000 0.90246  0.49244  0.47422  Biso   1.000  C
  C1045    1.0000 0.70982  0.74150  0.15185  Biso   1.000  C
  C1046    1.0000 0.75742  0.73958  0.16446  Biso   1.000  C
  C1047    1.0000 0.88708  0.52226  0.27401  Biso   1.000  C
  C1048    1.0000 0.88128  0.51456  0.22507  Biso   1.000  C
  C1049    1.0000 0.67983  0.76188  0.46948  Biso   1.000  C
  H939     1.0000 0.66511  0.73581  0.50010  Biso   1.000  H
  H940     1.0000 0.74910  0.74229  0.50129  Biso   1.000  H
  C1050    1.0000 0.72973  0.76700  0.46829  Biso   1.000  C
  C1051    1.0000 0.92265  0.51733  0.42530  Biso   1.000  C
  H941     1.0000 0.89299  0.49071  0.40529  Biso   1.000  H
  H942     1.0000 0.89440  0.48491  0.49120  Biso   1.000  H
  C1052    1.0000 0.92324  0.51339  0.47646  Biso   1.000  C
  C1053    1.0000 0.70402  0.75721  0.17487  Biso   1.000  C
  H943     1.0000 0.69459  0.73649  0.13950  Biso   1.000  H
  H944     1.0000 0.77630  0.73269  0.16190  Biso   1.000  H
  C1054    1.0000 0.75253  0.75680  0.18831  Biso   1.000  C
  C1055    1.0000 0.90306  0.54539  0.26825  Biso   1.000  C
  H945     1.0000 0.88331  0.51721  0.29321  Biso   1.000  H
  H946     1.0000 0.87420  0.50370  0.20949  Biso   1.000  H
  C1056    1.0000 0.89621  0.53847  0.21903  Biso   1.000  C
  C1057    1.0000 0.70285  0.77547  0.45852  Biso   1.000  C
  H947     1.0000 0.66159  0.76540  0.46129  Biso   1.000  H
  H948     1.0000 0.74660  0.77399  0.45939  Biso   1.000  H
  C1058    1.0000 0.93291  0.52700  0.45150  Biso   1.000  C
  H949     1.0000 0.93009  0.52540  0.40830  Biso   1.000  H
  H950     1.0000 0.93079  0.51851  0.49459  Biso   1.000  H
  C1059    1.0000 0.72704  0.76446  0.19409  Biso   1.000  C
  H951     1.0000 0.68510  0.76350  0.17860  Biso   1.000  H
  H952     1.0000 0.76800  0.76271  0.20000  Biso   1.000  H
  C1060    1.0000 0.90857  0.55309  0.24183  Biso   1.000  C
  H953     1.0000 0.91051  0.55639  0.28361  Biso   1.000  H
  H954     1.0000 0.89830  0.54511  0.20000  Biso   1.000  H
  N141     1.0000 0.70238  0.79369  0.43699  Biso   1.000  N
  N142     1.0000 0.95343  0.54658  0.45342  Biso   1.000  N
  N143     1.0000 0.71851  0.78148  0.21852  Biso   1.000  N
  N144     1.0000 0.92521  0.57815  0.23575  Biso   1.000  N
  C1061    1.0000 0.67876  0.79507  0.41574  Biso   1.000  C
  C1062    1.0000 0.72378  0.81591  0.43324  Biso   1.000  C
  C1063    1.0000 0.95149  0.56708  0.47300  Biso   1.000  C
  C1064    1.0000 0.97299  0.54850  0.43292  Biso   1.000  C
  C1065    1.0000 0.69408  0.77297  0.23554  Biso   1.000  C
  C1066    1.0000 0.73555  0.80591  0.22705  Biso   1.000  C
  C1067    1.0000 0.91633  0.59697  0.21047  Biso   1.000  C
  C1068    1.0000 0.94989  0.58496  0.24971  Biso   1.000  C
  C1069    1.0000 0.66618  0.81766  0.40911  Biso   1.000  C
  C1070    1.0000 0.67034  0.77054  0.40177  Biso   1.000  C
  C1071    1.0000 0.73333  0.82976  0.45766  Biso   1.000  C
  C1072    1.0000 0.73254  0.82479  0.40745  Biso   1.000  C
  C1073    1.0000 0.92529  0.57734  0.48267  Biso   1.000  C
  C1074    1.0000 0.97647  0.57677  0.48661  Biso   1.000  C
  C1075    1.0000 0.98268  0.57470  0.42266  Biso   1.000  C
  C1076    1.0000 0.98660  0.52354  0.42323  Biso   1.000  C
  C1077    1.0000 0.67488  0.79599  0.24279  Biso   1.000  C
  C1078    1.0000 0.68830  0.74748  0.24320  Biso   1.000  C
  C1079    1.0000 0.74281  0.82513  0.20401  Biso   1.000  C
  C1080    1.0000 0.74319  0.81169  0.25252  Biso   1.000  C
  C1081    1.0000 0.88817  0.60322  0.20875  Biso   1.000  C
  C1082    1.0000 0.93521  0.60550  0.19113  Biso   1.000  C
  C1083    1.0000 0.95607  0.61252  0.25679  Biso   1.000  C
  C1084    1.0000 0.96689  0.56297  0.25845  Biso   1.000  C
  H955     1.0000 0.67349  0.83501  0.41670  Biso   1.000  H
  C1085    1.0000 0.64324  0.81939  0.39221  Biso   1.000  C
  C1086    1.0000 0.64785  0.76986  0.38592  Biso   1.000  C
  H956     1.0000 0.68141  0.75371  0.40390  Biso   1.000  H
  H957     1.0000 0.72800  0.82370  0.47631  Biso   1.000  H
  C1087    1.0000 0.75008  0.85182  0.45346  Biso   1.000  C
  C1088    1.0000 0.75213  0.84762  0.40742  Biso   1.000  C
  H958     1.0000 0.72599  0.81619  0.39029  Biso   1.000  H
  H959     1.0000 0.90831  0.56990  0.47460  Biso   1.000  H
  C1089    1.0000 0.92318  0.59881  0.50443  Biso   1.000  C
  C1090    1.0000 0.97423  0.59753  0.50756  Biso   1.000  C
  H960     1.0000 0.99460  0.56919  0.48149  Biso   1.000  H
  H961     1.0000 0.97459  0.59170  0.43010  Biso   1.000  H
  C1091    1.0000 0.00442  0.57683  0.40119  Biso   1.000  C
  H962     1.0000 0.98150  0.50541  0.43081  Biso   1.000  H
  C1092    1.0000 0.00755  0.52578  0.40247  Biso   1.000  C
  H963     1.0000 0.67859  0.81489  0.23650  Biso   1.000  H
  C1093    1.0000 0.65184  0.79019  0.25850  Biso   1.000  C
  C1094    1.0000 0.66447  0.74259  0.26042  Biso   1.000  C
  H964     1.0000 0.69999  0.73199  0.23729  Biso   1.000  H
  H965     1.0000 0.73649  0.82140  0.18511  Biso   1.000  H
  C1095    1.0000 0.75849  0.84815  0.20981  Biso   1.000  C
  C1096    1.0000 0.76041  0.83554  0.25741  Biso   1.000  C
  H966     1.0000 0.73730  0.80000  0.26799  Biso   1.000  H
  H967     1.0000 0.87471  0.59791  0.22300  Biso   1.000  H
  C1097    1.0000 0.88090  0.61798  0.18462  Biso   1.000  C
  C1098    1.0000 0.92783  0.62005  0.16913  Biso   1.000  C
  H968     1.0000 0.95471  0.60070  0.19371  Biso   1.000  H
  H969     1.0000 0.94359  0.62780  0.25220  Biso   1.000  H
  C1099    1.0000 0.98197  0.61696  0.27130  Biso   1.000  C
  C1100    1.0000 0.99213  0.56847  0.27456  Biso   1.000  C
  H970     1.0000 0.96190  0.54389  0.25380  Biso   1.000  H
  H971     1.0000 0.63420  0.83721  0.38910  Biso   1.000  H
  C1101    1.0000 0.63328  0.79612  0.37997  Biso   1.000  C
  H972     1.0000 0.64111  0.75230  0.37830  Biso   1.000  H
  H973     1.0000 0.75460  0.86270  0.46991  Biso   1.000  H
  C1102    1.0000 0.76145  0.86067  0.42946  Biso   1.000  C
  H974     1.0000 0.75900  0.85391  0.38940  Biso   1.000  H
  H975     1.0000 0.90530  0.60700  0.50929  Biso   1.000  H
  C1103    1.0000 0.94816  0.60706  0.51808  Biso   1.000  C
  H976     1.0000 0.99119  0.60561  0.51509  Biso   1.000  H
  H977     1.0000 0.00930  0.59471  0.39300  Biso   1.000  H
  C1104    1.0000 0.01807  0.55185  0.39294  Biso   1.000  C
  H978     1.0000 0.01510  0.50880  0.39439  Biso   1.000  H
  H979     1.0000 0.63951  0.80540  0.26351  Biso   1.000  H
  C1105    1.0000 0.64493  0.76198  0.26807  Biso   1.000  C
  H980     1.0000 0.66191  0.72369  0.26731  Biso   1.000  H
  H981     1.0000 0.76350  0.86050  0.19460  Biso   1.000  H
  C1106    1.0000 0.76806  0.85506  0.23802  Biso   1.000  C
  H982     1.0000 0.76730  0.83810  0.27631  Biso   1.000  H
  H983     1.0000 0.86150  0.62300  0.18150  Biso   1.000  H
  C1107    1.0000 0.90197  0.62607  0.16403  Biso   1.000  C
  H984     1.0000 0.94221  0.62650  0.15631  Biso   1.000  H
  H985     1.0000 0.98701  0.63610  0.27569  Biso   1.000  H
  C1108    1.0000 0.00068  0.59588  0.27968  Biso   1.000  C
  H986     1.0000 0.00301  0.55300  0.28179  Biso   1.000  H
  C1109    1.0000 0.60770  0.79209  0.35989  Biso   1.000  C
  C1110    1.0000 0.78449  0.88484  0.42765  Biso   1.000  C
  C1111    1.0000 0.94541  0.62803  0.54359  Biso   1.000  C
  C1112    1.0000 0.04361  0.55460  0.37197  Biso   1.000  C
  C1113    1.0000 0.61999  0.75725  0.28269  Biso   1.000  C
  C1114    1.0000 0.78268  0.88002  0.24275  Biso   1.000  C
  C1115    1.0000 0.89062  0.64297  0.13564  Biso   1.000  C
  C1116    1.0000 0.02703  0.60326  0.29600  Biso   1.000  C
  N145     1.0000 0.59765  0.77082  0.35017  Biso   1.000  N
  H987     1.0000 0.59840  0.80919  0.35441  Biso   1.000  H
  N146     1.0000 0.79330  0.89585  0.40439  Biso   1.000  N
  H988     1.0000 0.79241  0.89169  0.44499  Biso   1.000  H
  N147     1.0000 0.92013  0.63759  0.55266  Biso   1.000  N
  H989     1.0000 0.96220  0.63420  0.55311  Biso   1.000  H
  N148     1.0000 0.05267  0.57988  0.36241  Biso   1.000  N
  H990     1.0000 0.05310  0.53779  0.36580  Biso   1.000  H
  N149     1.0000 0.59953  0.77143  0.28939  Biso   1.000  N
  H991     1.0000 0.61841  0.73809  0.28911  Biso   1.000  H
  N150     1.0000 0.78938  0.90046  0.22857  Biso   1.000  N
  H992     1.0000 0.78910  0.88160  0.26191  Biso   1.000  H
  N151     1.0000 0.90537  0.64736  0.11639  Biso   1.000  N
  H993     1.0000 0.87140  0.64930  0.13500  Biso   1.000  H
  N152     1.0000 0.04593  0.58315  0.30161  Biso   1.000  N
  H994     1.0000 0.03021  0.62229  0.30229  Biso   1.000  H
  C1117    1.0000 0.57109  0.77542  0.33141  Biso   1.000  C
  C1118    1.0000 0.81295  0.91706  0.40510  Biso   1.000  C
  C1119    1.0000 0.92196  0.65638  0.57749  Biso   1.000  C
  C1120    1.0000 0.07750  0.57805  0.34362  Biso   1.000  C
  C1121    1.0000 0.57542  0.75868  0.30475  Biso   1.000  C
  C1122    1.0000 0.80474  0.92459  0.24132  Biso   1.000  C
  C1123    1.0000 0.88855  0.66005  0.09289  Biso   1.000  C
  C1124    1.0000 0.07200  0.59488  0.31744  Biso   1.000  C
  H995     1.0000 0.56751  0.79610  0.32751  Biso   1.000  H
  C1125    1.0000 0.54656  0.76160  0.34908  Biso   1.000  C
  C1126    1.0000 0.83994  0.90711  0.38854  Biso   1.000  C
  H996     1.0000 0.81809  0.92141  0.42530  Biso   1.000  H
  C1127    1.0000 0.79806  0.94432  0.39106  Biso   1.000  C
  C1128    1.0000 0.90513  0.68256  0.57199  Biso   1.000  C
  H997     1.0000 0.94229  0.66159  0.58110  Biso   1.000  H
  C1129    1.0000 0.91115  0.64160  0.60087  Biso   1.000  C
  H998     1.0000 0.08111  0.55770  0.33839  Biso   1.000  H
  C1130    1.0000 0.10086  0.58884  0.35840  Biso   1.000  C
  H999     1.0000 0.57901  0.73809  0.30899  Biso   1.000  H
  C1131    1.0000 0.54901  0.76245  0.28738  Biso   1.000  C
  H1000    1.0000 0.80900  0.92100  0.26191  Biso   1.000  H
  C1132    1.0000 0.83142  0.92890  0.22458  Biso   1.000  C
  C1133    1.0000 0.78737  0.95098  0.23755  Biso   1.000  C
  H1001    1.0000 0.86839  0.66419  0.09839  Biso   1.000  H
  C1134    1.0000 0.90511  0.68704  0.08294  Biso   1.000  C
  C1135    1.0000 0.89088  0.63808  0.06775  Biso   1.000  C
  H1002    1.0000 0.06910  0.61551  0.32230  Biso   1.000  H
  C1136    1.0000 0.09478  0.59174  0.29570  Biso   1.000  C
  H1003    1.0000 0.55319  0.74319  0.35691  Biso   1.000  H
  H1004    1.0000 0.54180  0.77421  0.36529  Biso   1.000  H
  C1137    1.0000 0.52171  0.75686  0.33257  Biso   1.000  C
  N153     1.0000 0.85263  0.88361  0.40538  Biso   1.000  N
  H1005    1.0000 0.83580  0.90159  0.36841  Biso   1.000  H
  C1138    1.0000 0.86193  0.93225  0.39089  Biso   1.000  C
  H1006    1.0000 0.78839  0.93909  0.37299  Biso   1.000  H
  H1007    1.0000 0.78381  0.95270  0.40420  Biso   1.000  H
  C1139    1.0000 0.82176  0.96448  0.38577  Biso   1.000  C
  N154     1.0000 0.91686  0.69839  0.54592  Biso   1.000  N
  H1008    1.0000 0.88450  0.67770  0.56911  Biso   1.000  H
  C1140    1.0000 0.90827  0.70430  0.59477  Biso   1.000  C
  H1009    1.0000 0.92480  0.62641  0.60629  Biso   1.000  H
  H1010    1.0000 0.89299  0.63230  0.59539  Biso   1.000  H
  C1141    1.0000 0.90573  0.66165  0.62746  Biso   1.000  C
  H1011    1.0000 0.10630  0.57521  0.37359  Biso   1.000  H
  H1012    1.0000 0.09540  0.60700  0.36770  Biso   1.000  H
  C1142    1.0000 0.12745  0.59428  0.33835  Biso   1.000  C
  C1143    1.0000 0.52369  0.75652  0.30385  Biso   1.000  C
  H1013    1.0000 0.54820  0.78229  0.28019  Biso   1.000  H
  H1014    1.0000 0.54970  0.74950  0.27070  Biso   1.000  H
  N155     1.0000 0.85015  0.90236  0.22918  Biso   1.000  N
  H1015    1.0000 0.82750  0.93250  0.20390  Biso   1.000  H
  C1144    1.0000 0.84907  0.95343  0.23840  Biso   1.000  C
  C1145    1.0000 0.80386  0.97632  0.24348  Biso   1.000  C
  H1016    1.0000 0.78020  0.95181  0.21771  Biso   1.000  H
  H1017    1.0000 0.77071  0.95029  0.25050  Biso   1.000  H
  N156     1.0000 0.90438  0.70671  0.10415  Biso   1.000  N
  H1018    1.0000 0.92529  0.68190  0.07859  Biso   1.000  H
  C1146    1.0000 0.89107  0.70193  0.05568  Biso   1.000  C
  C1147    1.0000 0.88448  0.64928  0.03866  Biso   1.000  C
  H1019    1.0000 0.91051  0.63021  0.06769  Biso   1.000  H
  H1020    1.0000 0.87770  0.62210  0.07170  Biso   1.000  H
  C1148    1.0000 0.12235  0.59648  0.31183  Biso   1.000  C
  H1021    1.0000 0.09250  0.60610  0.28041  Biso   1.000  H
  H1022    1.0000 0.09429  0.57239  0.28710  Biso   1.000  H
  H1023    1.0000 0.50381  0.75401  0.34159  Biso   1.000  H
  C1149    1.0000 0.85702  0.86436  0.39063  Biso   1.000  C
  C1150    1.0000 0.85071  0.96134  0.38447  Biso   1.000  C
  H1024    1.0000 0.86980  0.93231  0.41050  Biso   1.000  H
  H1025    1.0000 0.87791  0.92830  0.37771  Biso   1.000  H
  H1026    1.0000 0.81559  0.98351  0.38259  Biso   1.000  H
  C1151    1.0000 0.89675  0.70400  0.52702  Biso   1.000  C
  C1152    1.0000 0.90353  0.68817  0.62234  Biso   1.000  C
  H1027    1.0000 0.89391  0.71959  0.59249  Biso   1.000  H
  H1028    1.0000 0.92759  0.71290  0.59430  Biso   1.000  H
  H1029    1.0000 0.90419  0.65421  0.64621  Biso   1.000  H
  H1030    1.0000 0.14620  0.59580  0.34579  Biso   1.000  H
  H1031    1.0000 0.50690  0.75189  0.29350  Biso   1.000  H
  C1153    1.0000 0.85990  0.89229  0.20791  Biso   1.000  C
  H1032    1.0000 0.85690  0.94679  0.25681  Biso   1.000  H
  H1033    1.0000 0.86530  0.95821  0.22579  Biso   1.000  H
  C1154    1.0000 0.83258  0.97828  0.24314  Biso   1.000  C
  H1034    1.0000 0.79349  0.99311  0.24811  Biso   1.000  H
  C1155    1.0000 0.92764  0.71552  0.11516  Biso   1.000  C
  H1035    1.0000 0.87300  0.71159  0.06091  Biso   1.000  H
  H1036    1.0000 0.90419  0.71620  0.04730  Biso   1.000  H
  C1156    1.0000 0.88576  0.67823  0.03552  Biso   1.000  C
  H1037    1.0000 0.87981  0.63699  0.02319  Biso   1.000  H
  H1038    1.0000 0.13820  0.60190  0.30039  Biso   1.000  H
  C1157    1.0000 0.87392  0.83597  0.40196  Biso   1.000  C
  H1039    1.0000 0.85071  0.86500  0.37139  Biso   1.000  H
  H1040    1.0000 0.86300  0.97681  0.37980  Biso   1.000  H
  C1158    1.0000 0.90411  0.72032  0.50069  Biso   1.000  C
  H1041    1.0000 0.87770  0.69771  0.53020  Biso   1.000  H
  H1042    1.0000 0.89809  0.69961  0.63821  Biso   1.000  H
  C1159    1.0000 0.87996  0.86671  0.20388  Biso   1.000  C
  H1043    1.0000 0.85440  0.90159  0.19081  Biso   1.000  H
  H1044    1.0000 0.84160  0.99620  0.24599  Biso   1.000  H
  C1160    1.0000 0.92945  0.73856  0.13933  Biso   1.000  C
  H1045    1.0000 0.94500  0.70761  0.10831  Biso   1.000  H
  H1046    1.0000 0.88260  0.68439  0.01649  Biso   1.000  H
  C1161    1.0000 0.88201  0.81538  0.38091  Biso   1.000  C
  C1162    1.0000 0.87996  0.83087  0.42784  Biso   1.000  C
  C1163    1.0000 0.88305  0.72870  0.48198  Biso   1.000  C
  C1164    1.0000 0.93152  0.72544  0.49212  Biso   1.000  C
  C1165    1.0000 0.89222  0.85675  0.18061  Biso   1.000  C
  C1166    1.0000 0.88591  0.85214  0.23014  Biso   1.000  C
  C1167    1.0000 0.95345  0.74991  0.14818  Biso   1.000  C
  C1168    1.0000 0.90741  0.74788  0.15238  Biso   1.000  C
  C1169    1.0000 0.89677  0.79125  0.38816  Biso   1.000  C
  H1047    1.0000 0.87699  0.81850  0.36149  Biso   1.000  H
  H1048    1.0000 0.87349  0.84369  0.44220  Biso   1.000  H
  C1170    1.0000 0.89451  0.80887  0.43520  Biso   1.000  C
  C1171    1.0000 0.88747  0.74321  0.45606  Biso   1.000  C
  H1049    1.0000 0.86389  0.72431  0.48700  Biso   1.000  H
  H1050    1.0000 0.94701  0.71821  0.50300  Biso   1.000  H
  C1172    1.0000 0.93705  0.74155  0.46690  Biso   1.000  C
  C1173    1.0000 0.90910  0.83383  0.18234  Biso   1.000  C
  H1051    1.0000 0.88911  0.86579  0.16279  Biso   1.000  H
  H1052    1.0000 0.87829  0.85890  0.24770  Biso   1.000  H
  C1174    1.0000 0.90178  0.82967  0.22946  Biso   1.000  C
  C1175    1.0000 0.95767  0.76668  0.17024  Biso   1.000  C
  H1053    1.0000 0.96990  0.74541  0.13730  Biso   1.000  H
  H1054    1.0000 0.88941  0.74099  0.14609  Biso   1.000  H
  C1176    1.0000 0.90743  0.76747  0.17521  Biso   1.000  C
  C1177    1.0000 0.90304  0.78953  0.41632  Biso   1.000  C
  H1055    1.0000 0.90210  0.77700  0.37470  Biso   1.000  H
  H1056    1.0000 0.89931  0.80629  0.45470  Biso   1.000  H
  C1178    1.0000 0.91503  0.75029  0.44990  Biso   1.000  C
  H1057    1.0000 0.87219  0.74780  0.44361  Biso   1.000  H
  H1058    1.0000 0.95610  0.74620  0.46191  Biso   1.000  H
  C1179    1.0000 0.91575  0.82125  0.20493  Biso   1.000  C
  H1059    1.0000 0.91669  0.82650  0.16499  Biso   1.000  H
  H1060    1.0000 0.90389  0.81860  0.24629  Biso   1.000  H
  C1180    1.0000 0.93323  0.77623  0.18409  Biso   1.000  C
  H1061    1.0000 0.97630  0.77201  0.17630  Biso   1.000  H
  H1062    1.0000 0.89030  0.77399  0.18381  Biso   1.000  H
  N157     1.0000 0.92183  0.76425  0.42519  Biso   1.000  N
  N158     1.0000 0.93700  0.79763  0.20631  Biso   1.000  N
  C1181    1.0000 0.94690  0.75817  0.40855  Biso   1.000  C
  C1182    1.0000 0.95851  0.79714  0.22453  Biso   1.000  C
  C1183    1.0000 0.95462  0.73175  0.40307  Biso   1.000  C
  C1184    1.0000 0.96154  0.78097  0.39622  Biso   1.000  C
  C1185    1.0000 0.96949  0.82016  0.23812  Biso   1.000  C
  C1186    1.0000 0.96830  0.77028  0.23300  Biso   1.000  C
  H1063    1.0000 0.94359  0.71639  0.41050  Biso   1.000  H
  C1187    1.0000 0.97775  0.72599  0.38707  Biso   1.000  C
  C1188    1.0000 0.98543  0.77493  0.38127  Biso   1.000  C
  H1064    1.0000 0.95490  0.80000  0.39829  Biso   1.000  H
  H1065    1.0000 0.96130  0.83840  0.23460  Biso   1.000  H
  C1189    1.0000 0.99155  0.81824  0.25643  Biso   1.000  C
  C1190    1.0000 0.99266  0.76855  0.25299  Biso   1.000  C
  H1066    1.0000 0.95940  0.75341  0.22601  Biso   1.000  H
  H1067    1.0000 0.98281  0.70679  0.38330  Biso   1.000  H
  C1191    1.0000 0.99486  0.74893  0.37568  Biso   1.000  C
  H1068    1.0000 0.99631  0.79051  0.37421  Biso   1.000  H
  H1069    1.0000 0.00011  0.83490  0.26419  Biso   1.000  H
  C1192    1.0000 0.00130  0.79187  0.26342  Biso   1.000  C
  H1070    1.0000 0.00130  0.75089  0.25771  Biso   1.000  H
  C1193    1.0000 0.01877  0.74059  0.35744  Biso   1.000  C
  C1194    1.0000 0.03023  0.78865  0.28361  Biso   1.000  C
  N159     1.0000 0.03593  0.75977  0.35014  Biso   1.000  N
  H1071    1.0000 0.02121  0.72141  0.35140  Biso   1.000  H
  N160     1.0000 0.04000  0.76373  0.28811  Biso   1.000  N
  H1072    1.0000 0.03921  0.80499  0.29161  Biso   1.000  H
  C1195    1.0000 0.05999  0.74765  0.33412  Biso   1.000  C
  C1196    1.0000 0.06492  0.76738  0.30733  Biso   1.000  C
  H1073    1.0000 0.05559  0.72770  0.32800  Biso   1.000  H
  C1197    1.0000 0.08768  0.74829  0.35260  Biso   1.000  C
  H1074    1.0000 0.06839  0.78780  0.31260  Biso   1.000  H
  C1198    1.0000 0.09205  0.75279  0.28951  Biso   1.000  C
  H1075    1.0000 0.08949  0.76689  0.36230  Biso   1.000  H
  H1076    1.0000 0.08689  0.73310  0.36730  Biso   1.000  H
  C1199    1.0000 0.11081  0.74394  0.33463  Biso   1.000  C
  C1200    1.0000 0.11514  0.74978  0.30871  Biso   1.000  C
  H1077    1.0000 0.08640  0.73391  0.28190  Biso   1.000  H
  H1078    1.0000 0.09760  0.76521  0.27330  Biso   1.000  H
  H1079    1.0000 0.12651  0.73470  0.34359  Biso   1.000  H
  H1080    1.0000 0.13410  0.75219  0.30199  Biso   1.000  H
  C1201    1.0000 0.36192  0.56777  0.60911  Biso   1.000  C
  C1202    1.0000 0.35072  0.53865  0.61553  Biso   1.000  C
  C1203    1.0000 0.33995  0.59290  0.61146  Biso   1.000  C
  H1081    1.0000 0.36979  0.56770  0.58950  Biso   1.000  H
  H1082    1.0000 0.37790  0.57169  0.62229  Biso   1.000  H
  C1204    1.0000 0.32177  0.53551  0.61423  Biso   1.000  C
  H1083    1.0000 0.36301  0.52320  0.62020  Biso   1.000  H
  C1205    1.0000 0.31296  0.58293  0.59490  Biso   1.000  C
  N161     1.0000 0.35264  0.61638  0.59462  Biso   1.000  N
  H1084    1.0000 0.33581  0.59840  0.63159  Biso   1.000  H
  C1206    1.0000 0.29807  0.55569  0.60894  Biso   1.000  C
  H1085    1.0000 0.31561  0.51650  0.61741  Biso   1.000  H
  N162     1.0000 0.29329  0.60416  0.59561  Biso   1.000  N
  H1086    1.0000 0.31810  0.57860  0.57470  Biso   1.000  H
  C1207    1.0000 0.35703  0.63565  0.60937  Biso   1.000  C
  H1087    1.0000 0.28841  0.56090  0.62701  Biso   1.000  H
  H1088    1.0000 0.28380  0.54731  0.59580  Biso   1.000  H
  C1208    1.0000 0.28448  0.61515  0.57235  Biso   1.000  C
  C1209    1.0000 0.37393  0.66402  0.59804  Biso   1.000  C
  H1089    1.0000 0.35070  0.63501  0.62861  Biso   1.000  H
  C1210    1.0000 0.26144  0.63932  0.57054  Biso   1.000  C
  H1090    1.0000 0.29239  0.60830  0.55501  Biso   1.000  H
  C1211    1.0000 0.38202  0.68461  0.61909  Biso   1.000  C
  C1212    1.0000 0.37995  0.66912  0.57216  Biso   1.000  C
  C1213    1.0000 0.25009  0.64819  0.54654  Biso   1.000  C
  C1214    1.0000 0.25212  0.65237  0.59258  Biso   1.000  C
  C1215    1.0000 0.39678  0.70876  0.61184  Biso   1.000  C
  H1091    1.0000 0.37700  0.68149  0.63851  Biso   1.000  H
  H1092    1.0000 0.37350  0.65630  0.55780  Biso   1.000  H
  C1216    1.0000 0.39450  0.69114  0.56480  Biso   1.000  C
  C1217    1.0000 0.23332  0.67023  0.54234  Biso   1.000  C
  H1093    1.0000 0.25459  0.63729  0.53009  Biso   1.000  H
  H1094    1.0000 0.25901  0.64610  0.61060  Biso   1.000  H
  C1218    1.0000 0.23253  0.67522  0.59255  Biso   1.000  C
  C1219    1.0000 0.40303  0.71046  0.58368  Biso   1.000  C
  H1095    1.0000 0.40209  0.72301  0.62530  Biso   1.000  H
  H1096    1.0000 0.39930  0.69370  0.54530  Biso   1.000  H
  C1220    1.0000 0.22377  0.68410  0.56676  Biso   1.000  C
  H1097    1.0000 0.22801  0.67631  0.52369  Biso   1.000  H
  H1098    1.0000 0.22601  0.68380  0.60971  Biso   1.000  H
  N163     1.0000 0.42185  0.73574  0.57481  Biso   1.000  N
  N164     1.0000 0.20237  0.70633  0.56301  Biso   1.000  N
  C1221    1.0000 0.44691  0.74182  0.59145  Biso   1.000  C
  C1222    1.0000 0.41504  0.74972  0.55010  Biso   1.000  C
  C1223    1.0000 0.17875  0.70492  0.58426  Biso   1.000  C
  C1224    1.0000 0.20286  0.72454  0.54148  Biso   1.000  C
  C1225    1.0000 0.45461  0.76826  0.59693  Biso   1.000  C
  C1226    1.0000 0.46153  0.71902  0.60378  Biso   1.000  C
  C1227    1.0000 0.38748  0.75680  0.54394  Biso   1.000  C
  C1228    1.0000 0.43703  0.75844  0.53310  Biso   1.000  C
  C1229    1.0000 0.16617  0.68233  0.59089  Biso   1.000  C
  C1230    1.0000 0.17033  0.72945  0.59823  Biso   1.000  C
  C1231    1.0000 0.17984  0.73813  0.53052  Biso   1.000  C
  C1232    1.0000 0.22972  0.73299  0.53171  Biso   1.000  C
  H1099    1.0000 0.44361  0.78359  0.58950  Biso   1.000  H
  C1233    1.0000 0.47774  0.77399  0.61293  Biso   1.000  C
  C1234    1.0000 0.48544  0.72508  0.61873  Biso   1.000  C
  H1100    1.0000 0.45489  0.69999  0.60171  Biso   1.000  H
  H1101    1.0000 0.37220  0.75219  0.55639  Biso   1.000  H
  C1235    1.0000 0.38304  0.77129  0.51802  Biso   1.000  C
  C1236    1.0000 0.43153  0.77457  0.50788  Biso   1.000  C
  H1102    1.0000 0.45611  0.75379  0.53809  Biso   1.000  H
  H1103    1.0000 0.17350  0.66500  0.58330  Biso   1.000  H
  C1237    1.0000 0.14325  0.68062  0.60779  Biso   1.000  C
  C1238    1.0000 0.14786  0.73015  0.61408  Biso   1.000  C
  H1104    1.0000 0.18140  0.74630  0.59610  Biso   1.000  H
  H1105    1.0000 0.16160  0.73459  0.53871  Biso   1.000  H
  C1239    1.0000 0.18176  0.75644  0.50846  Biso   1.000  C
  C1240    1.0000 0.23145  0.75298  0.50735  Biso   1.000  C
  H1106    1.0000 0.24659  0.72599  0.54061  Biso   1.000  H
  H1107    1.0000 0.48279  0.79319  0.61670  Biso   1.000  H
  C1241    1.0000 0.49487  0.75108  0.62432  Biso   1.000  C
  H1108    1.0000 0.49630  0.70950  0.62579  Biso   1.000  H
  H1109    1.0000 0.36390  0.77570  0.51300  Biso   1.000  H
  C1242    1.0000 0.40412  0.77967  0.49931  Biso   1.000  C
  H1110    1.0000 0.44700  0.78180  0.49700  Biso   1.000  H
  H1111    1.0000 0.13421  0.66281  0.61090  Biso   1.000  H
  C1243    1.0000 0.13329  0.70387  0.62003  Biso   1.000  C
  H1112    1.0000 0.14110  0.74769  0.62170  Biso   1.000  H
  H1113    1.0000 0.16510  0.76420  0.49990  Biso   1.000  H
  C1244    1.0000 0.20813  0.76343  0.49869  Biso   1.000  C
  H1114    1.0000 0.24911  0.75770  0.49871  Biso   1.000  H
  C1245    1.0000 0.51876  0.75940  0.64256  Biso   1.000  C
  C1246    1.0000 0.39674  0.79599  0.47298  Biso   1.000  C
  C1247    1.0000 0.10771  0.70793  0.64011  Biso   1.000  C
  C1248    1.0000 0.21135  0.78359  0.46978  Biso   1.000  C
  N165     1.0000 0.53591  0.74025  0.64986  Biso   1.000  N
  H1115    1.0000 0.52119  0.77860  0.64860  Biso   1.000  H
  N166     1.0000 0.41685  0.80162  0.45408  Biso   1.000  N
  H1116    1.0000 0.37771  0.80230  0.46980  Biso   1.000  H
  N167     1.0000 0.09764  0.72917  0.64983  Biso   1.000  N
  H1117    1.0000 0.09839  0.69079  0.64559  Biso   1.000  H
  N168     1.0000 0.23627  0.78812  0.45999  Biso   1.000  N
  H1118    1.0000 0.19501  0.79159  0.46080  Biso   1.000  H
  C1249    1.0000 0.56000  0.75236  0.66588  Biso   1.000  C
  C1250    1.0000 0.40512  0.81743  0.42801  Biso   1.000  C
  C1251    1.0000 0.07110  0.72459  0.66859  Biso   1.000  C
  C1252    1.0000 0.23262  0.80732  0.43509  Biso   1.000  C
  C1253    1.0000 0.56491  0.73263  0.69267  Biso   1.000  C
  H1119    1.0000 0.55561  0.77231  0.67200  Biso   1.000  H
  C1254    1.0000 0.58767  0.75172  0.64740  Biso   1.000  C
  H1120    1.0000 0.38449  0.82229  0.43089  Biso   1.000  H
  C1255    1.0000 0.42195  0.84363  0.42251  Biso   1.000  C
  C1256    1.0000 0.40826  0.79571  0.40523  Biso   1.000  C
  C1257    1.0000 0.07541  0.74131  0.69525  Biso   1.000  C
  H1121    1.0000 0.06750  0.70389  0.67249  Biso   1.000  H
  C1258    1.0000 0.04655  0.73839  0.65092  Biso   1.000  C
  H1122    1.0000 0.21220  0.81261  0.43159  Biso   1.000  H
  C1259    1.0000 0.25235  0.83413  0.44000  Biso   1.000  C
  C1260    1.0000 0.24721  0.78953  0.40796  Biso   1.000  C
  N169     1.0000 0.53999  0.73626  0.71189  Biso   1.000  N
  H1123    1.0000 0.56841  0.71219  0.68740  Biso   1.000  H
  C1261    1.0000 0.59204  0.74722  0.71049  Biso   1.000  C
  H1124    1.0000 0.58950  0.73310  0.63770  Biso   1.000  H
  H1125    1.0000 0.58690  0.76689  0.63270  Biso   1.000  H
  C1262    1.0000 0.61079  0.75607  0.66537  Biso   1.000  C
  N170     1.0000 0.42012  0.86240  0.44734  Biso   1.000  N
  H1126    1.0000 0.44230  0.83840  0.41890  Biso   1.000  H
  C1263    1.0000 0.41116  0.85841  0.39913  Biso   1.000  C
  C1264    1.0000 0.40352  0.81184  0.37766  Biso   1.000  C
  H1127    1.0000 0.39390  0.78039  0.40751  Biso   1.000  H
  H1128    1.0000 0.42761  0.78709  0.40570  Biso   1.000  H
  N171     1.0000 0.09954  0.72858  0.71061  Biso   1.000  N
  H1129    1.0000 0.07900  0.76190  0.69101  Biso   1.000  H
  C1265    1.0000 0.04902  0.73756  0.71262  Biso   1.000  C
  H1130    1.0000 0.05321  0.75680  0.64309  Biso   1.000  H
  H1131    1.0000 0.04179  0.72580  0.63471  Biso   1.000  H
  C1266    1.0000 0.02172  0.74315  0.66743  Biso   1.000  C
  N172     1.0000 0.24023  0.85015  0.46409  Biso   1.000  N
  H1132    1.0000 0.27230  0.82799  0.44439  Biso   1.000  H
  C1267    1.0000 0.25171  0.85259  0.41233  Biso   1.000  C
  C1268    1.0000 0.25022  0.80873  0.38485  Biso   1.000  C
  H1133    1.0000 0.26609  0.78191  0.41361  Biso   1.000  H
  H1134    1.0000 0.23479  0.77329  0.40241  Biso   1.000  H
  C1269    1.0000 0.53022  0.71136  0.71639  Biso   1.000  C
  C1270    1.0000 0.61515  0.75023  0.69129  Biso   1.000  C
  H1135    1.0000 0.58641  0.76610  0.71810  Biso   1.000  H
  H1136    1.0000 0.59759  0.73481  0.72670  Biso   1.000  H
  H1137    1.0000 0.62650  0.76529  0.65641  Biso   1.000  H
  C1271    1.0000 0.44540  0.87196  0.45641  Biso   1.000  C
  H1138    1.0000 0.42479  0.87360  0.39371  Biso   1.000  H
  H1139    1.0000 0.39300  0.86769  0.40461  Biso   1.000  H
  C1272    1.0000 0.40572  0.83836  0.37254  Biso   1.000  C
  H1140    1.0000 0.39810  0.80041  0.36179  Biso   1.000  H
  C1273    1.0000 0.11998  0.74276  0.71731  Biso   1.000  C
  C1274    1.0000 0.02368  0.74349  0.69615  Biso   1.000  C
  H1141    1.0000 0.04819  0.71770  0.71981  Biso   1.000  H
  H1142    1.0000 0.04971  0.75051  0.72930  Biso   1.000  H
  H1143    1.0000 0.00380  0.74601  0.65841  Biso   1.000  H
  C1275    1.0000 0.25941  0.85745  0.48124  Biso   1.000  C
  H1144    1.0000 0.23311  0.86229  0.41050  Biso   1.000  H
  H1145    1.0000 0.26690  0.86731  0.41310  Biso   1.000  H
  C1276    1.0000 0.25606  0.83462  0.38921  Biso   1.000  C
  H1146    1.0000 0.24781  0.80201  0.36591  Biso   1.000  H
  C1277    1.0000 0.50131  0.70814  0.73658  Biso   1.000  C
  H1147    1.0000 0.53920  0.69500  0.70839  Biso   1.000  H
  H1148    1.0000 0.63409  0.74780  0.69801  Biso   1.000  H
  C1278    1.0000 0.44815  0.89293  0.48192  Biso   1.000  C
  H1149    1.0000 0.46221  0.86579  0.44689  Biso   1.000  H
  H1150    1.0000 0.40420  0.84580  0.35379  Biso   1.000  H
  C1279    1.0000 0.14494  0.73801  0.73193  Biso   1.000  C
  H1151    1.0000 0.11840  0.76190  0.71089  Biso   1.000  H
  H1152    1.0000 0.00689  0.74810  0.70650  Biso   1.000  H
  C1280    1.0000 0.25107  0.87569  0.50513  Biso   1.000  C
  H1153    1.0000 0.27859  0.85139  0.47881  Biso   1.000  H
  H1154    1.0000 0.26530  0.84361  0.37350  Biso   1.000  H
  C1281    1.0000 0.49154  0.68177  0.74357  Biso   1.000  C
  C1282    1.0000 0.49265  0.73146  0.74701  Biso   1.000  C
  C1283    1.0000 0.42317  0.90121  0.49557  Biso   1.000  C
  C1284    1.0000 0.47422  0.90246  0.49244  Biso   1.000  C
  C1285    1.0000 0.15185  0.70982  0.74150  Biso   1.000  C
  C1286    1.0000 0.16446  0.75742  0.73958  Biso   1.000  C
  C1287    1.0000 0.27401  0.88708  0.52226  Biso   1.000  C
  C1288    1.0000 0.22507  0.88128  0.51456  Biso   1.000  C
  C1289    1.0000 0.46948  0.67983  0.76188  Biso   1.000  C
  H1155    1.0000 0.50010  0.66511  0.73581  Biso   1.000  H
  H1156    1.0000 0.50129  0.74910  0.74229  Biso   1.000  H
  C1290    1.0000 0.46829  0.72973  0.76700  Biso   1.000  C
  C1291    1.0000 0.42530  0.92265  0.51733  Biso   1.000  C
  H1157    1.0000 0.40529  0.89299  0.49071  Biso   1.000  H
  H1158    1.0000 0.49120  0.89440  0.48491  Biso   1.000  H
  C1292    1.0000 0.47646  0.92324  0.51339  Biso   1.000  C
  C1293    1.0000 0.17487  0.70402  0.75721  Biso   1.000  C
  H1159    1.0000 0.13950  0.69459  0.73649  Biso   1.000  H
  H1160    1.0000 0.16190  0.77630  0.73269  Biso   1.000  H
  C1294    1.0000 0.18831  0.75253  0.75680  Biso   1.000  C
  C1295    1.0000 0.26825  0.90306  0.54539  Biso   1.000  C
  H1161    1.0000 0.29321  0.88331  0.51721  Biso   1.000  H
  H1162    1.0000 0.20949  0.87420  0.50370  Biso   1.000  H
  C1296    1.0000 0.21903  0.89621  0.53847  Biso   1.000  C
  C1297    1.0000 0.45852  0.70285  0.77547  Biso   1.000  C
  H1163    1.0000 0.46129  0.66159  0.76540  Biso   1.000  H
  H1164    1.0000 0.45939  0.74660  0.77399  Biso   1.000  H
  C1298    1.0000 0.45150  0.93291  0.52700  Biso   1.000  C
  H1165    1.0000 0.40830  0.93009  0.52540  Biso   1.000  H
  H1166    1.0000 0.49459  0.93079  0.51851  Biso   1.000  H
  C1299    1.0000 0.19409  0.72704  0.76446  Biso   1.000  C
  H1167    1.0000 0.17860  0.68510  0.76350  Biso   1.000  H
  H1168    1.0000 0.20000  0.76800  0.76271  Biso   1.000  H
  C1300    1.0000 0.24183  0.90857  0.55309  Biso   1.000  C
  H1169    1.0000 0.28361  0.91051  0.55639  Biso   1.000  H
  H1170    1.0000 0.20000  0.89830  0.54511  Biso   1.000  H
  N173     1.0000 0.43699  0.70238  0.79369  Biso   1.000  N
  N174     1.0000 0.45342  0.95343  0.54658  Biso   1.000  N
  N175     1.0000 0.21852  0.71851  0.78148  Biso   1.000  N
  N176     1.0000 0.23575  0.92521  0.57815  Biso   1.000  N
  C1301    1.0000 0.41574  0.67876  0.79507  Biso   1.000  C
  C1302    1.0000 0.43324  0.72378  0.81591  Biso   1.000  C
  C1303    1.0000 0.43292  0.97299  0.54850  Biso   1.000  C
  C1304    1.0000 0.47300  0.95149  0.56708  Biso   1.000  C
  C1305    1.0000 0.23554  0.69408  0.77297  Biso   1.000  C
  C1306    1.0000 0.22705  0.73555  0.80591  Biso   1.000  C
  C1307    1.0000 0.21047  0.91633  0.59697  Biso   1.000  C
  C1308    1.0000 0.24971  0.94989  0.58496  Biso   1.000  C
  C1309    1.0000 0.40911  0.66618  0.81766  Biso   1.000  C
  C1310    1.0000 0.40177  0.67034  0.77054  Biso   1.000  C
  C1311    1.0000 0.45766  0.73333  0.82976  Biso   1.000  C
  C1312    1.0000 0.40745  0.73254  0.82479  Biso   1.000  C
  C1313    1.0000 0.42266  0.98268  0.57470  Biso   1.000  C
  C1314    1.0000 0.42323  0.98660  0.52354  Biso   1.000  C
  C1315    1.0000 0.48267  0.92529  0.57734  Biso   1.000  C
  C1316    1.0000 0.48661  0.97647  0.57677  Biso   1.000  C
  C1317    1.0000 0.24279  0.67488  0.79599  Biso   1.000  C
  C1318    1.0000 0.24320  0.68830  0.74748  Biso   1.000  C
  C1319    1.0000 0.20401  0.74281  0.82513  Biso   1.000  C
  C1320    1.0000 0.25252  0.74319  0.81169  Biso   1.000  C
  C1321    1.0000 0.20875  0.88817  0.60322  Biso   1.000  C
  C1322    1.0000 0.19113  0.93521  0.60550  Biso   1.000  C
  C1323    1.0000 0.25679  0.95607  0.61252  Biso   1.000  C
  C1324    1.0000 0.25845  0.96689  0.56297  Biso   1.000  C
  H1171    1.0000 0.41670  0.67349  0.83501  Biso   1.000  H
  C1325    1.0000 0.39221  0.64324  0.81939  Biso   1.000  C
  C1326    1.0000 0.38592  0.64785  0.76986  Biso   1.000  C
  H1172    1.0000 0.40390  0.68141  0.75371  Biso   1.000  H
  H1173    1.0000 0.47631  0.72800  0.82370  Biso   1.000  H
  C1327    1.0000 0.45346  0.75008  0.85182  Biso   1.000  C
  C1328    1.0000 0.40742  0.75213  0.84762  Biso   1.000  C
  H1174    1.0000 0.39029  0.72599  0.81619  Biso   1.000  H
  H1175    1.0000 0.43010  0.97459  0.59170  Biso   1.000  H
  C1329    1.0000 0.40119  0.00442  0.57683  Biso   1.000  C
  H1176    1.0000 0.43081  0.98150  0.50541  Biso   1.000  H
  C1330    1.0000 0.40247  0.00755  0.52578  Biso   1.000  C
  H1177    1.0000 0.47460  0.90831  0.56990  Biso   1.000  H
  C1331    1.0000 0.50443  0.92318  0.59881  Biso   1.000  C
  C1332    1.0000 0.50756  0.97423  0.59753  Biso   1.000  C
  H1178    1.0000 0.48149  0.99460  0.56919  Biso   1.000  H
  H1179    1.0000 0.23650  0.67859  0.81489  Biso   1.000  H
  C1333    1.0000 0.25850  0.65184  0.79019  Biso   1.000  C
  C1334    1.0000 0.26042  0.66447  0.74259  Biso   1.000  C
  H1180    1.0000 0.23729  0.69999  0.73199  Biso   1.000  H
  H1181    1.0000 0.18511  0.73649  0.82140  Biso   1.000  H
  C1335    1.0000 0.20981  0.75849  0.84815  Biso   1.000  C
  C1336    1.0000 0.25741  0.76041  0.83554  Biso   1.000  C
  H1182    1.0000 0.26799  0.73730  0.80000  Biso   1.000  H
  H1183    1.0000 0.22300  0.87471  0.59791  Biso   1.000  H
  C1337    1.0000 0.18462  0.88090  0.61798  Biso   1.000  C
  C1338    1.0000 0.16913  0.92783  0.62005  Biso   1.000  C
  H1184    1.0000 0.19371  0.95471  0.60070  Biso   1.000  H
  H1185    1.0000 0.25220  0.94359  0.62780  Biso   1.000  H
  C1339    1.0000 0.27130  0.98197  0.61696  Biso   1.000  C
  C1340    1.0000 0.27456  0.99213  0.56847  Biso   1.000  C
  H1186    1.0000 0.25380  0.96190  0.54389  Biso   1.000  H
  H1187    1.0000 0.38910  0.63420  0.83721  Biso   1.000  H
  C1341    1.0000 0.37997  0.63328  0.79612  Biso   1.000  C
  H1188    1.0000 0.37830  0.64111  0.75230  Biso   1.000  H
  H1189    1.0000 0.46991  0.75460  0.86270  Biso   1.000  H
  C1342    1.0000 0.42946  0.76145  0.86067  Biso   1.000  C
  H1190    1.0000 0.38940  0.75900  0.85391  Biso   1.000  H
  H1191    1.0000 0.39300  0.00930  0.59471  Biso   1.000  H
  C1343    1.0000 0.39294  0.01807  0.55185  Biso   1.000  C
  H1192    1.0000 0.39439  0.01510  0.50880  Biso   1.000  H
  H1193    1.0000 0.50929  0.90530  0.60700  Biso   1.000  H
  C1344    1.0000 0.51808  0.94816  0.60706  Biso   1.000  C
  H1194    1.0000 0.51509  0.99119  0.60561  Biso   1.000  H
  H1195    1.0000 0.26351  0.63951  0.80540  Biso   1.000  H
  C1345    1.0000 0.26807  0.64493  0.76198  Biso   1.000  C
  H1196    1.0000 0.26731  0.66191  0.72369  Biso   1.000  H
  H1197    1.0000 0.19460  0.76350  0.86050  Biso   1.000  H
  C1346    1.0000 0.23802  0.76806  0.85506  Biso   1.000  C
  H1198    1.0000 0.27631  0.76730  0.83810  Biso   1.000  H
  H1199    1.0000 0.18150  0.86150  0.62300  Biso   1.000  H
  C1347    1.0000 0.16403  0.90197  0.62607  Biso   1.000  C
  H1200    1.0000 0.15631  0.94221  0.62650  Biso   1.000  H
  H1201    1.0000 0.27569  0.98701  0.63610  Biso   1.000  H
  C1348    1.0000 0.27968  0.00068  0.59588  Biso   1.000  C
  H1202    1.0000 0.28179  0.00301  0.55300  Biso   1.000  H
  C1349    1.0000 0.35989  0.60770  0.79209  Biso   1.000  C
  C1350    1.0000 0.42765  0.78449  0.88484  Biso   1.000  C
  C1351    1.0000 0.37197  0.04361  0.55460  Biso   1.000  C
  C1352    1.0000 0.54359  0.94541  0.62803  Biso   1.000  C
  C1353    1.0000 0.28269  0.61999  0.75725  Biso   1.000  C
  C1354    1.0000 0.24275  0.78268  0.88002  Biso   1.000  C
  C1355    1.0000 0.13564  0.89062  0.64297  Biso   1.000  C
  C1356    1.0000 0.29600  0.02703  0.60326  Biso   1.000  C
  N177     1.0000 0.35017  0.59765  0.77082  Biso   1.000  N
  H1203    1.0000 0.35441  0.59840  0.80919  Biso   1.000  H
  N178     1.0000 0.40439  0.79330  0.89585  Biso   1.000  N
  H1204    1.0000 0.44499  0.79241  0.89169  Biso   1.000  H
  N179     1.0000 0.36241  0.05267  0.57988  Biso   1.000  N
  H1205    1.0000 0.36580  0.05310  0.53779  Biso   1.000  H
  N180     1.0000 0.55266  0.92013  0.63759  Biso   1.000  N
  H1206    1.0000 0.55311  0.96220  0.63420  Biso   1.000  H
  N181     1.0000 0.28939  0.59953  0.77143  Biso   1.000  N
  H1207    1.0000 0.28911  0.61841  0.73809  Biso   1.000  H
  N182     1.0000 0.22857  0.78938  0.90046  Biso   1.000  N
  H1208    1.0000 0.26191  0.78910  0.88160  Biso   1.000  H
  N183     1.0000 0.11639  0.90537  0.64736  Biso   1.000  N
  H1209    1.0000 0.13500  0.87140  0.64930  Biso   1.000  H
  N184     1.0000 0.30161  0.04593  0.58315  Biso   1.000  N
  H1210    1.0000 0.30229  0.03021  0.62229  Biso   1.000  H
  C1357    1.0000 0.33141  0.57109  0.77542  Biso   1.000  C
  C1358    1.0000 0.40510  0.81295  0.91706  Biso   1.000  C
  C1359    1.0000 0.34362  0.07750  0.57805  Biso   1.000  C
  C1360    1.0000 0.57749  0.92196  0.65638  Biso   1.000  C
  C1361    1.0000 0.30475  0.57542  0.75868  Biso   1.000  C
  C1362    1.0000 0.24132  0.80474  0.92459  Biso   1.000  C
  C1363    1.0000 0.09289  0.88855  0.66005  Biso   1.000  C
  C1364    1.0000 0.31744  0.07200  0.59488  Biso   1.000  C
  H1211    1.0000 0.32751  0.56751  0.79610  Biso   1.000  H
  C1365    1.0000 0.34908  0.54656  0.76160  Biso   1.000  C
  C1366    1.0000 0.38854  0.83994  0.90711  Biso   1.000  C
  H1212    1.0000 0.42530  0.81809  0.92141  Biso   1.000  H
  C1367    1.0000 0.39106  0.79806  0.94432  Biso   1.000  C
  H1213    1.0000 0.33839  0.08111  0.55770  Biso   1.000  H
  C1368    1.0000 0.35840  0.10086  0.58884  Biso   1.000  C
  C1369    1.0000 0.57199  0.90513  0.68256  Biso   1.000  C
  H1214    1.0000 0.58110  0.94229  0.66159  Biso   1.000  H
  C1370    1.0000 0.60087  0.91115  0.64160  Biso   1.000  C
  H1215    1.0000 0.30899  0.57901  0.73809  Biso   1.000  H
  C1371    1.0000 0.28738  0.54901  0.76245  Biso   1.000  C
  H1216    1.0000 0.26191  0.80900  0.92100  Biso   1.000  H
  C1372    1.0000 0.22458  0.83142  0.92890  Biso   1.000  C
  C1373    1.0000 0.23755  0.78737  0.95098  Biso   1.000  C
  H1217    1.0000 0.09839  0.86839  0.66419  Biso   1.000  H
  C1374    1.0000 0.08294  0.90511  0.68704  Biso   1.000  C
  C1375    1.0000 0.06775  0.89088  0.63808  Biso   1.000  C
  H1218    1.0000 0.32230  0.06910  0.61551  Biso   1.000  H
  C1376    1.0000 0.29570  0.09478  0.59174  Biso   1.000  C
  H1219    1.0000 0.35691  0.55319  0.74319  Biso   1.000  H
  H1220    1.0000 0.36529  0.54180  0.77421  Biso   1.000  H
  C1377    1.0000 0.33257  0.52171  0.75686  Biso   1.000  C
  N185     1.0000 0.40538  0.85263  0.88361  Biso   1.000  N
  H1221    1.0000 0.36841  0.83580  0.90159  Biso   1.000  H
  C1378    1.0000 0.39089  0.86193  0.93225  Biso   1.000  C
  H1222    1.0000 0.37299  0.78839  0.93909  Biso   1.000  H
  H1223    1.0000 0.40420  0.78381  0.95270  Biso   1.000  H
  C1379    1.0000 0.38577  0.82176  0.96448  Biso   1.000  C
  H1224    1.0000 0.37359  0.10630  0.57521  Biso   1.000  H
  H1225    1.0000 0.36770  0.09540  0.60700  Biso   1.000  H
  C1380    1.0000 0.33835  0.12745  0.59428  Biso   1.000  C
  N186     1.0000 0.54592  0.91686  0.69839  Biso   1.000  N
  H1226    1.0000 0.56911  0.88450  0.67770  Biso   1.000  H
  C1381    1.0000 0.59477  0.90827  0.70430  Biso   1.000  C
  H1227    1.0000 0.60629  0.92480  0.62641  Biso   1.000  H
  H1228    1.0000 0.59539  0.89299  0.63230  Biso   1.000  H
  C1382    1.0000 0.62746  0.90573  0.66165  Biso   1.000  C
  C1383    1.0000 0.30385  0.52369  0.75652  Biso   1.000  C
  H1229    1.0000 0.28019  0.54820  0.78229  Biso   1.000  H
  H1230    1.0000 0.27070  0.54970  0.74950  Biso   1.000  H
  N187     1.0000 0.22918  0.85015  0.90236  Biso   1.000  N
  H1231    1.0000 0.20390  0.82750  0.93250  Biso   1.000  H
  C1384    1.0000 0.23840  0.84907  0.95343  Biso   1.000  C
  C1385    1.0000 0.24348  0.80386  0.97632  Biso   1.000  C
  H1232    1.0000 0.21771  0.78020  0.95181  Biso   1.000  H
  H1233    1.0000 0.25050  0.77071  0.95029  Biso   1.000  H
  N188     1.0000 0.10415  0.90438  0.70671  Biso   1.000  N
  H1234    1.0000 0.07859  0.92529  0.68190  Biso   1.000  H
  C1386    1.0000 0.05568  0.89107  0.70193  Biso   1.000  C
  C1387    1.0000 0.03866  0.88448  0.64928  Biso   1.000  C
  H1235    1.0000 0.06769  0.91051  0.63021  Biso   1.000  H
  H1236    1.0000 0.07170  0.87770  0.62210  Biso   1.000  H
  C1388    1.0000 0.31183  0.12235  0.59648  Biso   1.000  C
  H1237    1.0000 0.28041  0.09250  0.60610  Biso   1.000  H
  H1238    1.0000 0.28710  0.09429  0.57239  Biso   1.000  H
  H1239    1.0000 0.34159  0.50381  0.75401  Biso   1.000  H
  C1389    1.0000 0.39063  0.85702  0.86436  Biso   1.000  C
  C1390    1.0000 0.38447  0.85071  0.96134  Biso   1.000  C
  H1240    1.0000 0.41050  0.86980  0.93231  Biso   1.000  H
  H1241    1.0000 0.37771  0.87791  0.92830  Biso   1.000  H
  H1242    1.0000 0.38259  0.81559  0.98351  Biso   1.000  H
  H1243    1.0000 0.34579  0.14620  0.59580  Biso   1.000  H
  C1391    1.0000 0.52702  0.89675  0.70400  Biso   1.000  C
  C1392    1.0000 0.62234  0.90353  0.68817  Biso   1.000  C
  H1244    1.0000 0.59249  0.89391  0.71959  Biso   1.000  H
  H1245    1.0000 0.59430  0.92759  0.71290  Biso   1.000  H
  H1246    1.0000 0.64621  0.90419  0.65421  Biso   1.000  H
  H1247    1.0000 0.29350  0.50690  0.75189  Biso   1.000  H
  C1393    1.0000 0.20791  0.85990  0.89229  Biso   1.000  C
  H1248    1.0000 0.25681  0.85690  0.94679  Biso   1.000  H
  H1249    1.0000 0.22579  0.86530  0.95821  Biso   1.000  H
  C1394    1.0000 0.24314  0.83258  0.97828  Biso   1.000  C
  H1250    1.0000 0.24811  0.79349  0.99311  Biso   1.000  H
  C1395    1.0000 0.11516  0.92764  0.71552  Biso   1.000  C
  H1251    1.0000 0.06091  0.87300  0.71159  Biso   1.000  H
  H1252    1.0000 0.04730  0.90419  0.71620  Biso   1.000  H
  C1396    1.0000 0.03552  0.88576  0.67823  Biso   1.000  C
  H1253    1.0000 0.02319  0.87981  0.63699  Biso   1.000  H
  H1254    1.0000 0.30039  0.13820  0.60190  Biso   1.000  H
  C1397    1.0000 0.40196  0.87392  0.83597  Biso   1.000  C
  H1255    1.0000 0.37139  0.85071  0.86500  Biso   1.000  H
  H1256    1.0000 0.37980  0.86300  0.97681  Biso   1.000  H
  C1398    1.0000 0.50069  0.90411  0.72032  Biso   1.000  C
  H1257    1.0000 0.53020  0.87770  0.69771  Biso   1.000  H
  H1258    1.0000 0.63821  0.89809  0.69961  Biso   1.000  H
  C1399    1.0000 0.20388  0.87996  0.86671  Biso   1.000  C
  H1259    1.0000 0.19081  0.85440  0.90159  Biso   1.000  H
  H1260    1.0000 0.24599  0.84160  0.99620  Biso   1.000  H
  C1400    1.0000 0.13933  0.92945  0.73856  Biso   1.000  C
  H1261    1.0000 0.10831  0.94500  0.70761  Biso   1.000  H
  H1262    1.0000 0.01649  0.88260  0.68439  Biso   1.000  H
  C1401    1.0000 0.38091  0.88201  0.81538  Biso   1.000  C
  C1402    1.0000 0.42784  0.87996  0.83087  Biso   1.000  C
  C1403    1.0000 0.48198  0.88305  0.72870  Biso   1.000  C
  C1404    1.0000 0.49212  0.93152  0.72544  Biso   1.000  C
  C1405    1.0000 0.18061  0.89222  0.85675  Biso   1.000  C
  C1406    1.0000 0.23014  0.88591  0.85214  Biso   1.000  C
  C1407    1.0000 0.14818  0.95345  0.74991  Biso   1.000  C
  C1408    1.0000 0.15238  0.90741  0.74788  Biso   1.000  C
  C1409    1.0000 0.38816  0.89677  0.79125  Biso   1.000  C
  H1263    1.0000 0.36149  0.87699  0.81850  Biso   1.000  H
  H1264    1.0000 0.44220  0.87349  0.84369  Biso   1.000  H
  C1410    1.0000 0.43520  0.89451  0.80887  Biso   1.000  C
  C1411    1.0000 0.45606  0.88747  0.74321  Biso   1.000  C
  H1265    1.0000 0.48700  0.86389  0.72431  Biso   1.000  H
  H1266    1.0000 0.50300  0.94701  0.71821  Biso   1.000  H
  C1412    1.0000 0.46690  0.93705  0.74155  Biso   1.000  C
  C1413    1.0000 0.18234  0.90910  0.83383  Biso   1.000  C
  H1267    1.0000 0.16279  0.88911  0.86579  Biso   1.000  H
  H1268    1.0000 0.24770  0.87829  0.85890  Biso   1.000  H
  C1414    1.0000 0.22946  0.90178  0.82967  Biso   1.000  C
  C1415    1.0000 0.17024  0.95767  0.76668  Biso   1.000  C
  H1269    1.0000 0.13730  0.96990  0.74541  Biso   1.000  H
  H1270    1.0000 0.14609  0.88941  0.74099  Biso   1.000  H
  C1416    1.0000 0.17521  0.90743  0.76747  Biso   1.000  C
  C1417    1.0000 0.41632  0.90304  0.78953  Biso   1.000  C
  H1271    1.0000 0.37470  0.90210  0.77700  Biso   1.000  H
  H1272    1.0000 0.45470  0.89931  0.80629  Biso   1.000  H
  C1418    1.0000 0.44990  0.91503  0.75029  Biso   1.000  C
  H1273    1.0000 0.44361  0.87219  0.74780  Biso   1.000  H
  H1274    1.0000 0.46191  0.95610  0.74620  Biso   1.000  H
  C1419    1.0000 0.20493  0.91575  0.82125  Biso   1.000  C
  H1275    1.0000 0.16499  0.91669  0.82650  Biso   1.000  H
  H1276    1.0000 0.24629  0.90389  0.81860  Biso   1.000  H
  C1420    1.0000 0.18409  0.93323  0.77623  Biso   1.000  C
  H1277    1.0000 0.17630  0.97630  0.77201  Biso   1.000  H
  H1278    1.0000 0.18381  0.89030  0.77399  Biso   1.000  H
  N189     1.0000 0.42519  0.92183  0.76425  Biso   1.000  N
  N190     1.0000 0.20631  0.93700  0.79763  Biso   1.000  N
  C1421    1.0000 0.40855  0.94690  0.75817  Biso   1.000  C
  C1422    1.0000 0.22453  0.95851  0.79714  Biso   1.000  C
  C1423    1.0000 0.40307  0.95462  0.73175  Biso   1.000  C
  C1424    1.0000 0.39622  0.96154  0.78097  Biso   1.000  C
  C1425    1.0000 0.23812  0.96949  0.82016  Biso   1.000  C
  C1426    1.0000 0.23300  0.96830  0.77028  Biso   1.000  C
  H1279    1.0000 0.41050  0.94359  0.71639  Biso   1.000  H
  C1427    1.0000 0.38707  0.97775  0.72599  Biso   1.000  C
  C1428    1.0000 0.38127  0.98543  0.77493  Biso   1.000  C
  H1280    1.0000 0.39829  0.95490  0.80000  Biso   1.000  H
  H1281    1.0000 0.23460  0.96130  0.83840  Biso   1.000  H
  C1429    1.0000 0.25643  0.99155  0.81824  Biso   1.000  C
  C1430    1.0000 0.25299  0.99266  0.76855  Biso   1.000  C
  H1282    1.0000 0.22601  0.95940  0.75341  Biso   1.000  H
  H1283    1.0000 0.38330  0.98281  0.70679  Biso   1.000  H
  C1431    1.0000 0.37568  0.99486  0.74893  Biso   1.000  C
  H1284    1.0000 0.37421  0.99631  0.79051  Biso   1.000  H
  H1285    1.0000 0.26419  0.00011  0.83490  Biso   1.000  H
  C1432    1.0000 0.26342  0.00130  0.79187  Biso   1.000  C
  H1286    1.0000 0.25771  0.00130  0.75089  Biso   1.000  H
  C1433    1.0000 0.35744  0.01877  0.74059  Biso   1.000  C
  C1434    1.0000 0.28361  0.03023  0.78865  Biso   1.000  C
  N191     1.0000 0.35014  0.03593  0.75977  Biso   1.000  N
  H1287    1.0000 0.35140  0.02121  0.72141  Biso   1.000  H
  N192     1.0000 0.28811  0.04000  0.76373  Biso   1.000  N
  H1288    1.0000 0.29161  0.03921  0.80499  Biso   1.000  H
  C1435    1.0000 0.33412  0.05999  0.74765  Biso   1.000  C
  C1436    1.0000 0.30733  0.06492  0.76738  Biso   1.000  C
  H1289    1.0000 0.32800  0.05559  0.72770  Biso   1.000  H
  C1437    1.0000 0.35260  0.08768  0.74829  Biso   1.000  C
  H1290    1.0000 0.31260  0.06839  0.78780  Biso   1.000  H
  C1438    1.0000 0.28951  0.09205  0.75279  Biso   1.000  C
  H1291    1.0000 0.36230  0.08949  0.76689  Biso   1.000  H
  H1292    1.0000 0.36730  0.08689  0.73310  Biso   1.000  H
  C1439    1.0000 0.33463  0.11081  0.74394  Biso   1.000  C
  C1440    1.0000 0.30871  0.11514  0.74978  Biso   1.000  C
  H1293    1.0000 0.28190  0.08640  0.73391  Biso   1.000  H
  H1294    1.0000 0.27330  0.09760  0.76521  Biso   1.000  H
  H1295    1.0000 0.34359  0.12651  0.73470  Biso   1.000  H
  H1296    1.0000 0.30199  0.13410  0.75219  Biso   1.000  H
  C1441    1.0000 0.74039  0.67710  0.68954  Biso   1.000  C
  C1442    1.0000 0.75661  0.65220  0.69250  Biso   1.000  C
  C1443    1.0000 0.73092  0.69028  0.71469  Biso   1.000  C
  H1297    1.0000 0.73600  0.68469  0.67130  Biso   1.000  H
  H1298    1.0000 0.76111  0.64190  0.67561  Biso   1.000  H
  C1444    1.0000 0.76636  0.64164  0.71735  Biso   1.000  C
  N193     1.0000 0.71356  0.71356  0.71356  Biso   1.000  N
  C1445    1.0000 0.74135  0.67829  0.73958  Biso   1.000  C
  C1446    1.0000 0.75793  0.65453  0.74199  Biso   1.000  C
  C1447    1.0000 0.78505  0.61521  0.71921  Biso   1.000  C
  C1448    1.0000 0.69028  0.71469  0.73092  Biso   1.000  C
  C1449    1.0000 0.71469  0.73092  0.69028  Biso   1.000  C
  H1299    1.0000 0.73641  0.68770  0.75691  Biso   1.000  H
  H1300    1.0000 0.76339  0.64719  0.76011  Biso   1.000  H
  N194     1.0000 0.79315  0.60425  0.74033  Biso   1.000  N
  H1301    1.0000 0.79081  0.60681  0.70170  Biso   1.000  H
  C1450    1.0000 0.67710  0.68954  0.74039  Biso   1.000  C
  C1451    1.0000 0.67829  0.73958  0.74135  Biso   1.000  C
  C1452    1.0000 0.68954  0.74039  0.67710  Biso   1.000  C
  C1453    1.0000 0.73958  0.74135  0.67829  Biso   1.000  C
  C1454    1.0000 0.81122  0.57879  0.73724  Biso   1.000  C
  H1302    1.0000 0.68469  0.67130  0.73600  Biso   1.000  H
  C1455    1.0000 0.65220  0.69250  0.75661  Biso   1.000  C
  C1456    1.0000 0.65453  0.74199  0.75793  Biso   1.000  C
  H1303    1.0000 0.68770  0.75691  0.73641  Biso   1.000  H
  H1304    1.0000 0.67130  0.73600  0.68469  Biso   1.000  H
  C1457    1.0000 0.69250  0.75661  0.65220  Biso   1.000  C
  C1458    1.0000 0.74199  0.75793  0.65453  Biso   1.000  C
  H1305    1.0000 0.75691  0.73641  0.68770  Biso   1.000  H
  H1306    1.0000 0.81440  0.57310  0.71691  Biso   1.000  H
  C1459    1.0000 0.83934  0.58417  0.75390  Biso   1.000  C
  C1460    1.0000 0.79550  0.55428  0.75590  Biso   1.000  C
  H1307    1.0000 0.64190  0.67561  0.76111  Biso   1.000  H
  C1461    1.0000 0.64164  0.71735  0.76636  Biso   1.000  C
  H1308    1.0000 0.64719  0.76011  0.76339  Biso   1.000  H
  H1309    1.0000 0.67561  0.76111  0.64190  Biso   1.000  H
  C1462    1.0000 0.71735  0.76636  0.64164  Biso   1.000  C
  H1310    1.0000 0.76011  0.76339  0.64719  Biso   1.000  H
  N195     1.0000 0.85306  0.60843  0.74076  Biso   1.000  N
  H1311    1.0000 0.83550  0.58769  0.77459  Biso   1.000  H
  C1463    1.0000 0.85862  0.55825  0.74978  Biso   1.000  C
  C1464    1.0000 0.81700  0.53062  0.76015  Biso   1.000  C
  H1312    1.0000 0.78929  0.56209  0.77451  Biso   1.000  H
  H1313    1.0000 0.77850  0.54701  0.74571  Biso   1.000  H
  C1465    1.0000 0.61521  0.71921  0.78505  Biso   1.000  C
  C1466    1.0000 0.71921  0.78505  0.61521  Biso   1.000  C
  C1467    1.0000 0.86091  0.63010  0.75646  Biso   1.000  C
  H1314    1.0000 0.86319  0.55601  0.72930  Biso   1.000  H
  H1315    1.0000 0.87669  0.56119  0.76019  Biso   1.000  H
  C1468    1.0000 0.84544  0.53385  0.75968  Biso   1.000  C
  H1316    1.0000 0.80979  0.51200  0.76339  Biso   1.000  H
  N196     1.0000 0.60425  0.74033  0.79315  Biso   1.000  N
  H1317    1.0000 0.60681  0.70170  0.79081  Biso   1.000  H
  N197     1.0000 0.74033  0.79315  0.60425  Biso   1.000  N
  H1318    1.0000 0.70170  0.79081  0.60681  Biso   1.000  H
  C1469    1.0000 0.87610  0.65293  0.74673  Biso   1.000  C
  H1319    1.0000 0.85559  0.62999  0.77600  Biso   1.000  H
  H1320    1.0000 0.85700  0.51859  0.76651  Biso   1.000  H
  C1470    1.0000 0.57879  0.73724  0.81122  Biso   1.000  C
  C1471    1.0000 0.73724  0.81122  0.57879  Biso   1.000  C
  C1472    1.0000 0.88484  0.67292  0.76454  Biso   1.000  C
  C1473    1.0000 0.88256  0.65835  0.71761  Biso   1.000  C
  H1321    1.0000 0.57310  0.71691  0.81440  Biso   1.000  H
  C1474    1.0000 0.58417  0.75390  0.83934  Biso   1.000  C
  C1475    1.0000 0.55428  0.75590  0.79550  Biso   1.000  C
  H1322    1.0000 0.71691  0.81440  0.57310  Biso   1.000  H
  C1476    1.0000 0.75390  0.83934  0.58417  Biso   1.000  C
  C1477    1.0000 0.75590  0.79550  0.55428  Biso   1.000  C
  C1478    1.0000 0.90272  0.69628  0.75712  Biso   1.000  C
  H1323    1.0000 0.87870  0.67159  0.78381  Biso   1.000  H
  H1324    1.0000 0.87620  0.64580  0.70300  Biso   1.000  H
  C1479    1.0000 0.89807  0.68192  0.71140  Biso   1.000  C
  N198     1.0000 0.60843  0.74076  0.85306  Biso   1.000  N
  H1325    1.0000 0.58769  0.77459  0.83550  Biso   1.000  H
  C1480    1.0000 0.55825  0.74978  0.85862  Biso   1.000  C
  C1481    1.0000 0.53062  0.76015  0.81700  Biso   1.000  C
  H1326    1.0000 0.56209  0.77451  0.78929  Biso   1.000  H
  H1327    1.0000 0.54701  0.74571  0.77850  Biso   1.000  H
  N199     1.0000 0.74076  0.85306  0.60843  Biso   1.000  N
  H1328    1.0000 0.77459  0.83550  0.58769  Biso   1.000  H
  C1482    1.0000 0.74978  0.85862  0.55825  Biso   1.000  C
  C1483    1.0000 0.76015  0.81700  0.53062  Biso   1.000  C
  H1329    1.0000 0.77451  0.78929  0.56209  Biso   1.000  H
  H1330    1.0000 0.74571  0.77850  0.54701  Biso   1.000  H
  C1484    1.0000 0.90921  0.70042  0.72819  Biso   1.000  C
  H1331    1.0000 0.90999  0.70869  0.77131  Biso   1.000  H
  H1332    1.0000 0.90121  0.68521  0.69169  Biso   1.000  H
  C1485    1.0000 0.63010  0.75646  0.86091  Biso   1.000  C
  H1333    1.0000 0.55601  0.72930  0.86319  Biso   1.000  H
  H1334    1.0000 0.56119  0.76019  0.87669  Biso   1.000  H
  C1486    1.0000 0.53385  0.75968  0.84544  Biso   1.000  C
  H1335    1.0000 0.51200  0.76339  0.80979  Biso   1.000  H
  C1487    1.0000 0.75646  0.86091  0.63010  Biso   1.000  C
  H1336    1.0000 0.72930  0.86319  0.55601  Biso   1.000  H
  H1337    1.0000 0.76019  0.87669  0.56119  Biso   1.000  H
  C1488    1.0000 0.75968  0.84544  0.53385  Biso   1.000  C
  H1338    1.0000 0.76339  0.80979  0.51200  Biso   1.000  H
  N200     1.0000 0.92657  0.72448  0.72053  Biso   1.000  N
  C1489    1.0000 0.65293  0.74673  0.87610  Biso   1.000  C
  H1339    1.0000 0.62999  0.77600  0.85559  Biso   1.000  H
  H1340    1.0000 0.51859  0.76651  0.85700  Biso   1.000  H
  C1490    1.0000 0.74673  0.87610  0.65293  Biso   1.000  C
  H1341    1.0000 0.77600  0.85559  0.62999  Biso   1.000  H
  H1342    1.0000 0.76651  0.85700  0.51859  Biso   1.000  H
  C1491    1.0000 0.92294  0.74039  0.69267  Biso   1.000  C
  C1492    1.0000 0.95100  0.73028  0.73754  Biso   1.000  C
  C1493    1.0000 0.67292  0.76454  0.88484  Biso   1.000  C
  C1494    1.0000 0.65835  0.71761  0.88256  Biso   1.000  C
  C1495    1.0000 0.76454  0.88484  0.67292  Biso   1.000  C
  C1496    1.0000 0.71761  0.88256  0.65835  Biso   1.000  C
  C1497    1.0000 0.89314  0.74605  0.68629  Biso   1.000  C
  C1498    1.0000 0.94464  0.74880  0.67605  Biso   1.000  C
  C1499    1.0000 0.95791  0.75665  0.74315  Biso   1.000  C
  C1500    1.0000 0.96757  0.70816  0.74837  Biso   1.000  C
  C1501    1.0000 0.69628  0.75712  0.90272  Biso   1.000  C
  H1343    1.0000 0.67159  0.78381  0.87870  Biso   1.000  H
  H1344    1.0000 0.64580  0.70300  0.87620  Biso   1.000  H
  C1502    1.0000 0.68192  0.71140  0.89807  Biso   1.000  C
  C1503    1.0000 0.75712  0.90272  0.69628  Biso   1.000  C
  H1345    1.0000 0.78381  0.87870  0.67159  Biso   1.000  H
  H1346    1.0000 0.70300  0.87620  0.64580  Biso   1.000  H
  C1504    1.0000 0.71140  0.89807  0.68192  Biso   1.000  C
  H1347    1.0000 0.87780  0.74061  0.69830  Biso   1.000  H
  C1505    1.0000 0.88973  0.76070  0.65980  Biso   1.000  C
  C1506    1.0000 0.93711  0.76305  0.65254  Biso   1.000  C
  H1348    1.0000 0.96401  0.74490  0.68060  Biso   1.000  H
  H1349    1.0000 0.94650  0.77169  0.73589  Biso   1.000  H
  C1507    1.0000 0.98266  0.76326  0.76023  Biso   1.000  C
  C1508    1.0000 0.99078  0.71543  0.76326  Biso   1.000  C
  H1350    1.0000 0.96260  0.68881  0.74530  Biso   1.000  H
  C1509    1.0000 0.70042  0.72819  0.90921  Biso   1.000  C
  H1351    1.0000 0.70869  0.77131  0.90999  Biso   1.000  H
  H1352    1.0000 0.68521  0.69169  0.90121  Biso   1.000  H
  C1510    1.0000 0.72819  0.90921  0.70042  Biso   1.000  C
  H1353    1.0000 0.77131  0.90999  0.70869  Biso   1.000  H
  H1354    1.0000 0.69169  0.90121  0.68521  Biso   1.000  H
  H1355    1.0000 0.87089  0.76510  0.65370  Biso   1.000  H
  C1511    1.0000 0.91025  0.76823  0.64395  Biso   1.000  C
  H1356    1.0000 0.95211  0.77020  0.64090  Biso   1.000  H
  H1357    1.0000 0.98761  0.78251  0.76420  Biso   1.000  H
  C1512    1.0000 0.99902  0.74144  0.77075  Biso   1.000  C
  H1358    1.0000 0.00279  0.70020  0.76919  Biso   1.000  H
  N201     1.0000 0.72448  0.72053  0.92657  Biso   1.000  N
  N202     1.0000 0.72053  0.92657  0.72448  Biso   1.000  N
  C1513    1.0000 0.90353  0.78304  0.61698  Biso   1.000  C
  C1514    1.0000 0.02598  0.74931  0.78724  Biso   1.000  C
  C1515    1.0000 0.74039  0.69267  0.92294  Biso   1.000  C
  C1516    1.0000 0.73028  0.73754  0.95100  Biso   1.000  C
  C1517    1.0000 0.69267  0.92294  0.74039  Biso   1.000  C
  C1518    1.0000 0.73754  0.95100  0.73028  Biso   1.000  C
  N203     1.0000 0.92051  0.78933  0.59855  Biso   1.000  N
  H1359    1.0000 0.88420  0.78810  0.61380  Biso   1.000  H
  N204     1.0000 0.04363  0.73165  0.79379  Biso   1.000  N
  H1360    1.0000 0.02899  0.76860  0.79249  Biso   1.000  H
  C1519    1.0000 0.74605  0.68629  0.89314  Biso   1.000  C
  C1520    1.0000 0.74880  0.67605  0.94464  Biso   1.000  C
  C1521    1.0000 0.75665  0.74315  0.95791  Biso   1.000  C
  C1522    1.0000 0.70816  0.74837  0.96757  Biso   1.000  C
  C1523    1.0000 0.68629  0.89314  0.74605  Biso   1.000  C
  C1524    1.0000 0.67605  0.94464  0.74880  Biso   1.000  C
  C1525    1.0000 0.74315  0.95791  0.75665  Biso   1.000  C
  C1526    1.0000 0.74837  0.96757  0.70816  Biso   1.000  C
  C1527    1.0000 0.90820  0.80410  0.57259  Biso   1.000  C
  C1528    1.0000 0.06974  0.74080  0.81071  Biso   1.000  C
  H1361    1.0000 0.74061  0.69830  0.87780  Biso   1.000  H
  C1529    1.0000 0.76070  0.65980  0.88973  Biso   1.000  C
  C1530    1.0000 0.76305  0.65254  0.93711  Biso   1.000  C
  H1362    1.0000 0.74490  0.68060  0.96401  Biso   1.000  H
  H1363    1.0000 0.77169  0.73589  0.94650  Biso   1.000  H
  C1531    1.0000 0.76326  0.76023  0.98266  Biso   1.000  C
  C1532    1.0000 0.71543  0.76326  0.99078  Biso   1.000  C
  H1364    1.0000 0.68881  0.74530  0.96260  Biso   1.000  H
  H1365    1.0000 0.69830  0.87780  0.74061  Biso   1.000  H
  C1533    1.0000 0.65980  0.88973  0.76070  Biso   1.000  C
  C1534    1.0000 0.65254  0.93711  0.76305  Biso   1.000  C
  H1366    1.0000 0.68060  0.96401  0.74490  Biso   1.000  H
  H1367    1.0000 0.73589  0.94650  0.77169  Biso   1.000  H
  C1535    1.0000 0.76023  0.98266  0.76326  Biso   1.000  C
  C1536    1.0000 0.76326  0.99078  0.71543  Biso   1.000  C
  H1368    1.0000 0.74530  0.96260  0.68881  Biso   1.000  H
  C1537    1.0000 0.92448  0.83221  0.56757  Biso   1.000  C
  H1369    1.0000 0.88719  0.80740  0.57470  Biso   1.000  H
  C1538    1.0000 0.91447  0.78436  0.54880  Biso   1.000  C
  H1370    1.0000 0.06609  0.76081  0.81719  Biso   1.000  H
  C1539    1.0000 0.07279  0.72350  0.83633  Biso   1.000  C
  C1540    1.0000 0.09318  0.74229  0.79057  Biso   1.000  C
  H1371    1.0000 0.76510  0.65370  0.87089  Biso   1.000  H
  C1541    1.0000 0.76823  0.64395  0.91025  Biso   1.000  C
  H1372    1.0000 0.77020  0.64090  0.95211  Biso   1.000  H
  H1373    1.0000 0.78251  0.76420  0.98761  Biso   1.000  H
  C1542    1.0000 0.74144  0.77075  0.99902  Biso   1.000  C
  H1374    1.0000 0.70020  0.76919  0.00279  Biso   1.000  H
  H1375    1.0000 0.65370  0.87089  0.76510  Biso   1.000  H
  C1543    1.0000 0.64395  0.91025  0.76823  Biso   1.000  C
  H1376    1.0000 0.64090  0.95211  0.77020  Biso   1.000  H
  H1377    1.0000 0.76420  0.98761  0.78251  Biso   1.000  H
  C1544    1.0000 0.77075  0.99902  0.74144  Biso   1.000  C
  H1378    1.0000 0.76919  0.00279  0.70020  Biso   1.000  H
  N205     1.0000 0.92158  0.85257  0.59155  Biso   1.000  N
  H1379    1.0000 0.94511  0.82810  0.56410  Biso   1.000  H
  C1545    1.0000 0.91059  0.84544  0.53946  Biso   1.000  C
  H1380    1.0000 0.90150  0.76781  0.54999  Biso   1.000  H
  H1381    1.0000 0.93421  0.77719  0.55081  Biso   1.000  H
  C1546    1.0000 0.91119  0.79829  0.51927  Biso   1.000  C
  N206     1.0000 0.04815  0.72378  0.85353  Biso   1.000  N
  H1382    1.0000 0.07691  0.70340  0.83059  Biso   1.000  H
  C1547    1.0000 0.09741  0.73436  0.85495  Biso   1.000  C
  C1548    1.0000 0.12256  0.74560  0.80659  Biso   1.000  C
  H1383    1.0000 0.09030  0.75881  0.77771  Biso   1.000  H
  H1384    1.0000 0.09350  0.72480  0.77879  Biso   1.000  H
  C1549    1.0000 0.78304  0.61698  0.90353  Biso   1.000  C
  C1550    1.0000 0.74931  0.78724  0.02598  Biso   1.000  C
  C1551    1.0000 0.61698  0.90353  0.78304  Biso   1.000  C
  C1552    1.0000 0.78724  0.02598  0.74931  Biso   1.000  C
  C1553    1.0000 0.94321  0.86729  0.59932  Biso   1.000  C
  C1554    1.0000 0.90895  0.82707  0.51595  Biso   1.000  C
  H1385    1.0000 0.89109  0.85201  0.54411  Biso   1.000  H
  H1386    1.0000 0.92179  0.86240  0.53380  Biso   1.000  H
  H1387    1.0000 0.91070  0.78639  0.50281  Biso   1.000  H
  C1555    1.0000 0.03831  0.69990  0.86071  Biso   1.000  C
  H1388    1.0000 0.09090  0.75110  0.86609  Biso   1.000  H
  H1389    1.0000 0.10310  0.71930  0.86861  Biso   1.000  H
  C1556    1.0000 0.12311  0.74276  0.83682  Biso   1.000  C
  H1390    1.0000 0.13961  0.74940  0.79631  Biso   1.000  H
  N207     1.0000 0.78933  0.59855  0.92051  Biso   1.000  N
  H1391    1.0000 0.78810  0.61380  0.88420  Biso   1.000  H
  N208     1.0000 0.73165  0.79379  0.04363  Biso   1.000  N
  H1392    1.0000 0.76860  0.79249  0.02899  Biso   1.000  H
  N209     1.0000 0.59855  0.92051  0.78933  Biso   1.000  N
  H1393    1.0000 0.61380  0.88420  0.78810  Biso   1.000  H
  N210     1.0000 0.79379  0.04363  0.73165  Biso   1.000  N
  H1394    1.0000 0.79249  0.02899  0.76860  Biso   1.000  H
  C1557    1.0000 0.94089  0.88915  0.62159  Biso   1.000  C
  H1395    1.0000 0.96111  0.86400  0.59051  Biso   1.000  H
  H1396    1.0000 0.90620  0.83479  0.49741  Biso   1.000  H
  C1558    1.0000 0.01178  0.69745  0.88045  Biso   1.000  C
  H1397    1.0000 0.04730  0.68301  0.85399  Biso   1.000  H
  H1398    1.0000 0.14069  0.74630  0.84629  Biso   1.000  H
  C1559    1.0000 0.80410  0.57259  0.90820  Biso   1.000  C
  C1560    1.0000 0.74080  0.81071  0.06974  Biso   1.000  C
  C1561    1.0000 0.57259  0.90820  0.80410  Biso   1.000  C
  C1562    1.0000 0.81071  0.06974  0.74080  Biso   1.000  C
  C1563    1.0000 0.96503  0.90148  0.63130  Biso   1.000  C
  C1564    1.0000 0.91469  0.89623  0.63377  Biso   1.000  C
  C1565    1.0000 0.99804  0.72030  0.88704  Biso   1.000  C
  C1566    1.0000 0.00422  0.66999  0.89005  Biso   1.000  C
  C1567    1.0000 0.83221  0.56757  0.92448  Biso   1.000  C
  H1399    1.0000 0.80740  0.57470  0.88719  Biso   1.000  H
  C1568    1.0000 0.78436  0.54880  0.91447  Biso   1.000  C
  H1400    1.0000 0.76081  0.81719  0.06609  Biso   1.000  H
  C1569    1.0000 0.72350  0.83633  0.07279  Biso   1.000  C
  C1570    1.0000 0.74229  0.79057  0.09318  Biso   1.000  C
  C1571    1.0000 0.56757  0.92448  0.83221  Biso   1.000  C
  H1401    1.0000 0.57470  0.88719  0.80740  Biso   1.000  H
  C1572    1.0000 0.54880  0.91447  0.78436  Biso   1.000  C
  H1402    1.0000 0.81719  0.06609  0.76081  Biso   1.000  H
  C1573    1.0000 0.83633  0.07279  0.72350  Biso   1.000  C
  C1574    1.0000 0.79057  0.09318  0.74229  Biso   1.000  C
  C1575    1.0000 0.96452  0.91983  0.65301  Biso   1.000  C
  H1403    1.0000 0.98270  0.89700  0.62240  Biso   1.000  H
  H1404    1.0000 0.89749  0.88811  0.62679  Biso   1.000  H
  C1576    1.0000 0.91424  0.91503  0.65579  Biso   1.000  C
  C1577    1.0000 0.97308  0.71872  0.90697  Biso   1.000  C
  H1405    1.0000 0.00369  0.73809  0.87930  Biso   1.000  H
  C1578    1.0000 0.98246  0.66737  0.90938  Biso   1.000  C
  H1406    1.0000 0.01399  0.65359  0.88331  Biso   1.000  H
  N211     1.0000 0.85257  0.59155  0.92158  Biso   1.000  N
  H1407    1.0000 0.82810  0.56410  0.94511  Biso   1.000  H
  C1579    1.0000 0.84544  0.53946  0.91059  Biso   1.000  C
  H1408    1.0000 0.76781  0.54999  0.90150  Biso   1.000  H
  H1409    1.0000 0.77719  0.55081  0.93421  Biso   1.000  H
  C1580    1.0000 0.79829  0.51927  0.91119  Biso   1.000  C
  N212     1.0000 0.72378  0.85353  0.04815  Biso   1.000  N
  H1410    1.0000 0.70340  0.83059  0.07691  Biso   1.000  H
  C1581    1.0000 0.73436  0.85495  0.09741  Biso   1.000  C
  C1582    1.0000 0.74560  0.80659  0.12256  Biso   1.000  C
  H1411    1.0000 0.75881  0.77771  0.09030  Biso   1.000  H
  H1412    1.0000 0.72480  0.77879  0.09350  Biso   1.000  H
  N213     1.0000 0.59155  0.92158  0.85257  Biso   1.000  N
  H1413    1.0000 0.56410  0.94511  0.82810  Biso   1.000  H
  C1583    1.0000 0.53946  0.91059  0.84544  Biso   1.000  C
  H1414    1.0000 0.54999  0.90150  0.76781  Biso   1.000  H
  H1415    1.0000 0.55081  0.93421  0.77719  Biso   1.000  H
  C1584    1.0000 0.51927  0.91119  0.79829  Biso   1.000  C
  N214     1.0000 0.85353  0.04815  0.72378  Biso   1.000  N
  H1416    1.0000 0.83059  0.07691  0.70340  Biso   1.000  H
  C1585    1.0000 0.85495  0.09741  0.73436  Biso   1.000  C
  C1586    1.0000 0.80659  0.12256  0.74560  Biso   1.000  C
  H1417    1.0000 0.77771  0.09030  0.75881  Biso   1.000  H
  H1418    1.0000 0.77879  0.09350  0.72480  Biso   1.000  H
  C1587    1.0000 0.93788  0.92610  0.66541  Biso   1.000  C
  H1419    1.0000 0.98161  0.92841  0.65990  Biso   1.000  H
  H1420    1.0000 0.89649  0.92019  0.66430  Biso   1.000  H
  C1588    1.0000 0.96672  0.69220  0.91742  Biso   1.000  C
  H1421    1.0000 0.96230  0.73510  0.91200  Biso   1.000  H
  H1422    1.0000 0.97790  0.64930  0.91729  Biso   1.000  H
  C1589    1.0000 0.86729  0.59932  0.94321  Biso   1.000  C
  C1590    1.0000 0.82707  0.51595  0.90895  Biso   1.000  C
  H1423    1.0000 0.85201  0.54411  0.89109  Biso   1.000  H
  H1424    1.0000 0.86240  0.53380  0.92179  Biso   1.000  H
  H1425    1.0000 0.78639  0.50281  0.91070  Biso   1.000  H
  C1591    1.0000 0.69990  0.86071  0.03831  Biso   1.000  C
  H1426    1.0000 0.75110  0.86609  0.09090  Biso   1.000  H
  H1427    1.0000 0.71930  0.86861  0.10310  Biso   1.000  H
  C1592    1.0000 0.74276  0.83682  0.12311  Biso   1.000  C
  H1428    1.0000 0.74940  0.79631  0.13961  Biso   1.000  H
  C1593    1.0000 0.59932  0.94321  0.86729  Biso   1.000  C
  C1594    1.0000 0.51595  0.90895  0.82707  Biso   1.000  C
  H1429    1.0000 0.54411  0.89109  0.85201  Biso   1.000  H
  H1430    1.0000 0.53380  0.92179  0.86240  Biso   1.000  H
  H1431    1.0000 0.50281  0.91070  0.78639  Biso   1.000  H
  C1595    1.0000 0.86071  0.03831  0.69990  Biso   1.000  C
  H1432    1.0000 0.86609  0.09090  0.75110  Biso   1.000  H
  H1433    1.0000 0.86861  0.10310  0.71930  Biso   1.000  H
  C1596    1.0000 0.83682  0.12311  0.74276  Biso   1.000  C
  H1434    1.0000 0.79631  0.13961  0.74940  Biso   1.000  H
  N215     1.0000 0.94029  0.94588  0.69041  Biso   1.000  N
  N216     1.0000 0.94588  0.69041  0.94029  Biso   1.000  N
  C1597    1.0000 0.88915  0.62159  0.94089  Biso   1.000  C
  H1435    1.0000 0.86400  0.59051  0.96111  Biso   1.000  H
  H1436    1.0000 0.83479  0.49741  0.90620  Biso   1.000  H
  C1598    1.0000 0.69745  0.88045  0.01178  Biso   1.000  C
  H1437    1.0000 0.68301  0.85399  0.04730  Biso   1.000  H
  H1438    1.0000 0.74630  0.84629  0.14069  Biso   1.000  H
  C1599    1.0000 0.62159  0.94089  0.88915  Biso   1.000  C
  H1439    1.0000 0.59051  0.96111  0.86400  Biso   1.000  H
  H1440    1.0000 0.49741  0.90620  0.83479  Biso   1.000  H
  C1600    1.0000 0.88045  0.01178  0.69745  Biso   1.000  C
  H1441    1.0000 0.85399  0.04730  0.68301  Biso   1.000  H
  H1442    1.0000 0.84629  0.14069  0.74630  Biso   1.000  H
  C1601    1.0000 0.91742  0.96672  0.69220  Biso   1.000  C
  C1602    1.0000 0.96139  0.94323  0.71174  Biso   1.000  C
  C1603    1.0000 0.92610  0.66541  0.93788  Biso   1.000  C
  C1604    1.0000 0.94323  0.71174  0.96139  Biso   1.000  C
  C1605    1.0000 0.90148  0.63130  0.96503  Biso   1.000  C
  C1606    1.0000 0.89623  0.63377  0.91469  Biso   1.000  C
  C1607    1.0000 0.72030  0.88704  0.99804  Biso   1.000  C
  C1608    1.0000 0.66999  0.89005  0.00422  Biso   1.000  C
  C1609    1.0000 0.63130  0.96503  0.90148  Biso   1.000  C
  C1610    1.0000 0.63377  0.91469  0.89623  Biso   1.000  C
  C1611    1.0000 0.88704  0.99804  0.72030  Biso   1.000  C
  C1612    1.0000 0.89005  0.00422  0.66999  Biso   1.000  C
  C1613    1.0000 0.90938  0.98246  0.66737  Biso   1.000  C
  C1614    1.0000 0.90697  0.97308  0.71872  Biso   1.000  C
  C1615    1.0000 0.97056  0.96465  0.72533  Biso   1.000  C
  C1616    1.0000 0.96992  0.91825  0.72006  Biso   1.000  C
  C1617    1.0000 0.91983  0.65301  0.96452  Biso   1.000  C
  C1618    1.0000 0.91503  0.65579  0.91424  Biso   1.000  C
  C1619    1.0000 0.96465  0.72533  0.97056  Biso   1.000  C
  C1620    1.0000 0.91825  0.72006  0.96992  Biso   1.000  C
  H1443    1.0000 0.89700  0.62240  0.98270  Biso   1.000  H
  H1444    1.0000 0.88811  0.62679  0.89749  Biso   1.000  H
  C1621    1.0000 0.71872  0.90697  0.97308  Biso   1.000  C
  H1445    1.0000 0.73809  0.87930  0.00369  Biso   1.000  H
  C1622    1.0000 0.66737  0.90938  0.98246  Biso   1.000  C
  H1446    1.0000 0.65359  0.88331  0.01399  Biso   1.000  H
  C1623    1.0000 0.65301  0.96452  0.91983  Biso   1.000  C
  H1447    1.0000 0.62240  0.98270  0.89700  Biso   1.000  H
  H1448    1.0000 0.62679  0.89749  0.88811  Biso   1.000  H
  C1624    1.0000 0.65579  0.91424  0.91503  Biso   1.000  C
  H1449    1.0000 0.87930  0.00369  0.73809  Biso   1.000  H
  H1450    1.0000 0.88331  0.01399  0.65359  Biso   1.000  H
  H1451    1.0000 0.91729  0.97790  0.64930  Biso   1.000  H
  H1452    1.0000 0.91200  0.96230  0.73510  Biso   1.000  H
  H1453    1.0000 0.96309  0.98300  0.72100  Biso   1.000  H
  C1625    1.0000 0.99149  0.96224  0.74675  Biso   1.000  C
  C1626    1.0000 0.99008  0.91371  0.74018  Biso   1.000  C
  H1454    1.0000 0.96141  0.90199  0.71140  Biso   1.000  H
  H1455    1.0000 0.92841  0.65990  0.98161  Biso   1.000  H
  H1456    1.0000 0.92019  0.66430  0.89649  Biso   1.000  H
  H1457    1.0000 0.98300  0.72100  0.96309  Biso   1.000  H
  C1627    1.0000 0.96224  0.74675  0.99149  Biso   1.000  C
  C1628    1.0000 0.91371  0.74018  0.99008  Biso   1.000  C
  H1458    1.0000 0.90199  0.71140  0.96141  Biso   1.000  H
  C1629    1.0000 0.69220  0.91742  0.96672  Biso   1.000  C
  H1459    1.0000 0.73510  0.91200  0.96230  Biso   1.000  H
  H1460    1.0000 0.64930  0.91729  0.97790  Biso   1.000  H
  C1630    1.0000 0.66541  0.93788  0.92610  Biso   1.000  C
  H1461    1.0000 0.65990  0.98161  0.92841  Biso   1.000  H
  H1462    1.0000 0.66430  0.89649  0.92019  Biso   1.000  H
  H1463    1.0000 0.99810  0.97909  0.75590  Biso   1.000  H
  C1631    1.0000 0.00247  0.93707  0.75473  Biso   1.000  C
  H1464    1.0000 0.99590  0.89481  0.74460  Biso   1.000  H
  H1465    1.0000 0.97909  0.75590  0.99810  Biso   1.000  H
  C1632    1.0000 0.93707  0.75473  0.00247  Biso   1.000  C
  H1466    1.0000 0.89481  0.74460  0.99590  Biso   1.000  H
  N217     1.0000 0.69041  0.94029  0.94588  Biso   1.000  N
  C1633    1.0000 0.02746  0.93329  0.77532  Biso   1.000  C
  C1634    1.0000 0.93329  0.77532  0.02746  Biso   1.000  C
  C1635    1.0000 0.71174  0.96139  0.94323  Biso   1.000  C
  N218     1.0000 0.03650  0.90929  0.78103  Biso   1.000  N
  H1467    1.0000 0.03610  0.94961  0.78381  Biso   1.000  H
  N219     1.0000 0.90929  0.78103  0.03650  Biso   1.000  N
  H1468    1.0000 0.94961  0.78381  0.03610  Biso   1.000  H
  C1636    1.0000 0.72533  0.97056  0.96465  Biso   1.000  C
  C1637    1.0000 0.72006  0.96992  0.91825  Biso   1.000  C
  C1638    1.0000 0.05737  0.91002  0.80288  Biso   1.000  C
  C1639    1.0000 0.91002  0.80288  0.05737  Biso   1.000  C
  H1469    1.0000 0.72100  0.96309  0.98300  Biso   1.000  H
  C1640    1.0000 0.74675  0.99149  0.96224  Biso   1.000  C
  C1641    1.0000 0.74018  0.99008  0.91371  Biso   1.000  C
  H1470    1.0000 0.71140  0.96141  0.90199  Biso   1.000  H
  H1471    1.0000 0.05830  0.92971  0.81109  Biso   1.000  H
  C1642    1.0000 0.05058  0.88958  0.82543  Biso   1.000  C
  C1643    1.0000 0.08811  0.90153  0.79046  Biso   1.000  C
  H1472    1.0000 0.92971  0.81109  0.05830  Biso   1.000  H
  C1644    1.0000 0.88958  0.82543  0.05058  Biso   1.000  C
  C1645    1.0000 0.90153  0.79046  0.08811  Biso   1.000  C
  H1473    1.0000 0.75590  0.99810  0.97909  Biso   1.000  H
  C1646    1.0000 0.75473  0.00247  0.93707  Biso   1.000  C
  H1474    1.0000 0.74460  0.99590  0.89481  Biso   1.000  H
  N220     1.0000 0.02263  0.89850  0.83887  Biso   1.000  N
  H1475    1.0000 0.04890  0.86991  0.81730  Biso   1.000  H
  C1647    1.0000 0.07362  0.88992  0.85124  Biso   1.000  C
  C1648    1.0000 0.10686  0.89414  0.81216  Biso   1.000  C
  H1476    1.0000 0.08599  0.88521  0.77719  Biso   1.000  H
  H1477    1.0000 0.09600  0.91780  0.77961  Biso   1.000  H
  N221     1.0000 0.89850  0.83887  0.02263  Biso   1.000  N
  H1478    1.0000 0.86991  0.81730  0.04890  Biso   1.000  H
  C1649    1.0000 0.88992  0.85124  0.07362  Biso   1.000  C
  C1650    1.0000 0.89414  0.81216  0.10686  Biso   1.000  C
  H1479    1.0000 0.88521  0.77719  0.08599  Biso   1.000  H
  H1480    1.0000 0.91780  0.77961  0.09600  Biso   1.000  H
  C1651    1.0000 0.77532  0.02746  0.93329  Biso   1.000  C
  C1652    1.0000 0.00397  0.88019  0.84324  Biso   1.000  C
  H1481    1.0000 0.07170  0.90761  0.86259  Biso   1.000  H
  H1482    1.0000 0.07070  0.87341  0.86400  Biso   1.000  H
  C1653    1.0000 0.10295  0.88843  0.83727  Biso   1.000  C
  H1483    1.0000 0.12629  0.89340  0.80640  Biso   1.000  H
  C1654    1.0000 0.88019  0.84324  0.00397  Biso   1.000  C
  H1484    1.0000 0.90761  0.86259  0.07170  Biso   1.000  H
  H1485    1.0000 0.87341  0.86400  0.07070  Biso   1.000  H
  C1655    1.0000 0.88843  0.83727  0.10295  Biso   1.000  C
  H1486    1.0000 0.89340  0.80640  0.12629  Biso   1.000  H
  N222     1.0000 0.78103  0.03650  0.90929  Biso   1.000  N
  H1487    1.0000 0.78381  0.03610  0.94961  Biso   1.000  H
  C1656    1.0000 0.97673  0.88442  0.85675  Biso   1.000  C
  H1488    1.0000 0.00811  0.86140  0.83699  Biso   1.000  H
  H1489    1.0000 0.11881  0.88279  0.84849  Biso   1.000  H
  C1657    1.0000 0.88442  0.85675  0.97673  Biso   1.000  C
  H1490    1.0000 0.86140  0.83699  0.00811  Biso   1.000  H
  H1491    1.0000 0.88279  0.84849  0.11881  Biso   1.000  H
  C1658    1.0000 0.80288  0.05737  0.91002  Biso   1.000  C
  C1659    1.0000 0.96832  0.91243  0.86146  Biso   1.000  C
  C1660    1.0000 0.95902  0.86298  0.86468  Biso   1.000  C
  C1661    1.0000 0.91243  0.86146  0.96832  Biso   1.000  C
  C1662    1.0000 0.86298  0.86468  0.95902  Biso   1.000  C
  H1492    1.0000 0.81109  0.05830  0.92971  Biso   1.000  H
  C1663    1.0000 0.82543  0.05058  0.88958  Biso   1.000  C
  C1664    1.0000 0.79046  0.08811  0.90153  Biso   1.000  C
  C1665    1.0000 0.94317  0.91806  0.87639  Biso   1.000  C
  H1493    1.0000 0.97961  0.92770  0.85451  Biso   1.000  H
  H1494    1.0000 0.96390  0.84390  0.85990  Biso   1.000  H
  C1666    1.0000 0.93461  0.86778  0.87919  Biso   1.000  C
  C1667    1.0000 0.91806  0.87639  0.94317  Biso   1.000  C
  H1495    1.0000 0.92770  0.85451  0.97961  Biso   1.000  H
  H1496    1.0000 0.84390  0.85990  0.96390  Biso   1.000  H
  C1668    1.0000 0.86778  0.87919  0.93461  Biso   1.000  C
  N223     1.0000 0.83887  0.02263  0.89850  Biso   1.000  N
  H1497    1.0000 0.81730  0.04890  0.86991  Biso   1.000  H
  C1669    1.0000 0.85124  0.07362  0.88992  Biso   1.000  C
  C1670    1.0000 0.81216  0.10686  0.89414  Biso   1.000  C
  H1498    1.0000 0.77719  0.08599  0.88521  Biso   1.000  H
  H1499    1.0000 0.77961  0.09600  0.91780  Biso   1.000  H
  C1671    1.0000 0.92489  0.89551  0.88361  Biso   1.000  C
  H1500    1.0000 0.93850  0.93711  0.88160  Biso   1.000  H
  H1501    1.0000 0.92399  0.85210  0.88640  Biso   1.000  H
  C1672    1.0000 0.89551  0.88361  0.92489  Biso   1.000  C
  H1502    1.0000 0.93711  0.88160  0.93850  Biso   1.000  H
  H1503    1.0000 0.85210  0.88640  0.92399  Biso   1.000  H
  C1673    1.0000 0.84324  0.00397  0.88019  Biso   1.000  C
  H1504    1.0000 0.86259  0.07170  0.90761  Biso   1.000  H
  H1505    1.0000 0.86400  0.07070  0.87341  Biso   1.000  H
  C1674    1.0000 0.83727  0.10295  0.88843  Biso   1.000  C
  H1506    1.0000 0.80640  0.12629  0.89340  Biso   1.000  H
  N224     1.0000 0.90127  0.90129  0.90127  Biso   1.000  N
  C1675    1.0000 0.85675  0.97673  0.88442  Biso   1.000  C
  H1507    1.0000 0.83699  0.00811  0.86140  Biso   1.000  H
  H1508    1.0000 0.84849  0.11881  0.88279  Biso   1.000  H
  C1676    1.0000 0.88361  0.92489  0.89551  Biso   1.000  C
  C1677    1.0000 0.86146  0.96832  0.91243  Biso   1.000  C
  C1678    1.0000 0.86468  0.95902  0.86298  Biso   1.000  C
  C1679    1.0000 0.87639  0.94317  0.91806  Biso   1.000  C
  C1680    1.0000 0.87919  0.93461  0.86778  Biso   1.000  C
  H1509    1.0000 0.85451  0.97961  0.92770  Biso   1.000  H
  H1510    1.0000 0.85990  0.96390  0.84390  Biso   1.000  H
  H1511    1.0000 0.88160  0.93850  0.93711  Biso   1.000  H
  H1512    1.0000 0.88640  0.92399  0.85210  Biso   1.000  H
  C1681    1.0000 0.32512  0.29598  0.25719  Biso   1.000  C
  C1682    1.0000 0.30592  0.27296  0.26445  Biso   1.000  C
  H1513    1.0000 0.32141  0.31490  0.26351  Biso   1.000  H
  C1683    1.0000 0.34816  0.29018  0.24151  Biso   1.000  C
  N225     1.0000 0.28149  0.28149  0.28149  Biso   1.000  N
  C1684    1.0000 0.31170  0.24747  0.25681  Biso   1.000  C
  H1514    1.0000 0.36049  0.30541  0.23650  Biso   1.000  H
  C1685    1.0000 0.35507  0.26199  0.23194  Biso   1.000  C
  C1686    1.0000 0.26445  0.30592  0.27296  Biso   1.000  C
  C1687    1.0000 0.27296  0.26445  0.30592  Biso   1.000  C
  C1688    1.0000 0.33553  0.24258  0.23959  Biso   1.000  C
  H1515    1.0000 0.29999  0.23200  0.26270  Biso   1.000  H
  C1689    1.0000 0.38001  0.25724  0.21732  Biso   1.000  C
  C1690    1.0000 0.25719  0.32512  0.29598  Biso   1.000  C
  C1691    1.0000 0.25681  0.31170  0.24747  Biso   1.000  C
  C1692    1.0000 0.29598  0.25719  0.32512  Biso   1.000  C
  C1693    1.0000 0.24747  0.25681  0.31170  Biso   1.000  C
  H1516    1.0000 0.33809  0.22370  0.23270  Biso   1.000  H
  N226     1.0000 0.40047  0.27142  0.21062  Biso   1.000  N
  H1517    1.0000 0.38159  0.23810  0.21090  Biso   1.000  H
  H1518    1.0000 0.26351  0.32141  0.31490  Biso   1.000  H
  C1694    1.0000 0.24151  0.34816  0.29018  Biso   1.000  C
  C1695    1.0000 0.23959  0.33553  0.24258  Biso   1.000  C
  H1519    1.0000 0.26270  0.29999  0.23200  Biso   1.000  H
  H1520    1.0000 0.31490  0.26351  0.32141  Biso   1.000  H
  C1696    1.0000 0.29018  0.24151  0.34816  Biso   1.000  C
  C1697    1.0000 0.24258  0.23959  0.33553  Biso   1.000  C
  H1521    1.0000 0.23200  0.26270  0.29999  Biso   1.000  H
  C1698    1.0000 0.42458  0.25869  0.19526  Biso   1.000  C
  H1522    1.0000 0.23650  0.36049  0.30541  Biso   1.000  H
  C1699    1.0000 0.23194  0.35507  0.26199  Biso   1.000  C
  H1523    1.0000 0.23270  0.33809  0.22370  Biso   1.000  H
  H1524    1.0000 0.30541  0.23650  0.36049  Biso   1.000  H
  C1700    1.0000 0.26199  0.23194  0.35507  Biso   1.000  C
  H1525    1.0000 0.22370  0.23270  0.33809  Biso   1.000  H
  H1526    1.0000 0.42099  0.23810  0.19100  Biso   1.000  H
  C1701    1.0000 0.42891  0.27541  0.16858  Biso   1.000  C
  C1702    1.0000 0.45099  0.26244  0.21263  Biso   1.000  C
  C1703    1.0000 0.21732  0.38001  0.25724  Biso   1.000  C
  C1704    1.0000 0.25724  0.21732  0.38001  Biso   1.000  C
  N227     1.0000 0.40235  0.27083  0.14985  Biso   1.000  N
  H1527    1.0000 0.43249  0.29611  0.17250  Biso   1.000  H
  C1705    1.0000 0.45344  0.26161  0.15093  Biso   1.000  C
  C1706    1.0000 0.47631  0.25651  0.19614  Biso   1.000  C
  H1528    1.0000 0.45180  0.28230  0.21980  Biso   1.000  H
  H1529    1.0000 0.45030  0.24949  0.22929  Biso   1.000  H
  N228     1.0000 0.21062  0.40047  0.27142  Biso   1.000  N
  H1530    1.0000 0.21090  0.38159  0.23810  Biso   1.000  H
  N229     1.0000 0.27142  0.21062  0.40047  Biso   1.000  N
  H1531    1.0000 0.23810  0.21090  0.38159  Biso   1.000  H
  C1707    1.0000 0.39230  0.29207  0.14010  Biso   1.000  C
  H1532    1.0000 0.44681  0.24320  0.14310  Biso   1.000  H
  H1533    1.0000 0.45820  0.27420  0.13470  Biso   1.000  H
  C1708    1.0000 0.47829  0.25685  0.16742  Biso   1.000  C
  H1534    1.0000 0.49310  0.25190  0.20651  Biso   1.000  H
  C1709    1.0000 0.19526  0.42458  0.25869  Biso   1.000  C
  C1710    1.0000 0.25869  0.19526  0.42458  Biso   1.000  C
  C1711    1.0000 0.36672  0.29613  0.12004  Biso   1.000  C
  H1535    1.0000 0.40160  0.30921  0.14560  Biso   1.000  H
  H1536    1.0000 0.49619  0.25399  0.15840  Biso   1.000  H
  H1537    1.0000 0.19100  0.42099  0.23810  Biso   1.000  H
  C1712    1.0000 0.16858  0.42891  0.27541  Biso   1.000  C
  C1713    1.0000 0.21263  0.45099  0.26244  Biso   1.000  C
  H1538    1.0000 0.23810  0.19100  0.42099  Biso   1.000  H
  C1714    1.0000 0.27541  0.16858  0.42891  Biso   1.000  C
  C1715    1.0000 0.26244  0.21263  0.45099  Biso   1.000  C
  C1716    1.0000 0.35676  0.31938  0.10778  Biso   1.000  C
  C1717    1.0000 0.35215  0.26985  0.11409  Biso   1.000  C
  N230     1.0000 0.14985  0.40235  0.27083  Biso   1.000  N
  H1539    1.0000 0.17250  0.43249  0.29611  Biso   1.000  H
  C1718    1.0000 0.15093  0.45344  0.26161  Biso   1.000  C
  C1719    1.0000 0.19614  0.47631  0.25651  Biso   1.000  C
  H1540    1.0000 0.21980  0.45180  0.28230  Biso   1.000  H
  H1541    1.0000 0.22929  0.45030  0.24949  Biso   1.000  H
  N231     1.0000 0.27083  0.14985  0.40235  Biso   1.000  N
  H1542    1.0000 0.29611  0.17250  0.43249  Biso   1.000  H
  C1720    1.0000 0.26161  0.15093  0.45344  Biso   1.000  C
  C1721    1.0000 0.25651  0.19614  0.47631  Biso   1.000  C
  H1543    1.0000 0.28230  0.21980  0.45180  Biso   1.000  H
  H1544    1.0000 0.24949  0.22929  0.45030  Biso   1.000  H
  C1722    1.0000 0.33382  0.31767  0.09090  Biso   1.000  C
  H1545    1.0000 0.36580  0.33719  0.11089  Biso   1.000  H
  H1546    1.0000 0.35889  0.25231  0.12171  Biso   1.000  H
  C1723    1.0000 0.32966  0.27055  0.09822  Biso   1.000  C
  C1724    1.0000 0.14010  0.39230  0.29207  Biso   1.000  C
  H1547    1.0000 0.14310  0.44681  0.24320  Biso   1.000  H
  H1548    1.0000 0.13470  0.45820  0.27420  Biso   1.000  H
  C1725    1.0000 0.16742  0.47829  0.25685  Biso   1.000  C
  H1549    1.0000 0.20651  0.49310  0.25190  Biso   1.000  H
  C1726    1.0000 0.29207  0.14010  0.39230  Biso   1.000  C
  H1550    1.0000 0.24320  0.14310  0.44681  Biso   1.000  H
  H1551    1.0000 0.27420  0.13470  0.45820  Biso   1.000  H
  C1727    1.0000 0.25685  0.16742  0.47829  Biso   1.000  C
  H1552    1.0000 0.25190  0.20651  0.49310  Biso   1.000  H
  C1728    1.0000 0.32124  0.29508  0.08425  Biso   1.000  C
  H1553    1.0000 0.32651  0.33500  0.08331  Biso   1.000  H
  H1554    1.0000 0.31859  0.25370  0.09611  Biso   1.000  H
  C1729    1.0000 0.12004  0.36672  0.29613  Biso   1.000  C
  H1555    1.0000 0.14560  0.40160  0.30921  Biso   1.000  H
  H1556    1.0000 0.15840  0.49619  0.25399  Biso   1.000  H
  C1730    1.0000 0.29613  0.12004  0.36672  Biso   1.000  C
  H1557    1.0000 0.30921  0.14560  0.40160  Biso   1.000  H
  H1558    1.0000 0.25399  0.15840  0.49619  Biso   1.000  H
  N232     1.0000 0.29762  0.29367  0.06300  Biso   1.000  N
  C1731    1.0000 0.10778  0.35676  0.31938  Biso   1.000  C
  C1732    1.0000 0.11409  0.35215  0.26985  Biso   1.000  C
  C1733    1.0000 0.31938  0.10778  0.35676  Biso   1.000  C
  C1734    1.0000 0.26985  0.11409  0.35215  Biso   1.000  C
  C1735    1.0000 0.27622  0.31590  0.06677  Biso   1.000  C
  C1736    1.0000 0.29715  0.27546  0.04149  Biso   1.000  C
  C1737    1.0000 0.09090  0.33382  0.31767  Biso   1.000  C
  H1559    1.0000 0.11089  0.36580  0.33719  Biso   1.000  H
  H1560    1.0000 0.12171  0.35889  0.25231  Biso   1.000  H
  C1738    1.0000 0.09822  0.32966  0.27055  Biso   1.000  C
  C1739    1.0000 0.31767  0.09090  0.33382  Biso   1.000  C
  H1561    1.0000 0.33719  0.11089  0.36580  Biso   1.000  H
  H1562    1.0000 0.25231  0.12171  0.35889  Biso   1.000  H
  C1740    1.0000 0.27055  0.09822  0.32966  Biso   1.000  C
  C1741    1.0000 0.26667  0.32977  0.04233  Biso   1.000  C
  C1742    1.0000 0.26746  0.32478  0.09257  Biso   1.000  C
  C1743    1.0000 0.32017  0.26187  0.03051  Biso   1.000  C
  C1744    1.0000 0.27027  0.26701  0.03170  Biso   1.000  C
  C1745    1.0000 0.08425  0.32124  0.29508  Biso   1.000  C
  H1563    1.0000 0.08331  0.32651  0.33500  Biso   1.000  H
  H1564    1.0000 0.09611  0.31859  0.25370  Biso   1.000  H
  C1746    1.0000 0.29508  0.08425  0.32124  Biso   1.000  C
  H1565    1.0000 0.33500  0.08331  0.32651  Biso   1.000  H
  H1566    1.0000 0.25370  0.09611  0.31859  Biso   1.000  H
  H1567    1.0000 0.27200  0.32369  0.02370  Biso   1.000  H
  C1747    1.0000 0.24992  0.35181  0.04655  Biso   1.000  C
  C1748    1.0000 0.24787  0.34763  0.09259  Biso   1.000  C
  H1568    1.0000 0.27401  0.31620  0.10970  Biso   1.000  H
  H1569    1.0000 0.33841  0.26541  0.03870  Biso   1.000  H
  C1749    1.0000 0.31823  0.24356  0.00845  Biso   1.000  C
  C1750    1.0000 0.26854  0.24702  0.00734  Biso   1.000  C
  H1570    1.0000 0.25340  0.27401  0.04060  Biso   1.000  H
  N233     1.0000 0.06300  0.29762  0.29367  Biso   1.000  N
  N234     1.0000 0.29367  0.06300  0.29762  Biso   1.000  N
  H1571    1.0000 0.24540  0.36271  0.03010  Biso   1.000  H
  C1751    1.0000 0.23855  0.36068  0.07055  Biso   1.000  C
  H1572    1.0000 0.24100  0.35390  0.11059  Biso   1.000  H
  H1573    1.0000 0.33489  0.23580  0.99989  Biso   1.000  H
  C1752    1.0000 0.29186  0.23657  0.99870  Biso   1.000  C
  H1574    1.0000 0.25090  0.24230  0.99870  Biso   1.000  H
  C1753    1.0000 0.06677  0.27622  0.31590  Biso   1.000  C
  C1754    1.0000 0.04149  0.29715  0.27546  Biso   1.000  C
  C1755    1.0000 0.31590  0.06677  0.27622  Biso   1.000  C
  C1756    1.0000 0.27546  0.04149  0.29715  Biso   1.000  C
  C1757    1.0000 0.21551  0.38485  0.07236  Biso   1.000  C
  C1758    1.0000 0.28864  0.21641  0.96977  Biso   1.000  C
  C1759    1.0000 0.04233  0.26667  0.32977  Biso   1.000  C
  C1760    1.0000 0.09257  0.26746  0.32478  Biso   1.000  C
  C1761    1.0000 0.03051  0.32017  0.26187  Biso   1.000  C
  C1762    1.0000 0.03170  0.27027  0.26701  Biso   1.000  C
  C1763    1.0000 0.32977  0.04233  0.26667  Biso   1.000  C
  C1764    1.0000 0.32478  0.09257  0.26746  Biso   1.000  C
  C1765    1.0000 0.26187  0.03051  0.32017  Biso   1.000  C
  C1766    1.0000 0.26701  0.03170  0.27027  Biso   1.000  C
  N235     1.0000 0.20670  0.39584  0.09562  Biso   1.000  N
  H1575    1.0000 0.20759  0.39170  0.05500  Biso   1.000  H
  N236     1.0000 0.26374  0.21188  0.96000  Biso   1.000  N
  H1576    1.0000 0.30500  0.20841  0.96081  Biso   1.000  H
  H1577    1.0000 0.02370  0.27200  0.32369  Biso   1.000  H
  C1767    1.0000 0.04655  0.24992  0.35181  Biso   1.000  C
  C1768    1.0000 0.09259  0.24787  0.34763  Biso   1.000  C
  H1578    1.0000 0.10970  0.27401  0.31620  Biso   1.000  H
  H1579    1.0000 0.03870  0.33841  0.26541  Biso   1.000  H
  C1769    1.0000 0.00845  0.31823  0.24356  Biso   1.000  C
  C1770    1.0000 0.00734  0.26854  0.24702  Biso   1.000  C
  H1580    1.0000 0.04060  0.25340  0.27401  Biso   1.000  H
  H1581    1.0000 0.32369  0.02370  0.27200  Biso   1.000  H
  C1771    1.0000 0.35181  0.04655  0.24992  Biso   1.000  C
  C1772    1.0000 0.34763  0.09259  0.24787  Biso   1.000  C
  H1582    1.0000 0.31620  0.10970  0.27401  Biso   1.000  H
  H1583    1.0000 0.26541  0.03870  0.33841  Biso   1.000  H
  C1773    1.0000 0.24356  0.00845  0.31823  Biso   1.000  C
  C1774    1.0000 0.24702  0.00734  0.26854  Biso   1.000  C
  H1584    1.0000 0.27401  0.04060  0.25340  Biso   1.000  H
  C1775    1.0000 0.18705  0.41707  0.09489  Biso   1.000  C
  C1776    1.0000 0.26737  0.19268  0.93508  Biso   1.000  C
  H1585    1.0000 0.03010  0.24540  0.36271  Biso   1.000  H
  C1777    1.0000 0.07055  0.23855  0.36068  Biso   1.000  C
  H1586    1.0000 0.11059  0.24100  0.35390  Biso   1.000  H
  H1587    1.0000 0.99989  0.33489  0.23580  Biso   1.000  H
  C1778    1.0000 0.99870  0.29186  0.23657  Biso   1.000  C
  H1588    1.0000 0.99870  0.25090  0.24230  Biso   1.000  H
  H1589    1.0000 0.36271  0.03010  0.24540  Biso   1.000  H
  C1779    1.0000 0.36068  0.07055  0.23855  Biso   1.000  C
  H1590    1.0000 0.35390  0.11059  0.24100  Biso   1.000  H
  H1591    1.0000 0.23580  0.99989  0.33489  Biso   1.000  H
  C1780    1.0000 0.23657  0.99870  0.29186  Biso   1.000  C
  H1592    1.0000 0.24230  0.99870  0.25090  Biso   1.000  H
  C1781    1.0000 0.16006  0.40710  0.11145  Biso   1.000  C
  H1593    1.0000 0.18191  0.42140  0.07471  Biso   1.000  H
  C1782    1.0000 0.20194  0.44431  0.10893  Biso   1.000  C
  H1594    1.0000 0.28781  0.18739  0.93161  Biso   1.000  H
  C1783    1.0000 0.24764  0.16587  0.93999  Biso   1.000  C
  C1784    1.0000 0.25278  0.21047  0.90795  Biso   1.000  C
  C1785    1.0000 0.07236  0.21551  0.38485  Biso   1.000  C
  C1786    1.0000 0.96977  0.28864  0.21641  Biso   1.000  C
  C1787    1.0000 0.38485  0.07236  0.21551  Biso   1.000  C
  C1788    1.0000 0.21641  0.96977  0.28864  Biso   1.000  C
  N237     1.0000 0.14737  0.38362  0.09463  Biso   1.000  N
  H1595    1.0000 0.16420  0.40160  0.13161  Biso   1.000  H
  C1789    1.0000 0.13807  0.43223  0.10912  Biso   1.000  C
  H1596    1.0000 0.21161  0.43910  0.12700  Biso   1.000  H
  H1597    1.0000 0.21619  0.45269  0.09581  Biso   1.000  H
  C1790    1.0000 0.17824  0.46449  0.11424  Biso   1.000  C
  N238     1.0000 0.25975  0.14985  0.96407  Biso   1.000  N
  H1598    1.0000 0.22769  0.17201  0.94441  Biso   1.000  H
  C1791    1.0000 0.24828  0.14741  0.91232  Biso   1.000  C
  C1792    1.0000 0.24977  0.19127  0.88486  Biso   1.000  C
  H1599    1.0000 0.23390  0.21809  0.91360  Biso   1.000  H
  H1600    1.0000 0.26519  0.22671  0.90240  Biso   1.000  H
  N239     1.0000 0.09562  0.20670  0.39584  Biso   1.000  N
  H1601    1.0000 0.05500  0.20759  0.39170  Biso   1.000  H
  N240     1.0000 0.96000  0.26374  0.21188  Biso   1.000  N
  H1602    1.0000 0.96081  0.30500  0.20841  Biso   1.000  H
  N241     1.0000 0.39584  0.09562  0.20670  Biso   1.000  N
  H1603    1.0000 0.39170  0.05500  0.20759  Biso   1.000  H
  N242     1.0000 0.21188  0.96000  0.26374  Biso   1.000  N
  H1604    1.0000 0.20841  0.96081  0.30500  Biso   1.000  H
  C1793    1.0000 0.14298  0.36435  0.10938  Biso   1.000  C
  C1794    1.0000 0.14929  0.46135  0.11552  Biso   1.000  C
  H1605    1.0000 0.13020  0.43230  0.08949  Biso   1.000  H
  H1606    1.0000 0.12209  0.42831  0.12230  Biso   1.000  H
  H1607    1.0000 0.18441  0.48350  0.11740  Biso   1.000  H
  C1795    1.0000 0.24060  0.14257  0.98123  Biso   1.000  C
  H1608    1.0000 0.26690  0.13771  0.91051  Biso   1.000  H
  H1609    1.0000 0.23311  0.13269  0.91311  Biso   1.000  H
  C1796    1.0000 0.24393  0.16538  0.88919  Biso   1.000  C
  H1610    1.0000 0.25220  0.19799  0.86590  Biso   1.000  H
  C1797    1.0000 0.09489  0.18705  0.41707  Biso   1.000  C
  C1798    1.0000 0.93508  0.26737  0.19268  Biso   1.000  C
  C1799    1.0000 0.41707  0.09489  0.18705  Biso   1.000  C
  C1800    1.0000 0.19268  0.93508  0.26737  Biso   1.000  C
  C1801    1.0000 0.12608  0.33598  0.09803  Biso   1.000  C
  H1611    1.0000 0.14929  0.36499  0.12860  Biso   1.000  H
  H1612    1.0000 0.13700  0.47680  0.12019  Biso   1.000  H
  C1802    1.0000 0.24892  0.12431  0.00514  Biso   1.000  C
  H1613    1.0000 0.22140  0.14861  0.97879  Biso   1.000  H
  H1614    1.0000 0.23471  0.15639  0.87349  Biso   1.000  H
  C1803    1.0000 0.11145  0.16006  0.40710  Biso   1.000  C
  H1615    1.0000 0.07471  0.18191  0.42140  Biso   1.000  H
  C1804    1.0000 0.10893  0.20194  0.44431  Biso   1.000  C
  H1616    1.0000 0.93161  0.28781  0.18739  Biso   1.000  H
  C1805    1.0000 0.93999  0.24764  0.16587  Biso   1.000  C
  C1806    1.0000 0.90795  0.25278  0.21047  Biso   1.000  C
  C1807    1.0000 0.40710  0.11145  0.16006  Biso   1.000  C
  H1617    1.0000 0.42140  0.07471  0.18191  Biso   1.000  H
  C1808    1.0000 0.44431  0.10893  0.20194  Biso   1.000  C
  H1618    1.0000 0.18739  0.93161  0.28781  Biso   1.000  H
  C1809    1.0000 0.16587  0.93999  0.24764  Biso   1.000  C
  C1810    1.0000 0.21047  0.90795  0.25278  Biso   1.000  C
  C1811    1.0000 0.11799  0.31539  0.11910  Biso   1.000  C
  C1812    1.0000 0.12004  0.33088  0.07217  Biso   1.000  C
  C1813    1.0000 0.22601  0.11292  0.02225  Biso   1.000  C
  C1814    1.0000 0.27492  0.11872  0.01457  Biso   1.000  C
  N243     1.0000 0.09463  0.14737  0.38362  Biso   1.000  N
  H1619    1.0000 0.13161  0.16420  0.40160  Biso   1.000  H
  C1815    1.0000 0.10912  0.13807  0.43223  Biso   1.000  C
  H1620    1.0000 0.12700  0.21161  0.43910  Biso   1.000  H
  H1621    1.0000 0.09581  0.21619  0.45269  Biso   1.000  H
  C1816    1.0000 0.11424  0.17824  0.46449  Biso   1.000  C
  N244     1.0000 0.96407  0.25975  0.14985  Biso   1.000  N
  H1622    1.0000 0.94441  0.22769  0.17201  Biso   1.000  H
  C1817    1.0000 0.91232  0.24828  0.14741  Biso   1.000  C
  C1818    1.0000 0.88486  0.24977  0.19127  Biso   1.000  C
  H1623    1.0000 0.91360  0.23390  0.21809  Biso   1.000  H
  H1624    1.0000 0.90240  0.26519  0.22671  Biso   1.000  H
  N245     1.0000 0.38362  0.09463  0.14737  Biso   1.000  N
  H1625    1.0000 0.40160  0.13161  0.16420  Biso   1.000  H
  C1819    1.0000 0.43223  0.10912  0.13807  Biso   1.000  C
  H1626    1.0000 0.43910  0.12700  0.21161  Biso   1.000  H
  H1627    1.0000 0.45269  0.09581  0.21619  Biso   1.000  H
  C1820    1.0000 0.46449  0.11424  0.17824  Biso   1.000  C
  N246     1.0000 0.14985  0.96407  0.25975  Biso   1.000  N
  H1628    1.0000 0.17201  0.94441  0.22769  Biso   1.000  H
  C1821    1.0000 0.14741  0.91232  0.24828  Biso   1.000  C
  C1822    1.0000 0.19127  0.88486  0.24977  Biso   1.000  C
  H1629    1.0000 0.21809  0.91360  0.23390  Biso   1.000  H
  H1630    1.0000 0.22671  0.90240  0.26519  Biso   1.000  H
  C1823    1.0000 0.10323  0.29124  0.11183  Biso   1.000  C
  H1631    1.0000 0.12301  0.31851  0.13850  Biso   1.000  H
  H1632    1.0000 0.12651  0.34370  0.05779  Biso   1.000  H
  C1824    1.0000 0.10549  0.30886  0.06479  Biso   1.000  C
  C1825    1.0000 0.23174  0.09694  0.04538  Biso   1.000  C
  H1633    1.0000 0.20681  0.11669  0.01719  Biso   1.000  H
  H1634    1.0000 0.29050  0.12580  0.00369  Biso   1.000  H
  C1826    1.0000 0.28098  0.10379  0.03846  Biso   1.000  C
  C1827    1.0000 0.10938  0.14298  0.36435  Biso   1.000  C
  C1828    1.0000 0.11552  0.14929  0.46135  Biso   1.000  C
  H1635    1.0000 0.08949  0.13020  0.43230  Biso   1.000  H
  H1636    1.0000 0.12230  0.12209  0.42831  Biso   1.000  H
  H1637    1.0000 0.11740  0.18441  0.48350  Biso   1.000  H
  C1829    1.0000 0.98123  0.24060  0.14257  Biso   1.000  C
  H1638    1.0000 0.91051  0.26690  0.13771  Biso   1.000  H
  H1639    1.0000 0.91311  0.23311  0.13269  Biso   1.000  H
  C1830    1.0000 0.88919  0.24393  0.16538  Biso   1.000  C
  H1640    1.0000 0.86590  0.25220  0.19799  Biso   1.000  H
  C1831    1.0000 0.36435  0.10938  0.14298  Biso   1.000  C
  C1832    1.0000 0.46135  0.11552  0.14929  Biso   1.000  C
  H1641    1.0000 0.43230  0.08949  0.13020  Biso   1.000  H
  H1642    1.0000 0.42831  0.12230  0.12209  Biso   1.000  H
  H1643    1.0000 0.48350  0.11740  0.18441  Biso   1.000  H
  C1833    1.0000 0.14257  0.98123  0.24060  Biso   1.000  C
  H1644    1.0000 0.13771  0.91051  0.26690  Biso   1.000  H
  H1645    1.0000 0.13269  0.91311  0.23311  Biso   1.000  H
  C1834    1.0000 0.16538  0.88919  0.24393  Biso   1.000  C
  H1646    1.0000 0.19799  0.86590  0.25220  Biso   1.000  H
  C1835    1.0000 0.09696  0.28954  0.08367  Biso   1.000  C
  H1647    1.0000 0.09790  0.27699  0.12529  Biso   1.000  H
  H1648    1.0000 0.10069  0.30630  0.04529  Biso   1.000  H
  C1836    1.0000 0.25818  0.09143  0.05310  Biso   1.000  C
  H1649    1.0000 0.21641  0.08949  0.05641  Biso   1.000  H
  H1650    1.0000 0.29999  0.10170  0.04510  Biso   1.000  H
  C1837    1.0000 0.09803  0.12608  0.33598  Biso   1.000  C
  H1651    1.0000 0.12860  0.14929  0.36499  Biso   1.000  H
  H1652    1.0000 0.12019  0.13700  0.47680  Biso   1.000  H
  C1838    1.0000 0.00514  0.24892  0.12431  Biso   1.000  C
  H1653    1.0000 0.97879  0.22140  0.14861  Biso   1.000  H
  H1654    1.0000 0.87349  0.23471  0.15639  Biso   1.000  H
  C1839    1.0000 0.33598  0.09803  0.12608  Biso   1.000  C
  H1655    1.0000 0.36499  0.12860  0.14929  Biso   1.000  H
  H1656    1.0000 0.47680  0.12019  0.13700  Biso   1.000  H
  C1840    1.0000 0.12431  0.00514  0.24892  Biso   1.000  C
  H1657    1.0000 0.14861  0.97879  0.22140  Biso   1.000  H
  H1658    1.0000 0.15639  0.87349  0.23471  Biso   1.000  H
  N247     1.0000 0.07817  0.26426  0.07479  Biso   1.000  N
  N248     1.0000 0.26426  0.07479  0.07817  Biso   1.000  N
  C1841    1.0000 0.11910  0.11799  0.31539  Biso   1.000  C
  C1842    1.0000 0.07217  0.12004  0.33088  Biso   1.000  C
  C1843    1.0000 0.02225  0.22601  0.11292  Biso   1.000  C
  C1844    1.0000 0.01457  0.27492  0.11872  Biso   1.000  C
  C1845    1.0000 0.31539  0.11910  0.11799  Biso   1.000  C
  C1846    1.0000 0.33088  0.07217  0.12004  Biso   1.000  C
  C1847    1.0000 0.11292  0.02225  0.22601  Biso   1.000  C
  C1848    1.0000 0.11872  0.01457  0.27492  Biso   1.000  C
  C1849    1.0000 0.05310  0.25818  0.09143  Biso   1.000  C
  C1850    1.0000 0.08497  0.25028  0.05011  Biso   1.000  C
  C1851    1.0000 0.28954  0.08367  0.09696  Biso   1.000  C
  C1852    1.0000 0.25028  0.05011  0.08497  Biso   1.000  C
  C1853    1.0000 0.11183  0.10323  0.29124  Biso   1.000  C
  H1659    1.0000 0.13850  0.12301  0.31851  Biso   1.000  H
  H1660    1.0000 0.05779  0.12651  0.34370  Biso   1.000  H
  C1854    1.0000 0.06479  0.10549  0.30886  Biso   1.000  C
  C1855    1.0000 0.04538  0.23174  0.09694  Biso   1.000  C
  H1661    1.0000 0.01719  0.20681  0.11669  Biso   1.000  H
  H1662    1.0000 0.00369  0.29050  0.12580  Biso   1.000  H
  C1856    1.0000 0.03846  0.28098  0.10379  Biso   1.000  C
  C1857    1.0000 0.29124  0.11183  0.10323  Biso   1.000  C
  H1663    1.0000 0.31851  0.13850  0.12301  Biso   1.000  H
  H1664    1.0000 0.34370  0.05779  0.12651  Biso   1.000  H
  C1858    1.0000 0.30886  0.06479  0.10549  Biso   1.000  C
  C1859    1.0000 0.09694  0.04538  0.23174  Biso   1.000  C
  H1665    1.0000 0.11669  0.01719  0.20681  Biso   1.000  H
  H1666    1.0000 0.12580  0.00369  0.29050  Biso   1.000  H
  C1860    1.0000 0.10379  0.03846  0.28098  Biso   1.000  C
  C1861    1.0000 0.11253  0.24320  0.04393  Biso   1.000  C
  C1862    1.0000 0.06295  0.24156  0.03311  Biso   1.000  C
  C1863    1.0000 0.24320  0.04393  0.11253  Biso   1.000  C
  C1864    1.0000 0.24156  0.03311  0.06295  Biso   1.000  C
  C1865    1.0000 0.08367  0.09696  0.28954  Biso   1.000  C
  H1667    1.0000 0.12529  0.09790  0.27699  Biso   1.000  H
  H1668    1.0000 0.04529  0.10069  0.30630  Biso   1.000  H
  H1669    1.0000 0.05641  0.21641  0.08949  Biso   1.000  H
  H1670    1.0000 0.04510  0.29999  0.10170  Biso   1.000  H
  H1671    1.0000 0.27699  0.12529  0.09790  Biso   1.000  H
  H1672    1.0000 0.30630  0.04529  0.10069  Biso   1.000  H
  C1866    1.0000 0.09143  0.05310  0.25818  Biso   1.000  C
  H1673    1.0000 0.08949  0.05641  0.21641  Biso   1.000  H
  H1674    1.0000 0.10170  0.04510  0.29999  Biso   1.000  H
  H1675    1.0000 0.12781  0.24781  0.05641  Biso   1.000  H
  C1867    1.0000 0.11695  0.22871  0.01803  Biso   1.000  C
  C1868    1.0000 0.06848  0.22543  0.00787  Biso   1.000  C
  H1676    1.0000 0.04390  0.24621  0.03810  Biso   1.000  H
  H1677    1.0000 0.24781  0.05641  0.12781  Biso   1.000  H
  C1869    1.0000 0.22871  0.01803  0.11695  Biso   1.000  C
  C1870    1.0000 0.22543  0.00787  0.06848  Biso   1.000  C
  H1678    1.0000 0.24621  0.03810  0.04390  Biso   1.000  H
  N249     1.0000 0.07479  0.07817  0.26426  Biso   1.000  N
  H1679    1.0000 0.13611  0.22430  0.01299  Biso   1.000  H
  C1871    1.0000 0.09589  0.22033  0.99932  Biso   1.000  C
  H1680    1.0000 0.05299  0.21820  0.99699  Biso   1.000  H
  H1681    1.0000 0.22430  0.01299  0.13611  Biso   1.000  H
  C1872    1.0000 0.22033  0.99932  0.09589  Biso   1.000  C
  H1682    1.0000 0.21820  0.99699  0.05299  Biso   1.000  H
  C1873    1.0000 0.05011  0.08497  0.25028  Biso   1.000  C
  C1874    1.0000 0.10325  0.20399  0.97297  Biso   1.000  C
  C1875    1.0000 0.20399  0.97297  0.10325  Biso   1.000  C
  C1876    1.0000 0.04393  0.11253  0.24320  Biso   1.000  C
  C1877    1.0000 0.03311  0.06295  0.24156  Biso   1.000  C
  N250     1.0000 0.08314  0.19838  0.95407  Biso   1.000  N
  H1683    1.0000 0.12230  0.19770  0.96979  Biso   1.000  H
  N251     1.0000 0.19838  0.95407  0.08314  Biso   1.000  N
  H1684    1.0000 0.19770  0.96979  0.12230  Biso   1.000  H
  H1685    1.0000 0.05641  0.12781  0.24781  Biso   1.000  H
  C1878    1.0000 0.01803  0.11695  0.22871  Biso   1.000  C
  C1879    1.0000 0.00787  0.06848  0.22543  Biso   1.000  C
  H1686    1.0000 0.03810  0.04390  0.24621  Biso   1.000  H
  C1880    1.0000 0.09487  0.18257  0.92800  Biso   1.000  C
  C1881    1.0000 0.18257  0.92800  0.09487  Biso   1.000  C
  H1687    1.0000 0.01299  0.13611  0.22430  Biso   1.000  H
  C1882    1.0000 0.99932  0.09589  0.22033  Biso   1.000  C
  H1688    1.0000 0.99699  0.05299  0.21820  Biso   1.000  H
  H1689    1.0000 0.11550  0.17771  0.93090  Biso   1.000  H
  C1883    1.0000 0.07804  0.15637  0.92250  Biso   1.000  C
  C1884    1.0000 0.09173  0.20429  0.90522  Biso   1.000  C
  H1690    1.0000 0.17771  0.93090  0.11550  Biso   1.000  H
  C1885    1.0000 0.15637  0.92250  0.07804  Biso   1.000  C
  C1886    1.0000 0.20429  0.90522  0.09173  Biso   1.000  C
  C1887    1.0000 0.97297  0.10325  0.20399  Biso   1.000  C
  N252     1.0000 0.07987  0.13760  0.94733  Biso   1.000  N
  H1691    1.0000 0.05771  0.16160  0.91889  Biso   1.000  H
  C1888    1.0000 0.08885  0.14159  0.89914  Biso   1.000  C
  C1889    1.0000 0.09647  0.18816  0.87765  Biso   1.000  C
  H1692    1.0000 0.10609  0.21961  0.90750  Biso   1.000  H
  H1693    1.0000 0.07241  0.21291  0.90571  Biso   1.000  H
  N253     1.0000 0.13760  0.94733  0.07987  Biso   1.000  N
  H1694    1.0000 0.16160  0.91889  0.05771  Biso   1.000  H
  C1890    1.0000 0.14159  0.89914  0.08885  Biso   1.000  C
  C1891    1.0000 0.18816  0.87765  0.09647  Biso   1.000  C
  H1695    1.0000 0.21961  0.90750  0.10609  Biso   1.000  H
  H1696    1.0000 0.21291  0.90571  0.07241  Biso   1.000  H
  N254     1.0000 0.95407  0.08314  0.19838  Biso   1.000  N
  H1697    1.0000 0.96979  0.12230  0.19770  Biso   1.000  H
  C1892    1.0000 0.05459  0.12804  0.95639  Biso   1.000  C
  H1698    1.0000 0.07520  0.12640  0.89370  Biso   1.000  H
  H1699    1.0000 0.10701  0.13231  0.90460  Biso   1.000  H
  C1893    1.0000 0.09427  0.16164  0.87255  Biso   1.000  C
  H1700    1.0000 0.10191  0.19959  0.86180  Biso   1.000  H
  C1894    1.0000 0.12804  0.95639  0.05459  Biso   1.000  C
  H1701    1.0000 0.12640  0.89370  0.07520  Biso   1.000  H
  H1702    1.0000 0.13231  0.90460  0.10701  Biso   1.000  H
  C1895    1.0000 0.16164  0.87255  0.09427  Biso   1.000  C
  H1703    1.0000 0.19959  0.86180  0.10191  Biso   1.000  H
  C1896    1.0000 0.92800  0.09487  0.18257  Biso   1.000  C
  C1897    1.0000 0.05184  0.10707  0.98193  Biso   1.000  C
  H1704    1.0000 0.03780  0.13421  0.94690  Biso   1.000  H
  H1705    1.0000 0.09581  0.15420  0.85380  Biso   1.000  H
  C1898    1.0000 0.10707  0.98193  0.05184  Biso   1.000  C
  H1706    1.0000 0.13421  0.94690  0.03780  Biso   1.000  H
  H1707    1.0000 0.15420  0.85380  0.09581  Biso   1.000  H
  H1708    1.0000 0.93090  0.11550  0.17771  Biso   1.000  H
  C1899    1.0000 0.92250  0.07804  0.15637  Biso   1.000  C
  C1900    1.0000 0.90522  0.09173  0.20429  Biso   1.000  C
  C1901    1.0000 0.07682  0.09879  0.99558  Biso   1.000  C
  C1902    1.0000 0.02577  0.09754  0.99245  Biso   1.000  C
  C1903    1.0000 0.09879  0.99558  0.07682  Biso   1.000  C
  C1904    1.0000 0.09754  0.99245  0.02577  Biso   1.000  C
  N255     1.0000 0.94733  0.07987  0.13760  Biso   1.000  N
  H1709    1.0000 0.91889  0.05771  0.16160  Biso   1.000  H
  C1905    1.0000 0.89914  0.08885  0.14159  Biso   1.000  C
  C1906    1.0000 0.87765  0.09647  0.18816  Biso   1.000  C
  H1710    1.0000 0.90750  0.10609  0.21961  Biso   1.000  H
  H1711    1.0000 0.90571  0.07241  0.21291  Biso   1.000  H
  C1907    1.0000 0.07471  0.07735  0.01732  Biso   1.000  C
  H1712    1.0000 0.09470  0.10701  0.99070  Biso   1.000  H
  C1908    1.0000 0.02353  0.07676  0.01340  Biso   1.000  C
  H1713    1.0000 0.00879  0.10560  0.98490  Biso   1.000  H
  C1909    1.0000 0.07735  0.01732  0.07471  Biso   1.000  C
  H1714    1.0000 0.10701  0.99070  0.09470  Biso   1.000  H
  C1910    1.0000 0.07676  0.01340  0.02353  Biso   1.000  C
  H1715    1.0000 0.10560  0.98490  0.00879  Biso   1.000  H
  C1911    1.0000 0.95639  0.05459  0.12804  Biso   1.000  C
  H1716    1.0000 0.89370  0.07520  0.12640  Biso   1.000  H
  H1717    1.0000 0.90460  0.10701  0.13231  Biso   1.000  H
  C1912    1.0000 0.87255  0.09427  0.16164  Biso   1.000  C
  H1718    1.0000 0.86180  0.10191  0.19959  Biso   1.000  H
  C1913    1.0000 0.04851  0.06709  0.02701  Biso   1.000  C
  H1719    1.0000 0.09169  0.06991  0.02541  Biso   1.000  H
  H1720    1.0000 0.00540  0.06921  0.01850  Biso   1.000  H
  C1914    1.0000 0.06709  0.02701  0.04851  Biso   1.000  C
  H1721    1.0000 0.06991  0.02541  0.09169  Biso   1.000  H
  H1722    1.0000 0.06921  0.01850  0.00540  Biso   1.000  H
  C1915    1.0000 0.98193  0.05184  0.10707  Biso   1.000  C
  H1723    1.0000 0.94690  0.03780  0.13421  Biso   1.000  H
  H1724    1.0000 0.85380  0.09581  0.15420  Biso   1.000  H
  N256     1.0000 0.04657  0.04657  0.04657  Biso   1.000  N
  C1916    1.0000 0.99558  0.07682  0.09879  Biso   1.000  C
  C1917    1.0000 0.99245  0.02577  0.09754  Biso   1.000  C
  C1918    1.0000 0.02701  0.04851  0.06709  Biso   1.000  C
  C1919    1.0000 0.01732  0.07471  0.07735  Biso   1.000  C
  H1725    1.0000 0.99070  0.09470  0.10701  Biso   1.000  H
  C1920    1.0000 0.01340  0.02353  0.07676  Biso   1.000  C
  H1726    1.0000 0.98490  0.00879  0.10560  Biso   1.000  H
  H1727    1.0000 0.02541  0.09169  0.06991  Biso   1.000  H
  H1728    1.0000 0.01850  0.00540  0.06921  Biso   1.000  H
