data_image0
_cell_length_a       27.632
_cell_length_b       27.632
_cell_length_c       38.917
_cell_angle_alpha    90
_cell_angle_beta     90
_cell_angle_gamma    90

_symmetry_space_group_name_H-M    "P 1"
_symmetry_int_tables_number       1

loop_
  _symmetry_equiv_pos_as_xyz
  'x, y, z'

loop_
  _atom_site_label
  _atom_site_occupancy
  _atom_site_fract_x
  _atom_site_fract_y
  _atom_site_fract_z
  _atom_site_thermal_displace_type
  _atom_site_B_iso_or_equiv
  _atom_site_type_symbol
  N1       1.0000 0.54488  0.42802  0.48221  Biso   1.000  N
  C1       1.0000 0.54697  0.39791  0.45864  Biso   1.000  C
  C2       1.0000 0.54488  0.40808  0.51795  Biso   1.000  C
  C3       1.0000 0.54741  0.41220  0.42226  Biso   1.000  C
  H1       1.0000 0.54849  0.36450  0.46430  Biso   1.000  H
  H2       1.0000 0.55649  0.37381  0.51790  Biso   1.000  H
  C4       1.0000 0.57900  0.44050  0.54046  Biso   1.000  C
  C5       1.0000 0.49399  0.41090  0.53170  Biso   1.000  C
  C6       1.0000 0.55338  0.37681  0.39674  Biso   1.000  C
  C7       1.0000 0.54611  0.46081  0.41206  Biso   1.000  C
  H3       1.0000 0.56728  0.47470  0.54020  Biso   1.000  H
  C8       1.0000 0.57958  0.42100  0.57810  Biso   1.000  C
  N2       1.0000 0.62790  0.43819  0.52758  Biso   1.000  N
  C9       1.0000 0.49330  0.39078  0.56888  Biso   1.000  C
  H4       1.0000 0.47199  0.39161  0.51689  Biso   1.000  H
  H5       1.0000 0.48270  0.44488  0.53149  Biso   1.000  H
  C10      1.0000 0.55780  0.39031  0.36254  Biso   1.000  C
  O1       1.0000 0.55530  0.32983  0.40594  Biso   1.000  O
  C11      1.0000 0.55099  0.47510  0.37783  Biso   1.000  C
  H6       1.0000 0.54169  0.48498  0.42909  Biso   1.000  H
  H7       1.0000 0.59909  0.44249  0.59301  Biso   1.000  H
  H8       1.0000 0.59380  0.38810  0.57880  Biso   1.000  H
  C12      1.0000 0.52559  0.41959  0.59100  Biso   1.000  C
  C13      1.0000 0.64740  0.47470  0.51415  Biso   1.000  C
  H9       1.0000 0.45990  0.39190  0.57800  Biso   1.000  H
  H10      1.0000 0.50409  0.35658  0.56880  Biso   1.000  H
  C14      1.0000 0.56681  0.35488  0.33569  Biso   1.000  C
  C15      1.0000 0.55660  0.44029  0.35344  Biso   1.000  C
  H11      1.0000 0.56091  0.31279  0.38849  Biso   1.000  H
  C16      1.0000 0.55418  0.52808  0.36843  Biso   1.000  C
  H12      1.0000 0.52490  0.40598  0.61449  Biso   1.000  H
  H13      1.0000 0.51310  0.45321  0.59221  Biso   1.000  H
  H14      1.0000 0.62938  0.50398  0.51350  Biso   1.000  H
  C17      1.0000 0.69550  0.47510  0.49965  Biso   1.000  C
  N3       1.0000 0.57039  0.30928  0.34250  Biso   1.000  N
  H15      1.0000 0.57010  0.36559  0.31259  Biso   1.000  H
  H16      1.0000 0.55979  0.44941  0.33001  Biso   1.000  H
  C18      1.0000 0.56040  0.56340  0.39284  Biso   1.000  C
  C19      1.0000 0.55751  0.54238  0.33374  Biso   1.000  C
  C20      1.0000 0.72438  0.43269  0.50171  Biso   1.000  C
  C21      1.0000 0.71298  0.51491  0.48213  Biso   1.000  C
  C22      1.0000 0.58020  0.27479  0.31506  Biso   1.000  C
  C23      1.0000 0.56869  0.61070  0.38410  Biso   1.000  C
  H17      1.0000 0.55888  0.55479  0.41640  Biso   1.000  H
  C24      1.0000 0.56500  0.58888  0.32451  Biso   1.000  C
  H18      1.0000 0.55428  0.51860  0.31629  Biso   1.000  H
  C25      1.0000 0.76878  0.43370  0.48526  Biso   1.000  C
  O2       1.0000 0.70921  0.39400  0.51849  Biso   1.000  O
  C26      1.0000 0.75568  0.51639  0.46548  Biso   1.000  C
  H19      1.0000 0.69351  0.54328  0.48179  Biso   1.000  H
  C27      1.0000 0.54220  0.23440  0.31760  Biso   1.000  C
  C28      1.0000 0.63090  0.25460  0.31860  Biso   1.000  C
  H20      1.0000 0.57698  0.29140  0.29229  Biso   1.000  H
  C29      1.0000 0.57198  0.62410  0.35016  Biso   1.000  C
  C30      1.0000 0.58020  0.64621  0.41177  Biso   1.000  C
  C31      1.0000 0.57368  0.60368  0.28831  Biso   1.000  C
  C32      1.0000 0.79770  0.38868  0.48573  Biso   1.000  C
  C33      1.0000 0.78449  0.47380  0.46848  Biso   1.000  C
  H21      1.0000 0.67748  0.40091  0.52730  Biso   1.000  H
  C34      1.0000 0.77070  0.55740  0.44461  Biso   1.000  C
  H22      1.0000 0.50948  0.24819  0.31431  Biso   1.000  H
  H23      1.0000 0.54350  0.21960  0.34070  Biso   1.000  H
  C35      1.0000 0.55190  0.19539  0.29010  Biso   1.000  C
  H24      1.0000 0.63437  0.23961  0.34191  Biso   1.000  H
  C36      1.0000 0.63998  0.21569  0.29126  Biso   1.000  C
  N4       1.0000 0.66633  0.29426  0.31534  Biso   1.000  N
  O3       1.0000 0.58255  0.67056  0.34078  Biso   1.000  O
  H25      1.0000 0.57799  0.63640  0.43511  Biso   1.000  H
  N5       1.0000 0.59286  0.68913  0.40481  Biso   1.000  N
  H26      1.0000 0.58530  0.63539  0.28381  Biso   1.000  H
  N6       1.0000 0.56594  0.57520  0.26300  Biso   1.000  N
  N7       1.0000 0.84087  0.38611  0.47637  Biso   1.000  N
  H27      1.0000 0.78250  0.35991  0.49359  Biso   1.000  H
  H28      1.0000 0.81579  0.47351  0.45839  Biso   1.000  H
  C37      1.0000 0.80870  0.55468  0.42308  Biso   1.000  C
  C38      1.0000 0.74247  0.60068  0.44376  Biso   1.000  C
  H29      1.0000 0.52888  0.16828  0.29301  Biso   1.000  H
  H30      1.0000 0.54708  0.20929  0.26690  Biso   1.000  H
  C39      1.0000 0.60397  0.17650  0.29355  Biso   1.000  C
  H31      1.0000 0.63839  0.23071  0.26819  Biso   1.000  H
  H32      1.0000 0.67281  0.20208  0.29440  Biso   1.000  H
  C40      1.0000 0.69800  0.29781  0.33895  Biso   1.000  C
  H33      1.0000 0.60868  0.68218  0.35481  Biso   1.000  H
  C41      1.0000 0.60430  0.72159  0.43410  Biso   1.000  C
  C42      1.0000 0.57788  0.59427  0.22854  Biso   1.000  C
  C43      1.0000 0.86378  0.34011  0.47493  Biso   1.000  C
  C44      1.0000 0.82289  0.59189  0.40011  Biso   1.000  C
  H34      1.0000 0.82730  0.52580  0.42329  Biso   1.000  H
  C45      1.0000 0.75290  0.63958  0.42123  Biso   1.000  C
  H35      1.0000 0.71558  0.60339  0.45890  Biso   1.000  H
  H36      1.0000 0.60759  0.15989  0.31590  Biso   1.000  H
  H37      1.0000 0.61031  0.15261  0.27520  Biso   1.000  H
  C46      1.0000 0.73390  0.33541  0.34144  Biso   1.000  C
  H38      1.0000 0.69789  0.27370  0.35630  Biso   1.000  H
  H39      1.0000 0.59551  0.70559  0.45630  Biso   1.000  H
  C47      1.0000 0.65808  0.73209  0.43326  Biso   1.000  C
  C48      1.0000 0.57640  0.76828  0.43007  Biso   1.000  C
  C49      1.0000 0.60890  0.56091  0.21032  Biso   1.000  C
  H40      1.0000 0.59518  0.62590  0.23121  Biso   1.000  H
  C50      1.0000 0.52921  0.60300  0.20760  Biso   1.000  C
  C51      1.0000 0.88499  0.33251  0.44099  Biso   1.000  C
  H41      1.0000 0.83877  0.31449  0.47910  Biso   1.000  H
  C52      1.0000 0.90518  0.33468  0.50302  Biso   1.000  C
  C53      1.0000 0.86309  0.58729  0.37814  Biso   1.000  C
  C54      1.0000 0.79317  0.63488  0.39983  Biso   1.000  C
  C55      1.0000 0.72250  0.68059  0.41915  Biso   1.000  C
  C56      1.0000 0.77099  0.33251  0.36632  Biso   1.000  C
  C57      1.0000 0.73158  0.37609  0.32043  Biso   1.000  C
  H42      1.0000 0.66698  0.74671  0.41059  Biso   1.000  H
  C58      1.0000 0.67078  0.76849  0.46332  Biso   1.000  C
  N8       1.0000 0.68591  0.68822  0.43881  Biso   1.000  N
  C59      1.0000 0.58859  0.80410  0.45857  Biso   1.000  C
  H43      1.0000 0.54118  0.76129  0.43051  Biso   1.000  H
  H44      1.0000 0.58411  0.78301  0.40751  Biso   1.000  H
  N9       1.0000 0.65616  0.55447  0.22782  Biso   1.000  N
  H45      1.0000 0.59228  0.52881  0.20991  Biso   1.000  H
  C60      1.0000 0.61939  0.57528  0.17327  Biso   1.000  C
  H46      1.0000 0.51078  0.57238  0.20600  Biso   1.000  H
  H47      1.0000 0.50879  0.62699  0.21980  Biso   1.000  H
  C61      1.0000 0.54089  0.62098  0.17280  Biso   1.000  C
  N10      1.0000 0.84735  0.33161  0.41473  Biso   1.000  N
  H48      1.0000 0.90779  0.35958  0.43590  Biso   1.000  H
  C62      1.0000 0.91307  0.28261  0.43714  Biso   1.000  C
  C63      1.0000 0.93120  0.28778  0.50081  Biso   1.000  C
  H49      1.0000 0.92878  0.36139  0.50009  Biso   1.000  H
  H50      1.0000 0.89067  0.33780  0.52620  Biso   1.000  H
  N11      1.0000 0.87670  0.62160  0.35722  Biso   1.000  N
  H51      1.0000 0.88108  0.55798  0.37850  Biso   1.000  H
  O4       1.0000 0.80461  0.67158  0.37842  Biso   1.000  O
  H52      1.0000 0.72959  0.70407  0.40209  Biso   1.000  H
  C64      1.0000 0.80349  0.37138  0.36953  Biso   1.000  C
  O5       1.0000 0.77378  0.29339  0.38610  Biso   1.000  O
  H53      1.0000 0.70759  0.37699  0.30300  Biso   1.000  H
  C65      1.0000 0.76270  0.41589  0.32369  Biso   1.000  C
  H54      1.0000 0.66351  0.75340  0.48580  Biso   1.000  H
  H55      1.0000 0.70570  0.77649  0.46270  Biso   1.000  H
  C66      1.0000 0.64009  0.81550  0.45869  Biso   1.000  C
  H56      1.0000 0.56970  0.83418  0.45520  Biso   1.000  H
  H57      1.0000 0.57940  0.79010  0.48100  Biso   1.000  H
  C67      1.0000 0.66647  0.51809  0.24555  Biso   1.000  C
  C68      1.0000 0.57430  0.58570  0.15371  Biso   1.000  C
  H58      1.0000 0.64031  0.60441  0.17309  Biso   1.000  H
  H59      1.0000 0.63720  0.54878  0.16181  Biso   1.000  H
  H60      1.0000 0.55689  0.65290  0.17460  Biso   1.000  H
  H61      1.0000 0.51060  0.62518  0.15960  Biso   1.000  H
  C69      1.0000 0.84199  0.36939  0.39412  Biso   1.000  C
  H62      1.0000 0.89038  0.25521  0.44019  Biso   1.000  H
  H63      1.0000 0.92758  0.28018  0.41391  Biso   1.000  H
  C70      1.0000 0.95259  0.28051  0.46430  Biso   1.000  C
  H64      1.0000 0.90858  0.26100  0.50610  Biso   1.000  H
  H65      1.0000 0.95769  0.28709  0.51800  Biso   1.000  H
  C71      1.0000 0.91850  0.61450  0.33492  Biso   1.000  C
  H66      1.0000 0.83950  0.67078  0.37390  Biso   1.000  H
  C72      1.0000 0.79878  0.41068  0.34895  Biso   1.000  C
  H67      1.0000 0.79390  0.29831  0.40191  Biso   1.000  H
  C73      1.0000 0.75698  0.45929  0.30213  Biso   1.000  C
  H68      1.0000 0.64718  0.83830  0.47771  Biso   1.000  H
  H69      1.0000 0.64889  0.83150  0.43680  Biso   1.000  H
  C74      1.0000 0.70849  0.51068  0.26454  Biso   1.000  C
  H70      1.0000 0.64309  0.49291  0.24609  Biso   1.000  H
  H71      1.0000 0.55678  0.55501  0.14960  Biso   1.000  H
  H72      1.0000 0.58298  0.59959  0.13110  Biso   1.000  H
  H73      1.0000 0.86407  0.39570  0.39569  Biso   1.000  H
  H74      1.0000 0.97687  0.30591  0.45970  Biso   1.000  H
  H75      1.0000 0.96909  0.24870  0.46319  Biso   1.000  H
  C75      1.0000 0.90048  0.61020  0.29750  Biso   1.000  C
  H76      1.0000 0.93359  0.58287  0.34129  Biso   1.000  H
  C76      1.0000 0.95480  0.65200  0.33939  Biso   1.000  C
  H77      1.0000 0.82140  0.43631  0.35180  Biso   1.000  H
  C77      1.0000 0.71598  0.46830  0.28394  Biso   1.000  C
  C78      1.0000 0.79538  0.49519  0.30092  Biso   1.000  C
  C79      1.0000 0.74558  0.54531  0.26387  Biso   1.000  C
  N12      1.0000 0.86758  0.56818  0.29524  Biso   1.000  N
  H78      1.0000 0.88260  0.64031  0.29100  Biso   1.000  H
  C80      1.0000 0.94249  0.60169  0.27183  Biso   1.000  C
  C81      1.0000 0.99848  0.64628  0.31539  Biso   1.000  C
  H79      1.0000 0.96627  0.65127  0.36349  Biso   1.000  H
  H80      1.0000 0.93967  0.68388  0.33530  Biso   1.000  H
  H81      1.0000 0.69097  0.44470  0.28430  Biso   1.000  H
  H82      1.0000 0.82499  0.49008  0.31279  Biso   1.000  H
  C82      1.0000 0.78767  0.53840  0.28152  Biso   1.000  C
  O6       1.0000 0.74142  0.58591  0.24491  Biso   1.000  O
  C83      1.0000 0.82719  0.57430  0.28319  Biso   1.000  C
  H83      1.0000 0.92979  0.59880  0.24809  Biso   1.000  H
  H84      1.0000 0.96008  0.57158  0.27769  Biso   1.000  H
  C84      1.0000 0.97669  0.64610  0.27469  Biso   1.000  C
  H85      1.0000 0.01571  0.61570  0.32030  Biso   1.000  H
  H86      1.0000 0.02132  0.67349  0.31860  Biso   1.000  H
  H87      1.0000 0.72058  0.57958  0.22571  Biso   1.000  H
  H88      1.0000 0.82050  0.60539  0.27389  Biso   1.000  H
  H89      1.0000 0.95867  0.67639  0.27001  Biso   1.000  H
  H90      1.0000 0.00351  0.64328  0.25801  Biso   1.000  H
  N13      1.0000 0.42802  0.54488  0.51777  Biso   1.000  N
  C85      1.0000 0.40808  0.54488  0.48205  Biso   1.000  C
  C86      1.0000 0.39791  0.54697  0.54136  Biso   1.000  C
  C87      1.0000 0.41090  0.49399  0.46830  Biso   1.000  C
  C88      1.0000 0.44050  0.57900  0.45954  Biso   1.000  C
  H91      1.0000 0.37381  0.55649  0.48210  Biso   1.000  H
  C89      1.0000 0.41220  0.54741  0.57774  Biso   1.000  C
  H92      1.0000 0.36450  0.54849  0.53570  Biso   1.000  H
  C90      1.0000 0.39078  0.49330  0.43112  Biso   1.000  C
  H93      1.0000 0.39161  0.47199  0.48311  Biso   1.000  H
  H94      1.0000 0.44488  0.48270  0.46851  Biso   1.000  H
  C91      1.0000 0.42100  0.57958  0.42190  Biso   1.000  C
  H95      1.0000 0.47470  0.56728  0.45980  Biso   1.000  H
  N14      1.0000 0.43819  0.62790  0.47242  Biso   1.000  N
  C92      1.0000 0.37681  0.55338  0.60326  Biso   1.000  C
  C93      1.0000 0.46081  0.54611  0.58794  Biso   1.000  C
  C94      1.0000 0.41959  0.52559  0.40900  Biso   1.000  C
  H96      1.0000 0.39190  0.45990  0.42200  Biso   1.000  H
  H97      1.0000 0.35658  0.50409  0.43120  Biso   1.000  H
  H98      1.0000 0.44249  0.59909  0.40699  Biso   1.000  H
  H99      1.0000 0.38810  0.59380  0.42120  Biso   1.000  H
  C95      1.0000 0.47470  0.64740  0.48583  Biso   1.000  C
  C96      1.0000 0.39031  0.55780  0.63746  Biso   1.000  C
  O7       1.0000 0.32983  0.55530  0.59406  Biso   1.000  O
  H100     1.0000 0.48498  0.54169  0.57091  Biso   1.000  H
  C97      1.0000 0.47510  0.55099  0.62217  Biso   1.000  C
  H101     1.0000 0.40598  0.52490  0.38549  Biso   1.000  H
  H102     1.0000 0.45321  0.51310  0.40779  Biso   1.000  H
  H103     1.0000 0.50398  0.62938  0.48650  Biso   1.000  H
  C98      1.0000 0.47510  0.69550  0.50035  Biso   1.000  C
  C99      1.0000 0.35488  0.56681  0.66429  Biso   1.000  C
  C100     1.0000 0.44029  0.55660  0.64656  Biso   1.000  C
  H104     1.0000 0.31279  0.56091  0.61151  Biso   1.000  H
  C101     1.0000 0.52808  0.55418  0.63157  Biso   1.000  C
  C102     1.0000 0.43269  0.72438  0.49827  Biso   1.000  C
  C103     1.0000 0.51491  0.71298  0.51787  Biso   1.000  C
  H105     1.0000 0.36559  0.57010  0.68739  Biso   1.000  H
  N15      1.0000 0.30928  0.57039  0.65748  Biso   1.000  N
  H106     1.0000 0.44941  0.55979  0.66999  Biso   1.000  H
  C104     1.0000 0.56340  0.56040  0.60716  Biso   1.000  C
  C105     1.0000 0.54238  0.55751  0.66626  Biso   1.000  C
  C106     1.0000 0.43370  0.76878  0.51474  Biso   1.000  C
  O8       1.0000 0.39400  0.70921  0.48151  Biso   1.000  O
  C107     1.0000 0.51639  0.75568  0.53452  Biso   1.000  C
  H107     1.0000 0.54328  0.69351  0.51821  Biso   1.000  H
  C108     1.0000 0.27479  0.58020  0.68494  Biso   1.000  C
  C109     1.0000 0.61070  0.56869  0.61590  Biso   1.000  C
  H108     1.0000 0.55479  0.55888  0.58360  Biso   1.000  H
  C110     1.0000 0.58888  0.56500  0.67549  Biso   1.000  C
  H109     1.0000 0.51860  0.55428  0.68369  Biso   1.000  H
  C111     1.0000 0.47380  0.78449  0.53152  Biso   1.000  C
  C112     1.0000 0.38868  0.79770  0.51427  Biso   1.000  C
  H110     1.0000 0.40091  0.67748  0.47270  Biso   1.000  H
  C113     1.0000 0.55740  0.77070  0.55539  Biso   1.000  C
  C114     1.0000 0.25460  0.63090  0.68140  Biso   1.000  C
  H111     1.0000 0.29140  0.57698  0.70769  Biso   1.000  H
  C115     1.0000 0.23440  0.54220  0.68238  Biso   1.000  C
  C116     1.0000 0.62410  0.57198  0.64984  Biso   1.000  C
  C117     1.0000 0.64621  0.58020  0.58823  Biso   1.000  C
  C118     1.0000 0.60368  0.57368  0.71169  Biso   1.000  C
  H112     1.0000 0.47351  0.81579  0.54159  Biso   1.000  H
  H113     1.0000 0.35991  0.78250  0.50639  Biso   1.000  H
  N16      1.0000 0.38611  0.84087  0.52363  Biso   1.000  N
  C119     1.0000 0.55468  0.80870  0.57692  Biso   1.000  C
  C120     1.0000 0.60068  0.74247  0.55624  Biso   1.000  C
  H114     1.0000 0.23961  0.63437  0.65809  Biso   1.000  H
  C121     1.0000 0.21569  0.63998  0.70874  Biso   1.000  C
  N17      1.0000 0.29426  0.66633  0.68466  Biso   1.000  N
  H115     1.0000 0.24819  0.50948  0.68569  Biso   1.000  H
  H116     1.0000 0.21960  0.54350  0.65930  Biso   1.000  H
  C122     1.0000 0.19539  0.55190  0.70990  Biso   1.000  C
  O9       1.0000 0.67056  0.58255  0.65922  Biso   1.000  O
  H117     1.0000 0.63640  0.57799  0.56489  Biso   1.000  H
  N18      1.0000 0.68913  0.59286  0.59519  Biso   1.000  N
  H118     1.0000 0.63539  0.58530  0.71619  Biso   1.000  H
  N19      1.0000 0.57520  0.56594  0.73700  Biso   1.000  N
  C123     1.0000 0.34011  0.86378  0.52507  Biso   1.000  C
  C124     1.0000 0.59189  0.82289  0.59989  Biso   1.000  C
  H119     1.0000 0.52580  0.82730  0.57669  Biso   1.000  H
  C125     1.0000 0.63958  0.75290  0.57874  Biso   1.000  C
  H120     1.0000 0.60339  0.71558  0.54110  Biso   1.000  H
  C126     1.0000 0.17650  0.60397  0.70643  Biso   1.000  C
  H121     1.0000 0.23071  0.63839  0.73179  Biso   1.000  H
  H122     1.0000 0.20208  0.67281  0.70560  Biso   1.000  H
  C127     1.0000 0.29781  0.69800  0.66105  Biso   1.000  C
  H123     1.0000 0.16828  0.52888  0.70699  Biso   1.000  H
  H124     1.0000 0.20929  0.54708  0.73310  Biso   1.000  H
  H125     1.0000 0.68218  0.60868  0.64519  Biso   1.000  H
  C128     1.0000 0.72159  0.60430  0.56590  Biso   1.000  C
  C129     1.0000 0.59427  0.57788  0.77144  Biso   1.000  C
  H126     1.0000 0.31449  0.83877  0.52090  Biso   1.000  H
  C130     1.0000 0.33251  0.88499  0.55901  Biso   1.000  C
  C131     1.0000 0.33468  0.90518  0.49698  Biso   1.000  C
  C132     1.0000 0.63488  0.79317  0.60017  Biso   1.000  C
  C133     1.0000 0.58729  0.86309  0.62186  Biso   1.000  C
  C134     1.0000 0.68059  0.72250  0.58083  Biso   1.000  C
  H127     1.0000 0.15989  0.60759  0.68410  Biso   1.000  H
  H128     1.0000 0.15261  0.61031  0.72480  Biso   1.000  H
  C135     1.0000 0.33541  0.73390  0.65856  Biso   1.000  C
  H129     1.0000 0.27370  0.69789  0.64370  Biso   1.000  H
  C136     1.0000 0.73209  0.65808  0.56674  Biso   1.000  C
  H130     1.0000 0.70559  0.59551  0.54370  Biso   1.000  H
  C137     1.0000 0.76828  0.57640  0.56993  Biso   1.000  C
  C138     1.0000 0.56091  0.60890  0.78965  Biso   1.000  C
  H131     1.0000 0.62590  0.59518  0.76879  Biso   1.000  H
  C139     1.0000 0.60300  0.52921  0.79240  Biso   1.000  C
  H132     1.0000 0.35958  0.90779  0.56410  Biso   1.000  H
  C140     1.0000 0.28261  0.91307  0.56284  Biso   1.000  C
  N20      1.0000 0.33161  0.84735  0.58527  Biso   1.000  N
  C141     1.0000 0.28778  0.93120  0.49919  Biso   1.000  C
  H133     1.0000 0.36139  0.92878  0.49991  Biso   1.000  H
  H134     1.0000 0.33780  0.89067  0.47380  Biso   1.000  H
  O10      1.0000 0.67158  0.80461  0.62158  Biso   1.000  O
  H135     1.0000 0.55798  0.88108  0.62150  Biso   1.000  H
  N21      1.0000 0.62160  0.87670  0.64278  Biso   1.000  N
  H136     1.0000 0.70407  0.72959  0.59789  Biso   1.000  H
  N22      1.0000 0.68822  0.68591  0.56119  Biso   1.000  N
  C142     1.0000 0.33251  0.77099  0.63368  Biso   1.000  C
  C143     1.0000 0.37609  0.73158  0.67955  Biso   1.000  C
  H137     1.0000 0.74671  0.66698  0.58941  Biso   1.000  H
  C144     1.0000 0.76849  0.67078  0.53668  Biso   1.000  C
  C145     1.0000 0.80410  0.58859  0.54143  Biso   1.000  C
  H138     1.0000 0.76129  0.54118  0.56949  Biso   1.000  H
  H139     1.0000 0.78301  0.58411  0.59249  Biso   1.000  H
  H140     1.0000 0.52881  0.59228  0.79009  Biso   1.000  H
  C146     1.0000 0.57528  0.61939  0.82673  Biso   1.000  C
  N23      1.0000 0.55447  0.65616  0.77218  Biso   1.000  N
  H141     1.0000 0.57238  0.51078  0.79400  Biso   1.000  H
  H142     1.0000 0.62699  0.50879  0.78020  Biso   1.000  H
  C147     1.0000 0.62098  0.54089  0.82720  Biso   1.000  C
  H143     1.0000 0.25521  0.89038  0.55981  Biso   1.000  H
  H144     1.0000 0.28018  0.92758  0.58609  Biso   1.000  H
  C148     1.0000 0.28051  0.95259  0.53570  Biso   1.000  C
  C149     1.0000 0.36939  0.84199  0.60588  Biso   1.000  C
  H145     1.0000 0.26100  0.90858  0.49390  Biso   1.000  H
  H146     1.0000 0.28709  0.95769  0.48200  Biso   1.000  H
  H147     1.0000 0.67078  0.83950  0.62610  Biso   1.000  H
  C150     1.0000 0.61450  0.91850  0.66508  Biso   1.000  C
  C151     1.0000 0.37138  0.80349  0.63047  Biso   1.000  C
  O11      1.0000 0.29339  0.77378  0.61390  Biso   1.000  O
  H148     1.0000 0.37699  0.70759  0.69700  Biso   1.000  H
  C152     1.0000 0.41589  0.76270  0.67631  Biso   1.000  C
  H149     1.0000 0.75340  0.66351  0.51420  Biso   1.000  H
  H150     1.0000 0.77649  0.70570  0.53730  Biso   1.000  H
  C153     1.0000 0.81550  0.64009  0.54131  Biso   1.000  C
  H151     1.0000 0.83418  0.56970  0.54480  Biso   1.000  H
  H152     1.0000 0.79010  0.57940  0.51900  Biso   1.000  H
  C154     1.0000 0.58570  0.57430  0.84629  Biso   1.000  C
  H153     1.0000 0.60441  0.64031  0.82689  Biso   1.000  H
  H154     1.0000 0.54878  0.63720  0.83819  Biso   1.000  H
  C155     1.0000 0.51809  0.66647  0.75445  Biso   1.000  C
  H155     1.0000 0.65290  0.55689  0.82540  Biso   1.000  H
  H156     1.0000 0.62518  0.51060  0.84040  Biso   1.000  H
  H157     1.0000 0.30591  0.97687  0.54030  Biso   1.000  H
  H158     1.0000 0.24870  0.96909  0.53681  Biso   1.000  H
  H159     1.0000 0.39570  0.86407  0.60429  Biso   1.000  H
  H160     1.0000 0.58287  0.93359  0.65868  Biso   1.000  H
  C156     1.0000 0.61020  0.90048  0.70250  Biso   1.000  C
  C157     1.0000 0.65200  0.95480  0.66059  Biso   1.000  C
  C158     1.0000 0.41068  0.79878  0.65105  Biso   1.000  C
  H161     1.0000 0.29831  0.79390  0.59809  Biso   1.000  H
  C159     1.0000 0.45929  0.75698  0.69784  Biso   1.000  C
  H162     1.0000 0.83830  0.64718  0.52229  Biso   1.000  H
  H163     1.0000 0.83150  0.64889  0.56320  Biso   1.000  H
  H164     1.0000 0.55501  0.55678  0.85040  Biso   1.000  H
  H165     1.0000 0.59959  0.58298  0.86890  Biso   1.000  H
  C160     1.0000 0.51068  0.70849  0.73546  Biso   1.000  C
  H166     1.0000 0.49291  0.64309  0.75389  Biso   1.000  H
  H167     1.0000 0.64031  0.88260  0.70900  Biso   1.000  H
  C161     1.0000 0.60169  0.94249  0.72817  Biso   1.000  C
  N24      1.0000 0.56818  0.86758  0.70476  Biso   1.000  N
  C162     1.0000 0.64628  0.99848  0.68459  Biso   1.000  C
  H168     1.0000 0.65127  0.96627  0.63651  Biso   1.000  H
  H169     1.0000 0.68388  0.93967  0.66470  Biso   1.000  H
  H170     1.0000 0.43631  0.82140  0.64820  Biso   1.000  H
  C163     1.0000 0.46830  0.71598  0.71604  Biso   1.000  C
  C164     1.0000 0.49519  0.79538  0.69908  Biso   1.000  C
  C165     1.0000 0.54531  0.74558  0.73613  Biso   1.000  C
  H171     1.0000 0.59880  0.92979  0.75191  Biso   1.000  H
  H172     1.0000 0.57158  0.96008  0.72231  Biso   1.000  H
  C166     1.0000 0.64610  0.97669  0.72529  Biso   1.000  C
  C167     1.0000 0.57430  0.82719  0.71681  Biso   1.000  C
  H173     1.0000 0.61570  0.01571  0.67970  Biso   1.000  H
  H174     1.0000 0.67349  0.02132  0.68140  Biso   1.000  H
  H175     1.0000 0.44470  0.69097  0.71570  Biso   1.000  H
  C168     1.0000 0.53840  0.78767  0.71848  Biso   1.000  C
  H176     1.0000 0.49008  0.82499  0.68721  Biso   1.000  H
  O12      1.0000 0.58591  0.74142  0.75509  Biso   1.000  O
  H177     1.0000 0.67639  0.95867  0.72999  Biso   1.000  H
  H178     1.0000 0.64328  0.00351  0.74199  Biso   1.000  H
  H179     1.0000 0.60539  0.82050  0.72608  Biso   1.000  H
  H180     1.0000 0.57958  0.72058  0.77429  Biso   1.000  H
  C169     1.0000 0.41430  0.42570  0.34630  Biso   1.000  C
  C170     1.0000 0.42469  0.38061  0.32675  Biso   1.000  C
  C171     1.0000 0.37898  0.45911  0.32721  Biso   1.000  C
  H181     1.0000 0.44499  0.44318  0.35039  Biso   1.000  H
  H182     1.0000 0.40041  0.41698  0.36889  Biso   1.000  H
  C172     1.0000 0.43909  0.39110  0.28967  Biso   1.000  C
  H183     1.0000 0.39559  0.35969  0.32690  Biso   1.000  H
  H184     1.0000 0.45118  0.36280  0.33821  Biso   1.000  H
  C173     1.0000 0.39700  0.47079  0.29239  Biso   1.000  C
  H185     1.0000 0.34710  0.44311  0.32541  Biso   1.000  H
  H186     1.0000 0.37478  0.48940  0.34039  Biso   1.000  H
  N25      1.0000 0.44553  0.34380  0.27217  Biso   1.000  N
  H187     1.0000 0.47119  0.40768  0.29010  Biso   1.000  H
  C174     1.0000 0.40569  0.42208  0.27145  Biso   1.000  C
  H188     1.0000 0.42758  0.48918  0.29401  Biso   1.000  H
  H189     1.0000 0.37301  0.49121  0.28019  Biso   1.000  H
  C175     1.0000 0.48191  0.33349  0.25446  Biso   1.000  C
  H190     1.0000 0.37410  0.40478  0.26880  Biso   1.000  H
  N26      1.0000 0.42480  0.43403  0.23702  Biso   1.000  N
  C176     1.0000 0.48929  0.29151  0.23545  Biso   1.000  C
  H191     1.0000 0.50709  0.35691  0.25390  Biso   1.000  H
  C177     1.0000 0.39628  0.42628  0.21168  Biso   1.000  C
  C178     1.0000 0.45469  0.25438  0.23612  Biso   1.000  C
  C179     1.0000 0.53170  0.28398  0.21605  Biso   1.000  C
  H192     1.0000 0.36458  0.41470  0.21620  Biso   1.000  H
  C180     1.0000 0.41108  0.43500  0.17550  Biso   1.000  C
  O13      1.0000 0.41409  0.25858  0.25511  Biso   1.000  O
  C181     1.0000 0.46160  0.21229  0.21849  Biso   1.000  C
  H193     1.0000 0.55530  0.30899  0.21569  Biso   1.000  H
  C182     1.0000 0.54068  0.24298  0.19786  Biso   1.000  C
  C183     1.0000 0.37590  0.42798  0.14983  Biso   1.000  C
  C184     1.0000 0.45759  0.44249  0.16628  Biso   1.000  C
  H194     1.0000 0.42038  0.27939  0.27430  Biso   1.000  H
  C185     1.0000 0.50478  0.20458  0.19906  Biso   1.000  C
  C186     1.0000 0.42570  0.17281  0.21679  Biso   1.000  C
  C187     1.0000 0.58411  0.23730  0.17632  Biso   1.000  C
  C188     1.0000 0.38930  0.43131  0.11589  Biso   1.000  C
  O14      1.0000 0.32940  0.41741  0.15921  Biso   1.000  O
  C189     1.0000 0.47188  0.44579  0.13156  Biso   1.000  C
  H195     1.0000 0.48140  0.44568  0.18370  Biso   1.000  H
  H196     1.0000 0.50988  0.17501  0.18719  Biso   1.000  H
  H197     1.0000 0.39458  0.17950  0.22610  Biso   1.000  H
  N27      1.0000 0.43178  0.13238  0.20474  Biso   1.000  N
  C190     1.0000 0.62388  0.26838  0.17956  Biso   1.000  C
  C191     1.0000 0.58928  0.20118  0.15104  Biso   1.000  C
  C192     1.0000 0.43660  0.43960  0.10718  Biso   1.000  C
  C193     1.0000 0.35379  0.41980  0.08821  Biso   1.000  C
  H198     1.0000 0.31778  0.39129  0.14521  Biso   1.000  H
  C194     1.0000 0.52490  0.44901  0.12218  Biso   1.000  C
  C195     1.0000 0.38980  0.09949  0.20251  Biso   1.000  C
  C196     1.0000 0.66459  0.26610  0.15857  Biso   1.000  C
  H199     1.0000 0.62297  0.29238  0.19701  Biso   1.000  H
  H200     1.0000 0.56369  0.17860  0.14819  Biso   1.000  H
  C197     1.0000 0.62858  0.19651  0.13048  Biso   1.000  C
  H201     1.0000 0.44521  0.44108  0.08359  Biso   1.000  H
  H202     1.0000 0.36360  0.42201  0.06491  Biso   1.000  H
  N28      1.0000 0.31087  0.40714  0.09520  Biso   1.000  N
  C198     1.0000 0.53919  0.45389  0.08793  Biso   1.000  C
  C199     1.0000 0.55968  0.44340  0.14657  Biso   1.000  C
  C200     1.0000 0.38550  0.08150  0.16509  Biso   1.000  C
  H203     1.0000 0.35969  0.11740  0.20901  Biso   1.000  H
  C201     1.0000 0.39831  0.05751  0.22815  Biso   1.000  C
  C202     1.0000 0.66749  0.22901  0.13369  Biso   1.000  C
  C203     1.0000 0.70219  0.30200  0.16106  Biso   1.000  C
  C204     1.0000 0.63057  0.15801  0.10589  Biso   1.000  C
  C205     1.0000 0.27841  0.39570  0.06588  Biso   1.000  C
  C206     1.0000 0.58780  0.45259  0.07773  Biso   1.000  C
  H204     1.0000 0.51498  0.45831  0.07089  Biso   1.000  H
  C207     1.0000 0.60969  0.44220  0.13747  Biso   1.000  C
  H205     1.0000 0.55059  0.44018  0.17000  Biso   1.000  H
  H206     1.0000 0.41709  0.06641  0.15870  Biso   1.000  H
  C208     1.0000 0.34800  0.04520  0.16060  Biso   1.000  C
  N29      1.0000 0.37840  0.12330  0.14277  Biso   1.000  N
  H207     1.0000 0.40120  0.07021  0.25190  Biso   1.000  H
  H208     1.0000 0.42838  0.03992  0.22229  Biso   1.000  H
  C209     1.0000 0.35390  0.02331  0.22530  Biso   1.000  C
  O15      1.0000 0.70657  0.22622  0.11388  Biso   1.000  O
  H209     1.0000 0.72630  0.30211  0.14369  Biso   1.000  H
  N30      1.0000 0.70570  0.33363  0.18468  Biso   1.000  N
  H210     1.0000 0.60430  0.13589  0.10430  Biso   1.000  H
  N31      1.0000 0.66839  0.15265  0.08526  Biso   1.000  N
  C210     1.0000 0.26791  0.34189  0.06676  Biso   1.000  C
  H211     1.0000 0.29441  0.40449  0.04371  Biso   1.000  H
  C211     1.0000 0.23169  0.42360  0.06992  Biso   1.000  C
  C212     1.0000 0.62319  0.44658  0.10325  Biso   1.000  C
  C213     1.0000 0.60209  0.45299  0.04137  Biso   1.000  C
  C214     1.0000 0.64509  0.43319  0.16430  Biso   1.000  C
  C215     1.0000 0.35368  0.00148  0.18460  Biso   1.000  C
  H212     1.0000 0.34869  0.03369  0.13650  Biso   1.000  H
  H213     1.0000 0.31608  0.06029  0.16471  Biso   1.000  H
  C216     1.0000 0.41271  0.13691  0.12187  Biso   1.000  C
  H214     1.0000 0.32361  0.04129  0.23000  Biso   1.000  H
  H215     1.0000 0.35669  0.99649  0.24200  Biso   1.000  H
  H216     1.0000 0.70169  0.20610  0.09811  Biso   1.000  H
  C217     1.0000 0.74540  0.36910  0.18141  Biso   1.000  C
  C218     1.0000 0.66749  0.11501  0.05900  Biso   1.000  C
  N32      1.0000 0.31174  0.31406  0.06118  Biso   1.000  N
  H217     1.0000 0.25329  0.33298  0.08940  Biso   1.000  H
  C219     1.0000 0.23151  0.32918  0.03667  Biso   1.000  C
  C220     1.0000 0.19590  0.41141  0.04145  Biso   1.000  C
  H218     1.0000 0.23871  0.45878  0.06951  Biso   1.000  H
  H219     1.0000 0.21699  0.41589  0.09250  Biso   1.000  H
  O16      1.0000 0.67017  0.44470  0.09405  Biso   1.000  O
  H220     1.0000 0.63550  0.45151  0.03569  Biso   1.000  H
  N33      1.0000 0.57195  0.45509  0.01778  Biso   1.000  N
  N34      1.0000 0.69072  0.42961  0.15749  Biso   1.000  N
  H221     1.0000 0.63437  0.42990  0.18740  Biso   1.000  H
  H222     1.0000 0.38430  0.98429  0.17969  Biso   1.000  H
  H223     1.0000 0.32651  0.97868  0.18141  Biso   1.000  H
  C221     1.0000 0.40808  0.17711  0.09990  Biso   1.000  C
  H224     1.0000 0.44199  0.11888  0.12149  Biso   1.000  H
  H225     1.0000 0.76039  0.36559  0.15811  Biso   1.000  H
  C222     1.0000 0.72517  0.41980  0.18496  Biso   1.000  C
  C223     1.0000 0.78427  0.35998  0.20873  Biso   1.000  C
  C224     1.0000 0.65989  0.13618  0.02508  Biso   1.000  C
  H226     1.0000 0.64038  0.09221  0.06411  Biso   1.000  H
  C225     1.0000 0.71739  0.08689  0.06285  Biso   1.000  C
  C226     1.0000 0.31941  0.27750  0.08084  Biso   1.000  C
  H227     1.0000 0.24660  0.33649  0.01421  Biso   1.000  H
  H228     1.0000 0.22351  0.29430  0.03731  Biso   1.000  H
  C227     1.0000 0.18450  0.35991  0.04129  Biso   1.000  C
  H229     1.0000 0.16579  0.43030  0.04479  Biso   1.000  H
  H230     1.0000 0.20990  0.42060  0.01899  Biso   1.000  H
  H231     1.0000 0.68717  0.43909  0.11149  Biso   1.000  H
  C228     1.0000 0.59189  0.45509  0.98204  Biso   1.000  C
  C229     1.0000 0.36508  0.20679  0.10019  Biso   1.000  C
  C230     1.0000 0.44528  0.19130  0.07691  Biso   1.000  C
  H232     1.0000 0.70860  0.42299  0.20770  Biso   1.000  H
  C231     1.0000 0.76560  0.45780  0.18239  Biso   1.000  C
  C232     1.0000 0.82350  0.39599  0.20644  Biso   1.000  C
  H233     1.0000 0.76929  0.36161  0.23180  Biso   1.000  H
  H234     1.0000 0.79788  0.32719  0.20559  Biso   1.000  H
  H235     1.0000 0.68547  0.16119  0.02089  Biso   1.000  H
  N35      1.0000 0.61389  0.15909  0.02364  Biso   1.000  N
  C233     1.0000 0.66528  0.09478  0.99697  Biso   1.000  C
  H236     1.0000 0.74479  0.10958  0.05979  Biso   1.000  H
  H237     1.0000 0.71978  0.07242  0.08611  Biso   1.000  H
  C234     1.0000 0.71949  0.04741  0.03569  Biso   1.000  C
  C235     1.0000 0.36038  0.24710  0.07876  Biso   1.000  C
  H238     1.0000 0.29589  0.27041  0.09790  Biso   1.000  H
  H239     1.0000 0.16170  0.35278  0.02230  Biso   1.000  H
  H240     1.0000 0.16850  0.35108  0.06321  Biso   1.000  H
  C236     1.0000 0.55950  0.42100  0.95953  Biso   1.000  C
  H241     1.0000 0.62619  0.44351  0.98209  Biso   1.000  H
  C237     1.0000 0.58910  0.50601  0.96829  Biso   1.000  C
  O17      1.0000 0.32839  0.19535  0.12159  Biso   1.000  O
  H242     1.0000 0.47420  0.17270  0.07670  Biso   1.000  H
  C238     1.0000 0.44260  0.22930  0.05537  Biso   1.000  C
  H243     1.0000 0.75177  0.49048  0.18570  Biso   1.000  H
  H244     1.0000 0.78040  0.45650  0.15929  Biso   1.000  H
  C239     1.0000 0.80457  0.44810  0.20991  Biso   1.000  C
  H245     1.0000 0.84008  0.39241  0.18411  Biso   1.000  H
  H246     1.0000 0.84739  0.38969  0.22479  Biso   1.000  H
  C240     1.0000 0.61128  0.20230  0.01429  Biso   1.000  C
  C241     1.0000 0.71218  0.06880  0.99920  Biso   1.000  C
  H247     1.0000 0.63861  0.07119  0.99990  Biso   1.000  H
  H248     1.0000 0.66220  0.10929  0.97379  Biso   1.000  H
  H249     1.0000 0.69409  0.02309  0.04029  Biso   1.000  H
  H250     1.0000 0.75130  0.03091  0.03680  Biso   1.000  H
  C242     1.0000 0.39928  0.25749  0.05625  Biso   1.000  C
  N36      1.0000 0.56178  0.37210  0.97240  Biso   1.000  N
  H251     1.0000 0.52530  0.43269  0.95979  Biso   1.000  H
  C243     1.0000 0.57900  0.42038  0.92189  Biso   1.000  C
  C244     1.0000 0.60919  0.50670  0.93114  Biso   1.000  C
  H252     1.0000 0.60839  0.52797  0.98309  Biso   1.000  H
  H253     1.0000 0.55508  0.51730  0.96850  Biso   1.000  H
  H254     1.0000 0.32918  0.16050  0.12609  Biso   1.000  H
  C245     1.0000 0.48361  0.24428  0.03454  Biso   1.000  C
  H255     1.0000 0.83168  0.47108  0.20700  Biso   1.000  H
  H256     1.0000 0.79068  0.45288  0.23311  Biso   1.000  H
  C246     1.0000 0.56630  0.23118  0.01475  Biso   1.000  C
  H257     1.0000 0.64009  0.21750  0.00640  Biso   1.000  H
  H258     1.0000 0.73900  0.09142  0.99388  Biso   1.000  H
  H259     1.0000 0.71291  0.04231  0.98199  Biso   1.000  H
  H260     1.0000 0.39661  0.28438  0.04109  Biso   1.000  H
  C247     1.0000 0.52530  0.35260  0.98584  Biso   1.000  C
  H261     1.0000 0.55751  0.40091  0.90701  Biso   1.000  H
  H262     1.0000 0.61190  0.40620  0.92119  Biso   1.000  H
  C248     1.0000 0.58038  0.47438  0.90899  Biso   1.000  C
  H263     1.0000 0.60810  0.54010  0.92199  Biso   1.000  H
  H264     1.0000 0.64338  0.49591  0.93119  Biso   1.000  H
  C249     1.0000 0.52620  0.21551  0.03153  Biso   1.000  C
  C250     1.0000 0.48509  0.28699  0.01788  Biso   1.000  C
  C251     1.0000 0.56728  0.27559  0.99828  Biso   1.000  C
  C252     1.0000 0.52490  0.30450  0.00033  Biso   1.000  C
  H265     1.0000 0.49598  0.37058  0.98648  Biso   1.000  H
  H266     1.0000 0.59399  0.47510  0.88550  Biso   1.000  H
  H267     1.0000 0.54679  0.48690  0.90780  Biso   1.000  H
  H268     1.0000 0.52649  0.18421  0.04160  Biso   1.000  H
  H269     1.0000 0.45668  0.30649  0.01819  Biso   1.000  H
  O18      1.0000 0.60600  0.29079  0.98152  Biso   1.000  O
  H270     1.0000 0.59909  0.32249  0.97269  Biso   1.000  H
  C253     1.0000 0.42570  0.41430  0.65370  Biso   1.000  C
  C254     1.0000 0.45911  0.37898  0.67279  Biso   1.000  C
  H271     1.0000 0.44318  0.44499  0.64959  Biso   1.000  H
  H272     1.0000 0.41698  0.40041  0.63109  Biso   1.000  H
  C255     1.0000 0.38061  0.42469  0.67325  Biso   1.000  C
  C256     1.0000 0.47079  0.39700  0.70761  Biso   1.000  C
  H273     1.0000 0.44311  0.34710  0.67459  Biso   1.000  H
  H274     1.0000 0.48940  0.37478  0.65961  Biso   1.000  H
  C257     1.0000 0.39110  0.43909  0.71033  Biso   1.000  C
  H275     1.0000 0.35969  0.39559  0.67310  Biso   1.000  H
  H276     1.0000 0.36280  0.45118  0.66179  Biso   1.000  H
  C258     1.0000 0.42208  0.40569  0.72855  Biso   1.000  C
  H277     1.0000 0.48918  0.42758  0.70599  Biso   1.000  H
  H278     1.0000 0.49121  0.37301  0.71979  Biso   1.000  H
  H279     1.0000 0.40768  0.47119  0.70990  Biso   1.000  H
  N37      1.0000 0.34380  0.44553  0.72781  Biso   1.000  N
  H280     1.0000 0.40478  0.37410  0.73120  Biso   1.000  H
  N38      1.0000 0.43403  0.42480  0.76298  Biso   1.000  N
  C259     1.0000 0.33349  0.48191  0.74554  Biso   1.000  C
  C260     1.0000 0.42628  0.39628  0.78832  Biso   1.000  C
  C261     1.0000 0.29151  0.48929  0.76452  Biso   1.000  C
  H281     1.0000 0.35691  0.50709  0.74610  Biso   1.000  H
  H282     1.0000 0.41470  0.36458  0.78380  Biso   1.000  H
  C262     1.0000 0.43500  0.41108  0.82450  Biso   1.000  C
  C263     1.0000 0.25438  0.45469  0.76386  Biso   1.000  C
  C264     1.0000 0.28398  0.53170  0.78395  Biso   1.000  C
  C265     1.0000 0.42798  0.37590  0.85017  Biso   1.000  C
  C266     1.0000 0.44249  0.45759  0.83372  Biso   1.000  C
  C267     1.0000 0.21229  0.46160  0.78151  Biso   1.000  C
  O19      1.0000 0.25858  0.41409  0.74489  Biso   1.000  O
  H283     1.0000 0.30899  0.55530  0.78428  Biso   1.000  H
  C268     1.0000 0.24298  0.54068  0.80214  Biso   1.000  C
  C269     1.0000 0.43131  0.38930  0.88409  Biso   1.000  C
  O20      1.0000 0.41741  0.32940  0.84076  Biso   1.000  O
  C270     1.0000 0.44579  0.47188  0.86844  Biso   1.000  C
  H284     1.0000 0.44568  0.48140  0.81630  Biso   1.000  H
  C271     1.0000 0.20458  0.50478  0.80094  Biso   1.000  C
  C272     1.0000 0.17281  0.42570  0.78321  Biso   1.000  C
  H285     1.0000 0.27939  0.42038  0.72570  Biso   1.000  H
  C273     1.0000 0.23730  0.58411  0.82368  Biso   1.000  C
  C274     1.0000 0.43960  0.43660  0.89282  Biso   1.000  C
  C275     1.0000 0.41980  0.35379  0.91179  Biso   1.000  C
  H286     1.0000 0.39129  0.31778  0.85479  Biso   1.000  H
  C276     1.0000 0.44901  0.52490  0.87782  Biso   1.000  C
  H287     1.0000 0.17501  0.50988  0.81281  Biso   1.000  H
  H288     1.0000 0.17950  0.39458  0.77390  Biso   1.000  H
  N39      1.0000 0.13238  0.43178  0.79526  Biso   1.000  N
  C277     1.0000 0.26838  0.62388  0.82044  Biso   1.000  C
  C278     1.0000 0.20118  0.58928  0.84893  Biso   1.000  C
  H289     1.0000 0.44108  0.44521  0.91639  Biso   1.000  H
  H290     1.0000 0.42201  0.36360  0.93509  Biso   1.000  H
  N40      1.0000 0.40714  0.31087  0.90480  Biso   1.000  N
  C279     1.0000 0.45389  0.53919  0.91204  Biso   1.000  C
  C280     1.0000 0.44340  0.55968  0.85343  Biso   1.000  C
  C281     1.0000 0.09949  0.38980  0.79749  Biso   1.000  C
  C282     1.0000 0.26610  0.66459  0.84143  Biso   1.000  C
  H291     1.0000 0.29238  0.62297  0.80299  Biso   1.000  H
  H292     1.0000 0.17860  0.56369  0.85179  Biso   1.000  H
  C283     1.0000 0.19651  0.62858  0.86952  Biso   1.000  C
  C284     1.0000 0.39570  0.27841  0.93412  Biso   1.000  C
  C285     1.0000 0.45259  0.58780  0.92224  Biso   1.000  C
  H293     1.0000 0.45831  0.51498  0.92911  Biso   1.000  H
  C286     1.0000 0.44220  0.60969  0.86253  Biso   1.000  C
  H294     1.0000 0.44018  0.55059  0.83000  Biso   1.000  H
  C287     1.0000 0.08150  0.38550  0.83491  Biso   1.000  C
  H295     1.0000 0.11740  0.35969  0.79099  Biso   1.000  H
  C288     1.0000 0.05751  0.39831  0.77185  Biso   1.000  C
  C289     1.0000 0.22901  0.66749  0.86631  Biso   1.000  C
  C290     1.0000 0.30200  0.70219  0.83894  Biso   1.000  C
  C291     1.0000 0.15801  0.63057  0.89411  Biso   1.000  C
  H296     1.0000 0.40449  0.29441  0.95629  Biso   1.000  H
  C292     1.0000 0.34189  0.26791  0.93324  Biso   1.000  C
  C293     1.0000 0.42360  0.23169  0.93006  Biso   1.000  C
  C294     1.0000 0.44658  0.62319  0.89675  Biso   1.000  C
  C295     1.0000 0.45299  0.60209  0.95863  Biso   1.000  C
  C296     1.0000 0.43319  0.64509  0.83570  Biso   1.000  C
  H297     1.0000 0.06641  0.41709  0.84130  Biso   1.000  H
  C297     1.0000 0.04520  0.34800  0.83940  Biso   1.000  C
  N41      1.0000 0.12330  0.37840  0.85723  Biso   1.000  N
  H298     1.0000 0.07021  0.40120  0.74810  Biso   1.000  H
  H299     1.0000 0.03992  0.42838  0.77771  Biso   1.000  H
  C298     1.0000 0.02331  0.35390  0.77470  Biso   1.000  C
  O21      1.0000 0.22622  0.70657  0.88612  Biso   1.000  O
  H300     1.0000 0.30211  0.72630  0.85628  Biso   1.000  H
  N42      1.0000 0.33363  0.70570  0.81532  Biso   1.000  N
  H301     1.0000 0.13589  0.60430  0.89570  Biso   1.000  H
  N43      1.0000 0.15265  0.66839  0.91472  Biso   1.000  N
  H302     1.0000 0.33298  0.25329  0.91060  Biso   1.000  H
  C299     1.0000 0.32918  0.23151  0.96331  Biso   1.000  C
  N44      1.0000 0.31406  0.31174  0.93879  Biso   1.000  N
  C300     1.0000 0.41141  0.19590  0.95855  Biso   1.000  C
  H303     1.0000 0.45878  0.23871  0.93049  Biso   1.000  H
  H304     1.0000 0.41589  0.21699  0.90750  Biso   1.000  H
  O22      1.0000 0.44470  0.67017  0.90595  Biso   1.000  O
  H305     1.0000 0.45151  0.63550  0.96428  Biso   1.000  H
  N45      1.0000 0.45509  0.57195  0.98222  Biso   1.000  N
  H306     1.0000 0.42990  0.63437  0.81260  Biso   1.000  H
  N46      1.0000 0.42961  0.69072  0.84251  Biso   1.000  N
  C301     1.0000 0.00148  0.35368  0.81540  Biso   1.000  C
  H307     1.0000 0.03369  0.34869  0.86350  Biso   1.000  H
  H308     1.0000 0.06029  0.31608  0.83529  Biso   1.000  H
  C302     1.0000 0.13691  0.41271  0.87813  Biso   1.000  C
  H309     1.0000 0.04129  0.32361  0.77000  Biso   1.000  H
  H310     1.0000 0.99649  0.35669  0.75800  Biso   1.000  H
  H311     1.0000 0.20610  0.70169  0.90189  Biso   1.000  H
  C303     1.0000 0.36910  0.74540  0.81859  Biso   1.000  C
  C304     1.0000 0.11501  0.66749  0.94098  Biso   1.000  C
  H312     1.0000 0.33649  0.24660  0.98579  Biso   1.000  H
  H313     1.0000 0.29430  0.22351  0.96269  Biso   1.000  H
  C305     1.0000 0.35991  0.18450  0.95871  Biso   1.000  C
  C306     1.0000 0.27750  0.31941  0.91916  Biso   1.000  C
  H314     1.0000 0.43030  0.16579  0.95519  Biso   1.000  H
  H315     1.0000 0.42060  0.20990  0.98099  Biso   1.000  H
  H316     1.0000 0.43909  0.68717  0.88851  Biso   1.000  H
  C307     1.0000 0.45509  0.59189  0.01796  Biso   1.000  C
  C308     1.0000 0.41980  0.72517  0.81504  Biso   1.000  C
  H317     1.0000 0.98429  0.38430  0.82028  Biso   1.000  H
  H318     1.0000 0.97868  0.32651  0.81859  Biso   1.000  H
  C309     1.0000 0.17711  0.40808  0.90010  Biso   1.000  C
  H319     1.0000 0.11888  0.44199  0.87848  Biso   1.000  H
  H320     1.0000 0.36559  0.76039  0.84189  Biso   1.000  H
  C310     1.0000 0.35998  0.78427  0.79127  Biso   1.000  C
  C311     1.0000 0.13618  0.65989  0.97492  Biso   1.000  C
  H321     1.0000 0.09221  0.64038  0.93589  Biso   1.000  H
  C312     1.0000 0.08689  0.71739  0.93715  Biso   1.000  C
  H322     1.0000 0.35278  0.16170  0.97770  Biso   1.000  H
  H323     1.0000 0.35108  0.16850  0.93679  Biso   1.000  H
  H324     1.0000 0.27041  0.29589  0.90210  Biso   1.000  H
  C313     1.0000 0.24710  0.36038  0.92124  Biso   1.000  C
  H325     1.0000 0.44351  0.62619  0.01791  Biso   1.000  H
  C314     1.0000 0.42100  0.55950  0.04047  Biso   1.000  C
  C315     1.0000 0.50601  0.58910  0.03171  Biso   1.000  C
  H326     1.0000 0.42299  0.70860  0.79230  Biso   1.000  H
  C316     1.0000 0.45780  0.76560  0.81761  Biso   1.000  C
  C317     1.0000 0.20679  0.36508  0.89981  Biso   1.000  C
  C318     1.0000 0.19130  0.44528  0.92307  Biso   1.000  C
  C319     1.0000 0.39599  0.82350  0.79356  Biso   1.000  C
  H327     1.0000 0.36161  0.76929  0.76820  Biso   1.000  H
  H328     1.0000 0.32719  0.79788  0.79441  Biso   1.000  H
  H329     1.0000 0.16119  0.68547  0.97908  Biso   1.000  H
  N47      1.0000 0.15909  0.61389  0.97636  Biso   1.000  N
  C320     1.0000 0.09478  0.66528  0.00303  Biso   1.000  C
  H330     1.0000 0.10958  0.74479  0.94021  Biso   1.000  H
  H331     1.0000 0.07242  0.71978  0.91389  Biso   1.000  H
  C321     1.0000 0.04741  0.71949  0.96428  Biso   1.000  C
  C322     1.0000 0.25749  0.39928  0.94375  Biso   1.000  C
  H332     1.0000 0.43269  0.52530  0.04019  Biso   1.000  H
  C323     1.0000 0.42038  0.57900  0.07809  Biso   1.000  C
  N48      1.0000 0.37210  0.56178  0.02760  Biso   1.000  N
  C324     1.0000 0.50670  0.60919  0.06886  Biso   1.000  C
  H333     1.0000 0.52797  0.60839  0.01691  Biso   1.000  H
  H334     1.0000 0.51730  0.55508  0.03150  Biso   1.000  H
  H335     1.0000 0.49048  0.75177  0.81430  Biso   1.000  H
  H336     1.0000 0.45650  0.78040  0.84069  Biso   1.000  H
  C325     1.0000 0.44810  0.80457  0.79009  Biso   1.000  C
  O23      1.0000 0.19535  0.32839  0.87841  Biso   1.000  O
  H337     1.0000 0.17270  0.47420  0.92330  Biso   1.000  H
  C326     1.0000 0.22930  0.44260  0.94463  Biso   1.000  C
  H338     1.0000 0.39241  0.84008  0.81589  Biso   1.000  H
  H339     1.0000 0.38969  0.84739  0.77519  Biso   1.000  H
  C327     1.0000 0.20230  0.61128  0.98571  Biso   1.000  C
  C328     1.0000 0.06880  0.71218  0.00080  Biso   1.000  C
  H340     1.0000 0.07119  0.63861  0.00010  Biso   1.000  H
  H341     1.0000 0.10929  0.66220  0.02621  Biso   1.000  H
  H342     1.0000 0.02309  0.69409  0.95968  Biso   1.000  H
  H343     1.0000 0.03091  0.75130  0.96320  Biso   1.000  H
  H344     1.0000 0.28438  0.39661  0.95889  Biso   1.000  H
  H345     1.0000 0.40091  0.55751  0.09299  Biso   1.000  H
  H346     1.0000 0.40620  0.61190  0.07881  Biso   1.000  H
  C329     1.0000 0.47438  0.58038  0.09099  Biso   1.000  C
  C330     1.0000 0.35260  0.52530  0.01416  Biso   1.000  C
  H347     1.0000 0.54010  0.60810  0.07801  Biso   1.000  H
  H348     1.0000 0.49591  0.64338  0.06879  Biso   1.000  H
  H349     1.0000 0.47108  0.83168  0.79300  Biso   1.000  H
  H350     1.0000 0.45288  0.79068  0.76689  Biso   1.000  H
  H351     1.0000 0.16050  0.32918  0.87389  Biso   1.000  H
  C331     1.0000 0.24428  0.48361  0.96546  Biso   1.000  C
  C332     1.0000 0.23118  0.56630  0.98525  Biso   1.000  C
  H352     1.0000 0.21750  0.64009  0.99360  Biso   1.000  H
  H353     1.0000 0.09142  0.73900  0.00609  Biso   1.000  H
  H354     1.0000 0.04231  0.71291  0.01801  Biso   1.000  H
  H355     1.0000 0.47510  0.59399  0.11450  Biso   1.000  H
  H356     1.0000 0.48690  0.54679  0.09220  Biso   1.000  H
  C333     1.0000 0.30450  0.52490  0.99967  Biso   1.000  C
  H357     1.0000 0.37058  0.49598  0.01349  Biso   1.000  H
  C334     1.0000 0.21551  0.52620  0.96847  Biso   1.000  C
  C335     1.0000 0.28699  0.48509  0.98212  Biso   1.000  C
  C336     1.0000 0.27559  0.56728  0.00172  Biso   1.000  C
  H358     1.0000 0.18421  0.52649  0.95840  Biso   1.000  H
  H359     1.0000 0.30649  0.45668  0.98181  Biso   1.000  H
  O24      1.0000 0.29079  0.60600  0.01848  Biso   1.000  O
  H360     1.0000 0.32249  0.59909  0.02729  Biso   1.000  H
  C337     1.0000 0.58689  0.78257  0.31285  Biso   1.000  C
  C338     1.0000 0.54741  0.78047  0.28571  Biso   1.000  C
  C339     1.0000 0.61498  0.83248  0.30902  Biso   1.000  C
  H361     1.0000 0.60958  0.75518  0.30979  Biso   1.000  H
  H362     1.0000 0.57238  0.78018  0.33610  Biso   1.000  H
  H363     1.0000 0.52309  0.80588  0.29031  Biso   1.000  H
  H364     1.0000 0.53091  0.74870  0.28679  Biso   1.000  H
  C340     1.0000 0.56880  0.78778  0.24920  Biso   1.000  C
  C341     1.0000 0.63618  0.84008  0.27507  Biso   1.000  C
  H365     1.0000 0.59218  0.85958  0.31410  Biso   1.000  H
  N49      1.0000 0.65261  0.83157  0.33528  Biso   1.000  N
  H366     1.0000 0.59138  0.76100  0.24390  Biso   1.000  H
  H367     1.0000 0.54231  0.78709  0.23201  Biso   1.000  H
  C342     1.0000 0.59478  0.83468  0.24699  Biso   1.000  C
  H368     1.0000 0.66119  0.81449  0.27091  Biso   1.000  H
  N50      1.0000 0.65909  0.88607  0.27363  Biso   1.000  N
  C343     1.0000 0.65801  0.86939  0.35589  Biso   1.000  C
  H369     1.0000 0.57119  0.86139  0.24989  Biso   1.000  H
  H370     1.0000 0.60929  0.83780  0.22381  Biso   1.000  H
  C344     1.0000 0.70230  0.88868  0.26428  Biso   1.000  C
  C345     1.0000 0.69648  0.87138  0.38048  Biso   1.000  C
  H371     1.0000 0.63589  0.89570  0.35429  Biso   1.000  H
  C346     1.0000 0.73118  0.93370  0.26474  Biso   1.000  C
  H372     1.0000 0.71750  0.85987  0.25639  Biso   1.000  H
  C347     1.0000 0.72897  0.83248  0.38369  Biso   1.000  C
  C348     1.0000 0.70118  0.91068  0.40106  Biso   1.000  C
  C349     1.0000 0.77559  0.93269  0.24827  Biso   1.000  C
  C350     1.0000 0.71547  0.97380  0.28152  Biso   1.000  C
  C351     1.0000 0.76610  0.83537  0.40856  Biso   1.000  C
  O25      1.0000 0.72622  0.79339  0.36388  Biso   1.000  O
  C352     1.0000 0.73730  0.91589  0.42632  Biso   1.000  C
  H373     1.0000 0.67860  0.93627  0.39821  Biso   1.000  H
  C353     1.0000 0.80450  0.97510  0.25033  Biso   1.000  C
  O26      1.0000 0.79079  0.89400  0.23152  Biso   1.000  O
  H374     1.0000 0.68421  0.97347  0.29159  Biso   1.000  H
  C354     1.0000 0.74428  0.01639  0.28453  Biso   1.000  C
  C355     1.0000 0.76838  0.87609  0.42956  Biso   1.000  C
  C356     1.0000 0.80200  0.79777  0.41105  Biso   1.000  C
  H375     1.0000 0.70610  0.79828  0.34810  Biso   1.000  H
  C357     1.0000 0.74298  0.95929  0.44785  Biso   1.000  C
  C358     1.0000 0.85260  0.97470  0.23584  Biso   1.000  C
  C359     1.0000 0.78699  0.01491  0.26788  Biso   1.000  C
  H376     1.0000 0.82249  0.90088  0.22270  Biso   1.000  H
  C360     1.0000 0.72930  0.05740  0.30537  Biso   1.000  C
  H377     1.0000 0.79238  0.87699  0.44700  Biso   1.000  H
  H378     1.0000 0.80208  0.77370  0.39371  Biso   1.000  H
  N51      1.0000 0.83363  0.79426  0.43467  Biso   1.000  N
  C361     1.0000 0.78398  0.96830  0.46604  Biso   1.000  C
  C362     1.0000 0.70458  0.99519  0.44906  Biso   1.000  C
  N52      1.0000 0.87210  0.93819  0.22240  Biso   1.000  N
  H379     1.0000 0.87058  0.00402  0.23650  Biso   1.000  H
  H380     1.0000 0.80649  0.04328  0.26819  Biso   1.000  H
  C363     1.0000 0.69130  0.05468  0.32693  Biso   1.000  C
  C364     1.0000 0.75749  0.10072  0.30624  Biso   1.000  C
  C365     1.0000 0.86910  0.75460  0.43141  Biso   1.000  C
  H381     1.0000 0.80899  0.94470  0.46571  Biso   1.000  H
  C366     1.0000 0.79147  0.01071  0.48547  Biso   1.000  C
  H382     1.0000 0.67498  0.99008  0.43719  Biso   1.000  H
  C367     1.0000 0.71229  0.03840  0.46848  Biso   1.000  C
  C368     1.0000 0.92100  0.94050  0.20955  Biso   1.000  C
  C369     1.0000 0.67708  0.09189  0.34990  Biso   1.000  C
  H383     1.0000 0.67270  0.02580  0.32670  Biso   1.000  H
  C370     1.0000 0.74710  0.13958  0.32875  Biso   1.000  C
  H384     1.0000 0.78438  0.10339  0.29111  Biso   1.000  H
  H385     1.0000 0.86559  0.73958  0.40810  Biso   1.000  H
  C371     1.0000 0.91980  0.77479  0.43495  Biso   1.000  C
  C372     1.0000 0.85998  0.71569  0.45872  Biso   1.000  C
  C373     1.0000 0.75438  0.04531  0.48614  Biso   1.000  C
  C374     1.0000 0.83349  0.01809  0.50446  Biso   1.000  C
  C375     1.0000 0.67281  0.07430  0.46679  Biso   1.000  C
  C376     1.0000 0.95509  0.90808  0.23206  Biso   1.000  C
  H386     1.0000 0.93269  0.97470  0.20981  Biso   1.000  H
  C377     1.0000 0.92038  0.92100  0.17190  Biso   1.000  C
  C378     1.0000 0.70679  0.13492  0.35018  Biso   1.000  C
  C379     1.0000 0.63691  0.08729  0.37187  Biso   1.000  C
  C380     1.0000 0.77750  0.18059  0.33083  Biso   1.000  C
  H387     1.0000 0.92299  0.79140  0.45769  Biso   1.000  H
  C381     1.0000 0.95780  0.73440  0.43238  Biso   1.000  C
  N53      1.0000 0.92961  0.80924  0.40748  Biso   1.000  N
  C382     1.0000 0.89599  0.67650  0.45643  Biso   1.000  C
  H388     1.0000 0.86157  0.73067  0.48179  Biso   1.000  H
  H389     1.0000 0.82719  0.70208  0.45558  Biso   1.000  H
  O27      1.0000 0.75858  0.08591  0.50510  Biso   1.000  O
  H390     1.0000 0.85691  0.99287  0.50389  Biso   1.000  H
  N54      1.0000 0.84380  0.05447  0.52219  Biso   1.000  N
  H391     1.0000 0.67950  0.10539  0.47609  Biso   1.000  H
  N55      1.0000 0.63238  0.06818  0.45474  Biso   1.000  N
  H392     1.0000 0.94347  0.87377  0.23211  Biso   1.000  H
  N56      1.0000 0.95509  0.92802  0.26778  Biso   1.000  N
  C383     1.0000 0.00601  0.91090  0.21831  Biso   1.000  C
  H393     1.0000 0.90088  0.94249  0.15700  Biso   1.000  H
  H394     1.0000 0.90620  0.88810  0.17121  Biso   1.000  H
  C384     1.0000 0.97438  0.91959  0.15901  Biso   1.000  C
  O28      1.0000 0.69535  0.17161  0.37159  Biso   1.000  O
  H395     1.0000 0.61888  0.05801  0.37151  Biso   1.000  H
  N57      1.0000 0.62330  0.12160  0.39276  Biso   1.000  N
  H396     1.0000 0.77037  0.20411  0.34789  Biso   1.000  H
  N58      1.0000 0.81406  0.18826  0.31120  Biso   1.000  N
  H397     1.0000 0.99048  0.74819  0.43570  Biso   1.000  H
  H398     1.0000 0.95650  0.71960  0.40931  Biso   1.000  H
  C385     1.0000 0.94810  0.69539  0.45990  Biso   1.000  C
  C386     1.0000 0.93319  0.85488  0.41429  Biso   1.000  C
  H399     1.0000 0.89237  0.65989  0.43410  Biso   1.000  H
  H400     1.0000 0.88969  0.65258  0.47481  Biso   1.000  H
  H401     1.0000 0.77939  0.07958  0.52430  Biso   1.000  H
  C387     1.0000 0.89110  0.06091  0.53966  Biso   1.000  C
  C388     1.0000 0.59949  0.11020  0.45250  Biso   1.000  C
  C389     1.0000 0.95299  0.89787  0.29136  Biso   1.000  C
  C390     1.0000 0.00670  0.89078  0.18113  Biso   1.000  C
  H402     1.0000 0.02801  0.89157  0.23311  Biso   1.000  H
  H403     1.0000 0.01730  0.94488  0.21849  Biso   1.000  H
  H404     1.0000 0.97510  0.90598  0.13549  Biso   1.000  H
  H405     1.0000 0.98690  0.95317  0.15780  Biso   1.000  H
  H406     1.0000 0.66050  0.17078  0.37611  Biso   1.000  H
  C391     1.0000 0.58150  0.11450  0.41509  Biso   1.000  C
  C392     1.0000 0.84189  0.23209  0.31675  Biso   1.000  C
  H407     1.0000 0.97108  0.66828  0.45700  Biso   1.000  H
  H408     1.0000 0.95288  0.70929  0.48311  Biso   1.000  H
  H409     1.0000 0.92990  0.86559  0.43739  Biso   1.000  H
  C393     1.0000 0.94217  0.89027  0.38747  Biso   1.000  C
  H410     1.0000 0.90768  0.02881  0.54010  Biso   1.000  H
  C394     1.0000 0.92208  0.09431  0.52144  Biso   1.000  C
  C395     1.0000 0.88057  0.07531  0.57674  Biso   1.000  C
  H411     1.0000 0.61740  0.14031  0.45900  Biso   1.000  H
  C396     1.0000 0.55751  0.10169  0.47815  Biso   1.000  C
  C397     1.0000 0.95259  0.91220  0.32775  Biso   1.000  C
  H412     1.0000 0.95147  0.86450  0.28571  Biso   1.000  H
  H413     1.0000 0.99587  0.85658  0.18121  Biso   1.000  H
  H414     1.0000 0.04010  0.89190  0.17201  Biso   1.000  H
  H415     1.0000 0.56641  0.08291  0.40869  Biso   1.000  H
  C398     1.0000 0.54520  0.15200  0.41059  Biso   1.000  C
  C399     1.0000 0.89570  0.22159  0.31588  Biso   1.000  C
  H416     1.0000 0.83298  0.24671  0.33939  Biso   1.000  H
  C400     1.0000 0.82918  0.26849  0.28669  Biso   1.000  C
  C401     1.0000 0.94658  0.87677  0.35324  Biso   1.000  C
  C402     1.0000 0.94340  0.94029  0.39656  Biso   1.000  C
  H417     1.0000 0.90478  0.12590  0.51880  Biso   1.000  H
  C403     1.0000 0.97079  0.10300  0.54239  Biso   1.000  C
  N59      1.0000 0.93403  0.07520  0.48701  Biso   1.000  N
  C404     1.0000 0.92570  0.08570  0.59629  Biso   1.000  C
  H418     1.0000 0.85969  0.10441  0.57689  Biso   1.000  H
  H419     1.0000 0.86280  0.04878  0.58820  Biso   1.000  H
  H420     1.0000 0.57021  0.09880  0.50189  Biso   1.000  H
  H421     1.0000 0.53988  0.07158  0.47229  Biso   1.000  H
  C405     1.0000 0.52331  0.14610  0.47529  Biso   1.000  C
  C406     1.0000 0.95389  0.96077  0.33795  Biso   1.000  C
  C407     1.0000 0.50148  0.14632  0.43459  Biso   1.000  C
  H422     1.0000 0.53369  0.15131  0.38649  Biso   1.000  H
  H423     1.0000 0.56029  0.18388  0.41470  Biso   1.000  H
  H424     1.0000 0.90449  0.20559  0.29370  Biso   1.000  H
  C408     1.0000 0.92360  0.26831  0.31994  Biso   1.000  C
  N60      1.0000 0.90714  0.18913  0.34520  Biso   1.000  N
  H425     1.0000 0.83649  0.25340  0.26420  Biso   1.000  H
  H426     1.0000 0.79430  0.27649  0.28730  Biso   1.000  H
  C409     1.0000 0.85987  0.31550  0.29129  Biso   1.000  C
  O29      1.0000 0.94470  0.82983  0.34404  Biso   1.000  O
  C410     1.0000 0.94897  0.97510  0.37218  Biso   1.000  C
  H427     1.0000 0.94018  0.94937  0.42000  Biso   1.000  H
  H428     1.0000 0.98918  0.07242  0.54400  Biso   1.000  H
  H429     1.0000 0.99117  0.12699  0.53021  Biso   1.000  H
  C411     1.0000 0.95907  0.12098  0.57720  Biso   1.000  C
  C412     1.0000 0.92628  0.10368  0.46167  Biso   1.000  C
  H430     1.0000 0.94318  0.05501  0.60041  Biso   1.000  H
  H431     1.0000 0.91698  0.09959  0.61891  Biso   1.000  H
  H432     1.0000 0.54129  0.17639  0.48000  Biso   1.000  H
  H433     1.0000 0.49649  0.14331  0.49200  Biso   1.000  H
  H434     1.0000 0.95827  0.98498  0.32089  Biso   1.000  H
  H435     1.0000 0.48429  0.11570  0.42971  Biso   1.000  H
  H436     1.0000 0.47868  0.17349  0.43141  Biso   1.000  H
  C413     1.0000 0.91137  0.30410  0.29144  Biso   1.000  C
  H437     1.0000 0.95878  0.26129  0.31950  Biso   1.000  H
  H438     1.0000 0.91589  0.28301  0.34250  Biso   1.000  H
  C414     1.0000 0.91980  0.14621  0.33821  Biso   1.000  C
  H439     1.0000 0.85278  0.33830  0.27230  Biso   1.000  H
  H440     1.0000 0.85108  0.33150  0.31321  Biso   1.000  H
  H441     1.0000 0.93909  0.81279  0.36149  Biso   1.000  H
  C415     1.0000 0.94579  0.02808  0.38156  Biso   1.000  C
  H442     1.0000 0.94307  0.15290  0.57540  Biso   1.000  H
  H443     1.0000 0.98940  0.12518  0.59038  Biso   1.000  H
  H444     1.0000 0.91470  0.13539  0.46620  Biso   1.000  H
  C416     1.0000 0.93500  0.08888  0.42550  Biso   1.000  C
  H445     1.0000 0.93030  0.33418  0.29481  Biso   1.000  H
  H446     1.0000 0.92060  0.29010  0.26901  Biso   1.000  H
  C417     1.0000 0.93128  0.11070  0.36591  Biso   1.000  C
  H447     1.0000 0.92197  0.13640  0.31490  Biso   1.000  H
  C418     1.0000 0.93960  0.06340  0.35717  Biso   1.000  C
  C419     1.0000 0.94249  0.04241  0.41627  Biso   1.000  C
  C420     1.0000 0.92798  0.12410  0.39983  Biso   1.000  C
  H448     1.0000 0.94108  0.05479  0.33361  Biso   1.000  H
  H449     1.0000 0.94568  0.01860  0.43369  Biso   1.000  H
  O30      1.0000 0.91741  0.17060  0.40923  Biso   1.000  O
  H450     1.0000 0.89129  0.18218  0.39520  Biso   1.000  H
  C421     1.0000 0.78257  0.58689  0.68715  Biso   1.000  C
  C422     1.0000 0.83248  0.61498  0.69098  Biso   1.000  C
  H451     1.0000 0.75518  0.60958  0.69019  Biso   1.000  H
  H452     1.0000 0.78018  0.57238  0.66390  Biso   1.000  H
  C423     1.0000 0.78047  0.54741  0.71429  Biso   1.000  C
  N61      1.0000 0.83157  0.65261  0.66472  Biso   1.000  N
  C424     1.0000 0.84008  0.63618  0.72493  Biso   1.000  C
  H453     1.0000 0.85958  0.59218  0.68590  Biso   1.000  H
  C425     1.0000 0.78778  0.56880  0.75080  Biso   1.000  C
  H454     1.0000 0.80588  0.52309  0.70969  Biso   1.000  H
  H455     1.0000 0.74870  0.53091  0.71318  Biso   1.000  H
  C426     1.0000 0.86939  0.65801  0.64411  Biso   1.000  C
  H456     1.0000 0.81449  0.66119  0.72909  Biso   1.000  H
  C427     1.0000 0.83468  0.59478  0.75301  Biso   1.000  C
  N62      1.0000 0.88607  0.65909  0.72637  Biso   1.000  N
  H457     1.0000 0.76100  0.59138  0.75610  Biso   1.000  H
  H458     1.0000 0.78709  0.54231  0.76799  Biso   1.000  H
  C428     1.0000 0.87138  0.69648  0.61952  Biso   1.000  C
  H459     1.0000 0.89570  0.63589  0.64571  Biso   1.000  H
  H460     1.0000 0.86139  0.57119  0.75008  Biso   1.000  H
  H461     1.0000 0.83780  0.60929  0.77619  Biso   1.000  H
  C429     1.0000 0.88868  0.70230  0.73572  Biso   1.000  C
  C430     1.0000 0.83248  0.72897  0.61631  Biso   1.000  C
  C431     1.0000 0.91068  0.70118  0.59894  Biso   1.000  C
  C432     1.0000 0.93370  0.73118  0.73526  Biso   1.000  C
  H462     1.0000 0.85987  0.71750  0.74361  Biso   1.000  H
  C433     1.0000 0.83537  0.76610  0.59144  Biso   1.000  C
  O31      1.0000 0.79339  0.72622  0.63610  Biso   1.000  O
  C434     1.0000 0.91589  0.73730  0.57368  Biso   1.000  C
  H463     1.0000 0.93627  0.67860  0.60179  Biso   1.000  H
  C435     1.0000 0.93269  0.77559  0.75173  Biso   1.000  C
  C436     1.0000 0.97380  0.71547  0.71848  Biso   1.000  C
  C437     1.0000 0.79777  0.80200  0.58895  Biso   1.000  C
  C438     1.0000 0.87609  0.76838  0.57044  Biso   1.000  C
  H464     1.0000 0.79828  0.70610  0.65190  Biso   1.000  H
  C439     1.0000 0.95929  0.74298  0.55215  Biso   1.000  C
  C440     1.0000 0.97510  0.80450  0.74965  Biso   1.000  C
  O32      1.0000 0.89400  0.79079  0.76848  Biso   1.000  O
  H465     1.0000 0.97347  0.68421  0.70841  Biso   1.000  H
  C441     1.0000 0.01639  0.74428  0.71547  Biso   1.000  C
  N63      1.0000 0.79426  0.83363  0.56533  Biso   1.000  N
  H466     1.0000 0.77370  0.80208  0.60629  Biso   1.000  H
  H467     1.0000 0.87699  0.79238  0.55300  Biso   1.000  H
  C442     1.0000 0.96830  0.78398  0.53396  Biso   1.000  C
  C443     1.0000 0.99519  0.70458  0.55092  Biso   1.000  C
  C444     1.0000 0.97470  0.85260  0.76416  Biso   1.000  C
  C445     1.0000 0.01491  0.78699  0.73212  Biso   1.000  C
  H468     1.0000 0.90088  0.82249  0.77730  Biso   1.000  H
  C446     1.0000 0.05740  0.72930  0.69461  Biso   1.000  C
  C447     1.0000 0.75460  0.86910  0.56859  Biso   1.000  C
  H469     1.0000 0.94470  0.80899  0.53429  Biso   1.000  H
  C448     1.0000 0.01071  0.79147  0.51453  Biso   1.000  C
  H470     1.0000 0.99008  0.67498  0.56279  Biso   1.000  H
  C449     1.0000 0.03840  0.71229  0.53152  Biso   1.000  C
  N64      1.0000 0.93819  0.87210  0.77758  Biso   1.000  N
  H471     1.0000 0.00402  0.87058  0.76350  Biso   1.000  H
  H472     1.0000 0.04328  0.80649  0.73179  Biso   1.000  H
  C450     1.0000 0.05468  0.69130  0.67307  Biso   1.000  C
  C451     1.0000 0.10072  0.75749  0.69376  Biso   1.000  C
  C452     1.0000 0.71569  0.85998  0.54125  Biso   1.000  C
  H473     1.0000 0.73958  0.86559  0.59190  Biso   1.000  H
  C453     1.0000 0.77479  0.91980  0.56505  Biso   1.000  C
  C454     1.0000 0.04531  0.75438  0.51386  Biso   1.000  C
  C455     1.0000 0.01809  0.83349  0.49554  Biso   1.000  C
  C456     1.0000 0.07430  0.67281  0.53319  Biso   1.000  C
  C457     1.0000 0.94050  0.92100  0.79045  Biso   1.000  C
  C458     1.0000 0.09189  0.67708  0.65010  Biso   1.000  C
  H474     1.0000 0.02580  0.67270  0.67330  Biso   1.000  H
  C459     1.0000 0.13958  0.74710  0.67125  Biso   1.000  C
  H475     1.0000 0.10339  0.78438  0.70889  Biso   1.000  H
  C460     1.0000 0.67650  0.89599  0.54357  Biso   1.000  C
  H476     1.0000 0.73067  0.86157  0.51821  Biso   1.000  H
  H477     1.0000 0.70208  0.82719  0.54439  Biso   1.000  H
  H478     1.0000 0.79140  0.92299  0.54231  Biso   1.000  H
  C461     1.0000 0.73440  0.95780  0.56762  Biso   1.000  C
  N65      1.0000 0.80924  0.92961  0.59252  Biso   1.000  N
  O33      1.0000 0.08591  0.75858  0.49490  Biso   1.000  O
  H479     1.0000 0.99287  0.85691  0.49611  Biso   1.000  H
  N66      1.0000 0.05447  0.84380  0.47781  Biso   1.000  N
  H480     1.0000 0.10539  0.67950  0.52391  Biso   1.000  H
  N67      1.0000 0.06818  0.63238  0.54524  Biso   1.000  N
  C462     1.0000 0.90808  0.95509  0.76794  Biso   1.000  C
  H481     1.0000 0.97470  0.93269  0.79019  Biso   1.000  H
  C463     1.0000 0.92100  0.92038  0.82810  Biso   1.000  C
  C464     1.0000 0.08729  0.63691  0.62813  Biso   1.000  C
  C465     1.0000 0.13492  0.70679  0.64982  Biso   1.000  C
  C466     1.0000 0.18059  0.77750  0.66917  Biso   1.000  C
  C467     1.0000 0.69539  0.94810  0.54010  Biso   1.000  C
  H482     1.0000 0.65989  0.89237  0.56590  Biso   1.000  H
  H483     1.0000 0.65258  0.88969  0.52519  Biso   1.000  H
  H484     1.0000 0.74819  0.99048  0.56430  Biso   1.000  H
  H485     1.0000 0.71960  0.95650  0.59069  Biso   1.000  H
  C468     1.0000 0.85488  0.93319  0.58571  Biso   1.000  C
  H486     1.0000 0.07958  0.77939  0.47570  Biso   1.000  H
  C469     1.0000 0.06091  0.89110  0.46034  Biso   1.000  C
  C470     1.0000 0.11020  0.59949  0.54750  Biso   1.000  C
  N68      1.0000 0.92802  0.95509  0.73222  Biso   1.000  N
  H487     1.0000 0.87377  0.94347  0.76789  Biso   1.000  H
  C471     1.0000 0.91090  0.00601  0.78169  Biso   1.000  C
  H488     1.0000 0.94249  0.90088  0.84300  Biso   1.000  H
  H489     1.0000 0.88810  0.90620  0.82879  Biso   1.000  H
  C472     1.0000 0.91959  0.97438  0.84099  Biso   1.000  C
  N69      1.0000 0.12160  0.62330  0.60722  Biso   1.000  N
  H490     1.0000 0.05801  0.61888  0.62849  Biso   1.000  H
  O34      1.0000 0.17161  0.69535  0.62841  Biso   1.000  O
  N70      1.0000 0.18826  0.81406  0.68880  Biso   1.000  N
  H491     1.0000 0.20411  0.77037  0.65211  Biso   1.000  H
  H492     1.0000 0.66828  0.97108  0.54300  Biso   1.000  H
  H493     1.0000 0.70929  0.95288  0.51689  Biso   1.000  H
  H494     1.0000 0.86559  0.92990  0.56261  Biso   1.000  H
  C473     1.0000 0.89027  0.94217  0.61253  Biso   1.000  C
  C474     1.0000 0.09431  0.92208  0.47856  Biso   1.000  C
  H495     1.0000 0.02881  0.90768  0.45990  Biso   1.000  H
  C475     1.0000 0.07531  0.88057  0.42326  Biso   1.000  C
  C476     1.0000 0.11450  0.58150  0.58491  Biso   1.000  C
  H496     1.0000 0.14031  0.61740  0.54100  Biso   1.000  H
  C477     1.0000 0.10169  0.55751  0.52183  Biso   1.000  C
  C478     1.0000 0.89787  0.95299  0.70864  Biso   1.000  C
  C479     1.0000 0.89078  0.00670  0.81887  Biso   1.000  C
  H497     1.0000 0.89157  0.02801  0.76689  Biso   1.000  H
  H498     1.0000 0.94488  0.01730  0.78148  Biso   1.000  H
  H499     1.0000 0.90598  0.97510  0.86451  Biso   1.000  H
  H500     1.0000 0.95317  0.98690  0.84220  Biso   1.000  H
  H501     1.0000 0.17078  0.66050  0.62389  Biso   1.000  H
  C480     1.0000 0.23209  0.84189  0.68325  Biso   1.000  C
  C481     1.0000 0.87677  0.94658  0.64674  Biso   1.000  C
  C482     1.0000 0.94029  0.94340  0.60344  Biso   1.000  C
  N71      1.0000 0.07520  0.93403  0.51299  Biso   1.000  N
  H502     1.0000 0.12590  0.90478  0.48120  Biso   1.000  H
  C483     1.0000 0.10300  0.97079  0.45759  Biso   1.000  C
  C484     1.0000 0.08570  0.92570  0.40371  Biso   1.000  C
  H503     1.0000 0.10441  0.85969  0.42311  Biso   1.000  H
  H504     1.0000 0.04878  0.86280  0.41180  Biso   1.000  H
  H505     1.0000 0.08291  0.56641  0.59131  Biso   1.000  H
  C485     1.0000 0.15200  0.54520  0.58941  Biso   1.000  C
  H506     1.0000 0.09880  0.57021  0.49809  Biso   1.000  H
  H507     1.0000 0.07158  0.53988  0.52769  Biso   1.000  H
  C486     1.0000 0.14610  0.52331  0.52471  Biso   1.000  C
  C487     1.0000 0.91220  0.95259  0.67225  Biso   1.000  C
  H508     1.0000 0.86450  0.95147  0.71429  Biso   1.000  H
  H509     1.0000 0.85658  0.99587  0.81879  Biso   1.000  H
  H510     1.0000 0.89190  0.04010  0.82799  Biso   1.000  H
  C488     1.0000 0.22159  0.89570  0.68410  Biso   1.000  C
  H511     1.0000 0.24671  0.83298  0.66059  Biso   1.000  H
  C489     1.0000 0.26849  0.82918  0.71331  Biso   1.000  C
  O35      1.0000 0.82983  0.94470  0.65593  Biso   1.000  O
  C490     1.0000 0.97510  0.94897  0.62782  Biso   1.000  C
  H512     1.0000 0.94937  0.94018  0.58000  Biso   1.000  H
  C491     1.0000 0.10368  0.92628  0.53830  Biso   1.000  C
  H513     1.0000 0.07242  0.98918  0.45600  Biso   1.000  H
  H514     1.0000 0.12699  0.99117  0.46979  Biso   1.000  H
  C492     1.0000 0.12098  0.95907  0.42280  Biso   1.000  C
  H515     1.0000 0.05501  0.94318  0.39959  Biso   1.000  H
  H516     1.0000 0.09959  0.91698  0.38109  Biso   1.000  H
  C493     1.0000 0.14632  0.50148  0.56541  Biso   1.000  C
  H517     1.0000 0.15131  0.53369  0.61349  Biso   1.000  H
  H518     1.0000 0.18388  0.56029  0.58530  Biso   1.000  H
  H519     1.0000 0.17639  0.54129  0.52000  Biso   1.000  H
  H520     1.0000 0.14331  0.49649  0.50800  Biso   1.000  H
  C494     1.0000 0.96077  0.95389  0.66205  Biso   1.000  C
  N72      1.0000 0.18913  0.90714  0.65480  Biso   1.000  N
  H521     1.0000 0.20559  0.90449  0.70630  Biso   1.000  H
  C495     1.0000 0.26831  0.92360  0.68006  Biso   1.000  C
  H522     1.0000 0.25340  0.83649  0.73580  Biso   1.000  H
  H523     1.0000 0.27649  0.79430  0.71270  Biso   1.000  H
  C496     1.0000 0.31550  0.85987  0.70869  Biso   1.000  C
  H524     1.0000 0.81279  0.93909  0.63849  Biso   1.000  H
  C497     1.0000 0.02808  0.94579  0.61842  Biso   1.000  C
  C498     1.0000 0.08888  0.93500  0.57450  Biso   1.000  C
  H525     1.0000 0.13539  0.91470  0.53380  Biso   1.000  H
  H526     1.0000 0.15290  0.94307  0.42460  Biso   1.000  H
  H527     1.0000 0.12518  0.98940  0.40959  Biso   1.000  H
  H528     1.0000 0.11570  0.48429  0.57029  Biso   1.000  H
  H529     1.0000 0.17349  0.47868  0.56859  Biso   1.000  H
  H530     1.0000 0.98498  0.95827  0.67909  Biso   1.000  H
  C499     1.0000 0.14621  0.91980  0.66177  Biso   1.000  C
  C500     1.0000 0.30410  0.91137  0.70856  Biso   1.000  C
  H531     1.0000 0.26129  0.95878  0.68050  Biso   1.000  H
  H532     1.0000 0.28301  0.91589  0.65750  Biso   1.000  H
  H533     1.0000 0.33830  0.85278  0.72770  Biso   1.000  H
  H534     1.0000 0.33150  0.85108  0.68679  Biso   1.000  H
  C501     1.0000 0.06340  0.93960  0.64283  Biso   1.000  C
  C502     1.0000 0.04241  0.94249  0.58373  Biso   1.000  C
  C503     1.0000 0.12410  0.92798  0.60015  Biso   1.000  C
  C504     1.0000 0.11070  0.93128  0.63409  Biso   1.000  C
  H535     1.0000 0.13640  0.92197  0.68510  Biso   1.000  H
  H536     1.0000 0.33418  0.93030  0.70519  Biso   1.000  H
  H537     1.0000 0.29010  0.92060  0.73099  Biso   1.000  H
  H538     1.0000 0.05479  0.94108  0.66639  Biso   1.000  H
  H539     1.0000 0.01860  0.94568  0.56631  Biso   1.000  H
  O36      1.0000 0.17060  0.91741  0.59077  Biso   1.000  O
  H540     1.0000 0.18218  0.89129  0.60480  Biso   1.000  H
  C505     1.0000 0.21218  0.43120  0.25079  Biso   1.000  C
  C506     1.0000 0.16532  0.40518  0.25303  Biso   1.000  C
  C507     1.0000 0.21949  0.45259  0.21430  Biso   1.000  C
  H541     1.0000 0.23900  0.40858  0.25611  Biso   1.000  H
  H542     1.0000 0.21291  0.45769  0.26801  Biso   1.000  H
  C508     1.0000 0.15989  0.36378  0.22494  Biso   1.000  C
  H543     1.0000 0.13861  0.42878  0.25010  Biso   1.000  H
  H544     1.0000 0.16220  0.39071  0.27620  Biso   1.000  H
  C509     1.0000 0.21739  0.41311  0.18714  Biso   1.000  C
  H545     1.0000 0.19409  0.47691  0.20970  Biso   1.000  H
  H546     1.0000 0.25130  0.46909  0.21320  Biso   1.000  H
  H547     1.0000 0.18551  0.33881  0.22910  Biso   1.000  H
  C510     1.0000 0.16749  0.38499  0.19100  Biso   1.000  C
  N73      1.0000 0.11389  0.34091  0.22638  Biso   1.000  N
  H548     1.0000 0.24479  0.39038  0.19020  Biso   1.000  H
  H549     1.0000 0.21978  0.42758  0.16389  Biso   1.000  H
  H550     1.0000 0.14038  0.40779  0.18591  Biso   1.000  H
  N74      1.0000 0.16839  0.34735  0.16474  Biso   1.000  N
  C511     1.0000 0.11128  0.29770  0.23571  Biso   1.000  C
  C512     1.0000 0.13061  0.34199  0.14413  Biso   1.000  C
  C513     1.0000 0.06630  0.26878  0.23527  Biso   1.000  C
  H551     1.0000 0.14009  0.28250  0.24360  Biso   1.000  H
  C514     1.0000 0.12858  0.30349  0.11951  Biso   1.000  C
  H552     1.0000 0.10430  0.36411  0.14569  Biso   1.000  H
  C515     1.0000 0.06731  0.22441  0.25172  Biso   1.000  C
  C516     1.0000 0.02620  0.28449  0.21849  Biso   1.000  C
  C517     1.0000 0.16749  0.27099  0.11630  Biso   1.000  C
  C518     1.0000 0.08932  0.29878  0.09895  Biso   1.000  C
  C519     1.0000 0.02490  0.19550  0.24966  Biso   1.000  C
  O37      1.0000 0.10600  0.20921  0.26847  Biso   1.000  O
  H553     1.0000 0.02649  0.31579  0.20839  Biso   1.000  H
  C520     1.0000 0.98357  0.25568  0.21546  Biso   1.000  C
  C521     1.0000 0.16459  0.23390  0.09145  Biso   1.000  C
  O38      1.0000 0.20657  0.27378  0.13611  Biso   1.000  O
  C522     1.0000 0.08411  0.26270  0.07367  Biso   1.000  C
  H554     1.0000 0.06369  0.32140  0.10181  Biso   1.000  H
  C523     1.0000 0.02530  0.14740  0.26415  Biso   1.000  C
  C524     1.0000 0.98509  0.21301  0.23211  Biso   1.000  C
  H555     1.0000 0.09909  0.17751  0.27731  Biso   1.000  H
  C525     1.0000 0.94260  0.27070  0.19462  Biso   1.000  C
  C526     1.0000 0.12391  0.23158  0.07043  Biso   1.000  C
  C527     1.0000 0.20219  0.19800  0.08896  Biso   1.000  C
  H556     1.0000 0.20169  0.29390  0.15189  Biso   1.000  H
  C528     1.0000 0.04071  0.25698  0.05214  Biso   1.000  C
  N75      1.0000 0.06181  0.12790  0.27759  Biso   1.000  N
  H557     1.0000 0.99598  0.12942  0.26351  Biso   1.000  H
  H558     1.0000 0.95668  0.19351  0.23180  Biso   1.000  H
  C529     1.0000 0.94528  0.30870  0.17309  Biso   1.000  C
  C530     1.0000 0.89928  0.24251  0.19377  Biso   1.000  C
  H559     1.0000 0.12301  0.20759  0.05301  Biso   1.000  H
  H560     1.0000 0.22630  0.19789  0.10630  Biso   1.000  H
  N76      1.0000 0.20570  0.16637  0.06532  Biso   1.000  N
  C531     1.0000 0.03170  0.21598  0.03394  Biso   1.000  C
  C532     1.0000 0.00481  0.29538  0.05093  Biso   1.000  C
  C533     1.0000 0.05950  0.07900  0.29046  Biso   1.000  C
  C534     1.0000 0.90808  0.32289  0.15009  Biso   1.000  C
  H561     1.0000 0.97420  0.32730  0.17329  Biso   1.000  H
  C535     1.0000 0.86038  0.25290  0.17124  Biso   1.000  C
  H562     1.0000 0.89657  0.21558  0.20891  Biso   1.000  H
  C536     1.0000 0.24540  0.13090  0.06861  Biso   1.000  C
  H563     1.0000 0.05530  0.19101  0.03430  Biso   1.000  H
  C537     1.0000 0.98929  0.20849  0.01454  Biso   1.000  C
  H564     1.0000 0.00992  0.32499  0.06280  Biso   1.000  H
  C538     1.0000 0.96160  0.28771  0.03153  Biso   1.000  C
  C539     1.0000 0.09189  0.04491  0.26795  Biso   1.000  C
  H565     1.0000 0.02530  0.06731  0.29021  Biso   1.000  H
  C540     1.0000 0.07900  0.07958  0.32811  Biso   1.000  C
  C541     1.0000 0.86508  0.29321  0.14983  Biso   1.000  C
  C542     1.0000 0.91267  0.36309  0.12812  Biso   1.000  C
  C543     1.0000 0.81938  0.22250  0.16915  Biso   1.000  C
  H566     1.0000 0.26039  0.13441  0.09189  Biso   1.000  H
  C544     1.0000 0.22521  0.08020  0.06506  Biso   1.000  C
  C545     1.0000 0.28431  0.13998  0.04127  Biso   1.000  C
  C546     1.0000 0.98187  0.16651  0.99553  Biso   1.000  C
  C547     1.0000 0.95469  0.24558  0.01388  Biso   1.000  C
  C548     1.0000 0.92570  0.32719  0.03320  Biso   1.000  C
  H567     1.0000 0.12619  0.05649  0.26790  Biso   1.000  H
  N77      1.0000 0.07195  0.04491  0.23221  Biso   1.000  N
  C549     1.0000 0.08910  0.99399  0.28170  Biso   1.000  C
  H568     1.0000 0.05751  0.09909  0.34299  Biso   1.000  H
  H569     1.0000 0.11190  0.09380  0.32880  Biso   1.000  H
  C550     1.0000 0.08041  0.02559  0.34101  Biso   1.000  C
  O39      1.0000 0.82839  0.30465  0.12840  Biso   1.000  O
  H570     1.0000 0.94199  0.38108  0.12850  Biso   1.000  H
  N78      1.0000 0.87840  0.37670  0.10723  Biso   1.000  N
  H571     1.0000 0.79589  0.22959  0.15209  Biso   1.000  H
  N79      1.0000 0.81174  0.18594  0.18881  Biso   1.000  N
  H572     1.0000 0.20860  0.07701  0.04230  Biso   1.000  H
  C551     1.0000 0.26560  0.04220  0.06761  Biso   1.000  C
  N80      1.0000 0.19072  0.07039  0.09250  Biso   1.000  N
  C552     1.0000 0.32350  0.10401  0.04355  Biso   1.000  C
  H573     1.0000 0.26929  0.13839  0.01819  Biso   1.000  H
  H574     1.0000 0.29788  0.17281  0.04440  Biso   1.000  H
  N81      1.0000 0.94553  0.15620  0.97782  Biso   1.000  N
  H575     1.0000 0.00709  0.14309  0.99609  Biso   1.000  H
  O40      1.0000 0.91405  0.24142  0.99489  Biso   1.000  O
  H576     1.0000 0.89458  0.32050  0.02390  Biso   1.000  H
  N82      1.0000 0.93178  0.36758  0.04525  Biso   1.000  N
  C553     1.0000 0.10209  0.04701  0.20865  Biso   1.000  C
  C554     1.0000 0.10919  0.99327  0.31886  Biso   1.000  C
  H577     1.0000 0.10839  0.97199  0.26690  Biso   1.000  H
  H578     1.0000 0.05512  0.98270  0.28150  Biso   1.000  H
  H579     1.0000 0.09399  0.02490  0.36449  Biso   1.000  H
  H580     1.0000 0.04679  0.01310  0.34219  Biso   1.000  H
  H581     1.0000 0.82918  0.33950  0.12390  Biso   1.000  H
  C555     1.0000 0.88550  0.41850  0.08490  Biso   1.000  C
  C556     1.0000 0.76788  0.15811  0.18326  Biso   1.000  C
  H582     1.0000 0.25181  0.00952  0.06429  Biso   1.000  H
  H583     1.0000 0.28040  0.04350  0.09071  Biso   1.000  H
  C557     1.0000 0.30461  0.05190  0.04011  Biso   1.000  C
  C558     1.0000 0.14509  0.06681  0.08570  Biso   1.000  C
  H584     1.0000 0.34011  0.10759  0.06591  Biso   1.000  H
  H585     1.0000 0.34739  0.11031  0.02521  Biso   1.000  H
  C559     1.0000 0.93909  0.10890  0.96033  Biso   1.000  C
  H586     1.0000 0.92038  0.22061  0.97569  Biso   1.000  H
  C560     1.0000 0.88980  0.40048  0.04751  Biso   1.000  C
  C561     1.0000 0.08780  0.04741  0.17226  Biso   1.000  C
  H587     1.0000 0.13550  0.04849  0.21430  Biso   1.000  H
  H588     1.0000 0.14338  0.00409  0.31881  Biso   1.000  H
  H589     1.0000 0.10810  0.95990  0.32801  Biso   1.000  H
  H590     1.0000 0.91709  0.43359  0.09130  Biso   1.000  H
  C562     1.0000 0.84800  0.45480  0.08940  Biso   1.000  C
  C563     1.0000 0.77837  0.10430  0.18411  Biso   1.000  C
  H591     1.0000 0.75329  0.16698  0.16060  Biso   1.000  H
  C564     1.0000 0.73151  0.17078  0.21333  Biso   1.000  C
  H592     1.0000 0.33168  0.02892  0.04299  Biso   1.000  H
  H593     1.0000 0.29071  0.04708  0.01691  Biso   1.000  H
  H594     1.0000 0.13441  0.07010  0.06259  Biso   1.000  H
  C565     1.0000 0.10969  0.05780  0.11252  Biso   1.000  C
  H595     1.0000 0.97119  0.09228  0.95989  Biso   1.000  H
  C566     1.0000 0.90569  0.07792  0.97854  Biso   1.000  C
  C567     1.0000 0.92469  0.11939  0.92325  Biso   1.000  C
  H596     1.0000 0.85969  0.38260  0.04101  Biso   1.000  H
  C568     1.0000 0.89827  0.44249  0.02184  Biso   1.000  C
  C569     1.0000 0.12319  0.05342  0.14675  Biso   1.000  C
  C570     1.0000 0.03919  0.04611  0.16206  Biso   1.000  C
  C571     1.0000 0.85368  0.49848  0.06540  Biso   1.000  C
  H597     1.0000 0.84869  0.46631  0.11350  Biso   1.000  H
  H598     1.0000 0.81608  0.43971  0.08531  Biso   1.000  H
  H599     1.0000 0.79441  0.09551  0.20631  Biso   1.000  H
  C572     1.0000 0.73169  0.07640  0.18008  Biso   1.000  C
  N83      1.0000 0.81087  0.09286  0.15479  Biso   1.000  N
  H600     1.0000 0.74660  0.16351  0.23581  Biso   1.000  H
  H601     1.0000 0.72347  0.20570  0.21271  Biso   1.000  H
  C573     1.0000 0.68450  0.14009  0.20870  Biso   1.000  C
  C574     1.0000 0.05971  0.05660  0.10345  Biso   1.000  C
  H602     1.0000 0.87410  0.09522  0.98119  Biso   1.000  H
  C575     1.0000 0.89700  0.02921  0.95760  Biso   1.000  C
  N84      1.0000 0.92480  0.06594  0.01300  Biso   1.000  N
  C576     1.0000 0.91430  0.07430  0.90369  Biso   1.000  C
  H603     1.0000 0.89559  0.14031  0.92309  Biso   1.000  H
  H604     1.0000 0.95118  0.13720  0.91179  Biso   1.000  H
  H605     1.0000 0.90120  0.42979  0.99810  Biso   1.000  H
  H606     1.0000 0.92838  0.46008  0.02770  Biso   1.000  H
  C577     1.0000 0.85390  0.47669  0.02469  Biso   1.000  C
  O41      1.0000 0.17017  0.05530  0.15595  Biso   1.000  O
  H607     1.0000 0.01498  0.04169  0.17910  Biso   1.000  H
  C578     1.0000 0.02490  0.05099  0.12781  Biso   1.000  C
  H608     1.0000 0.88430  0.51571  0.07030  Biso   1.000  H
  H609     1.0000 0.82651  0.52128  0.06861  Biso   1.000  H
  C579     1.0000 0.69590  0.08859  0.20855  Biso   1.000  C
  H610     1.0000 0.73867  0.04118  0.18049  Biso   1.000  H
  H611     1.0000 0.71699  0.08411  0.15749  Biso   1.000  H
  C580     1.0000 0.85379  0.08020  0.16178  Biso   1.000  C
  H612     1.0000 0.66170  0.14718  0.22769  Biso   1.000  H
  H613     1.0000 0.66850  0.14889  0.18681  Biso   1.000  H
  H614     1.0000 0.05059  0.05979  0.07999  Biso   1.000  H
  H615     1.0000 0.92758  0.01078  0.95598  Biso   1.000  H
  H616     1.0000 0.87297  0.00879  0.96981  Biso   1.000  H
  C581     1.0000 0.87898  0.04089  0.92278  Biso   1.000  C
  C582     1.0000 0.89628  0.07368  0.03831  Biso   1.000  C
  H617     1.0000 0.94499  0.05678  0.89961  Biso   1.000  H
  H618     1.0000 0.90037  0.08298  0.88111  Biso   1.000  H
  H619     1.0000 0.82357  0.45871  0.01999  Biso   1.000  H
  H620     1.0000 0.85669  0.50351  0.00799  Biso   1.000  H
  H621     1.0000 0.18721  0.06091  0.13850  Biso   1.000  H
  C583     1.0000 0.97188  0.05421  0.11843  Biso   1.000  C
  H622     1.0000 0.66579  0.06970  0.20521  Biso   1.000  H
  H623     1.0000 0.70990  0.07940  0.23100  Biso   1.000  H
  C584     1.0000 0.88930  0.06869  0.13411  Biso   1.000  C
  H624     1.0000 0.86360  0.07799  0.18509  Biso   1.000  H
  H625     1.0000 0.84710  0.05689  0.92458  Biso   1.000  H
  H626     1.0000 0.87478  0.01060  0.90960  Biso   1.000  H
  H627     1.0000 0.86458  0.08530  0.03379  Biso   1.000  H
  C585     1.0000 0.91108  0.06500  0.07449  Biso   1.000  C
  C586     1.0000 0.93660  0.06040  0.14282  Biso   1.000  C
  C587     1.0000 0.95759  0.05751  0.08374  Biso   1.000  C
  C588     1.0000 0.87590  0.07198  0.10016  Biso   1.000  C
  H628     1.0000 0.94517  0.05892  0.16641  Biso   1.000  H
  H629     1.0000 0.98140  0.05428  0.06629  Biso   1.000  H
  O42      1.0000 0.82940  0.08259  0.09078  Biso   1.000  O
  H630     1.0000 0.81778  0.10871  0.10479  Biso   1.000  H
  C589     1.0000 0.43120  0.21218  0.74918  Biso   1.000  C
  C590     1.0000 0.40518  0.16532  0.74697  Biso   1.000  C
  C591     1.0000 0.45259  0.21949  0.78570  Biso   1.000  C
  H631     1.0000 0.40858  0.23900  0.74389  Biso   1.000  H
  H632     1.0000 0.45769  0.21291  0.73199  Biso   1.000  H
  C592     1.0000 0.36378  0.15989  0.77506  Biso   1.000  C
  H633     1.0000 0.42878  0.13861  0.74990  Biso   1.000  H
  H634     1.0000 0.39071  0.16220  0.72380  Biso   1.000  H
  C593     1.0000 0.41311  0.21739  0.81286  Biso   1.000  C
  H635     1.0000 0.47691  0.19409  0.79030  Biso   1.000  H
  H636     1.0000 0.46909  0.25130  0.78680  Biso   1.000  H
  N85      1.0000 0.34091  0.11389  0.77362  Biso   1.000  N
  H637     1.0000 0.33881  0.18551  0.77090  Biso   1.000  H
  C594     1.0000 0.38499  0.16749  0.80900  Biso   1.000  C
  H638     1.0000 0.39038  0.24479  0.80980  Biso   1.000  H
  H639     1.0000 0.42758  0.21978  0.83609  Biso   1.000  H
  C595     1.0000 0.29770  0.11128  0.76427  Biso   1.000  C
  H640     1.0000 0.40779  0.14038  0.81409  Biso   1.000  H
  N86      1.0000 0.34735  0.16839  0.83526  Biso   1.000  N
  C596     1.0000 0.26878  0.06630  0.76473  Biso   1.000  C
  H641     1.0000 0.28250  0.14009  0.75640  Biso   1.000  H
  C597     1.0000 0.34199  0.13061  0.85587  Biso   1.000  C
  C598     1.0000 0.22441  0.06731  0.74828  Biso   1.000  C
  C599     1.0000 0.28449  0.02620  0.78151  Biso   1.000  C
  C600     1.0000 0.30349  0.12858  0.88046  Biso   1.000  C
  H642     1.0000 0.36411  0.10430  0.85431  Biso   1.000  H
  C601     1.0000 0.19550  0.02490  0.75034  Biso   1.000  C
  O43      1.0000 0.20921  0.10600  0.73151  Biso   1.000  O
  C602     1.0000 0.25568  0.98357  0.78452  Biso   1.000  C
  H643     1.0000 0.31579  0.02649  0.79161  Biso   1.000  H
  C603     1.0000 0.27099  0.16749  0.88368  Biso   1.000  C
  C604     1.0000 0.29878  0.08932  0.90105  Biso   1.000  C
  C605     1.0000 0.14740  0.02530  0.73585  Biso   1.000  C
  C606     1.0000 0.21301  0.98509  0.76786  Biso   1.000  C
  H644     1.0000 0.17751  0.09909  0.72269  Biso   1.000  H
  C607     1.0000 0.27070  0.94260  0.80538  Biso   1.000  C
  C608     1.0000 0.23390  0.16459  0.90855  Biso   1.000  C
  O44      1.0000 0.27378  0.20657  0.86389  Biso   1.000  O
  C609     1.0000 0.26270  0.08411  0.92630  Biso   1.000  C
  H645     1.0000 0.32140  0.06369  0.89819  Biso   1.000  H
  N87      1.0000 0.12790  0.06181  0.72241  Biso   1.000  N
  H646     1.0000 0.12942  0.99598  0.73649  Biso   1.000  H
  H647     1.0000 0.19351  0.95668  0.76820  Biso   1.000  H
  C610     1.0000 0.30870  0.94528  0.82691  Biso   1.000  C
  C611     1.0000 0.24251  0.89928  0.80623  Biso   1.000  C
  C612     1.0000 0.19800  0.20219  0.91104  Biso   1.000  C
  C613     1.0000 0.23158  0.12391  0.92957  Biso   1.000  C
  H648     1.0000 0.29390  0.20169  0.84809  Biso   1.000  H
  C614     1.0000 0.25698  0.04071  0.94786  Biso   1.000  C
  C615     1.0000 0.07900  0.05950  0.70954  Biso   1.000  C
  C616     1.0000 0.32289  0.90808  0.84989  Biso   1.000  C
  H649     1.0000 0.32730  0.97420  0.82671  Biso   1.000  H
  C617     1.0000 0.25290  0.86038  0.82876  Biso   1.000  C
  H650     1.0000 0.21558  0.89657  0.79109  Biso   1.000  H
  N88      1.0000 0.16637  0.20570  0.93466  Biso   1.000  N
  H651     1.0000 0.19789  0.22630  0.89370  Biso   1.000  H
  H652     1.0000 0.20759  0.12301  0.94699  Biso   1.000  H
  C618     1.0000 0.21598  0.03170  0.96606  Biso   1.000  C
  C619     1.0000 0.29538  0.00481  0.94907  Biso   1.000  C
  C620     1.0000 0.07958  0.07900  0.67189  Biso   1.000  C
  C621     1.0000 0.04491  0.09189  0.73205  Biso   1.000  C
  H653     1.0000 0.06731  0.02530  0.70979  Biso   1.000  H
  C622     1.0000 0.29321  0.86508  0.85017  Biso   1.000  C
  C623     1.0000 0.36309  0.91267  0.87186  Biso   1.000  C
  C624     1.0000 0.22250  0.81938  0.83085  Biso   1.000  C
  C625     1.0000 0.13090  0.24540  0.93139  Biso   1.000  C
  C626     1.0000 0.20849  0.98929  0.98546  Biso   1.000  C
  H654     1.0000 0.19101  0.05530  0.96570  Biso   1.000  H
  C627     1.0000 0.28771  0.96160  0.96847  Biso   1.000  C
  H655     1.0000 0.32499  0.00992  0.93720  Biso   1.000  H
  H656     1.0000 0.09909  0.05751  0.65699  Biso   1.000  H
  H657     1.0000 0.09380  0.11190  0.67120  Biso   1.000  H
  C628     1.0000 0.02559  0.08041  0.65899  Biso   1.000  C
  H658     1.0000 0.05649  0.12619  0.73210  Biso   1.000  H
  N89      1.0000 0.04491  0.07195  0.76779  Biso   1.000  N
  C629     1.0000 0.99399  0.08910  0.71830  Biso   1.000  C
  O45      1.0000 0.30465  0.82839  0.87157  Biso   1.000  O
  H659     1.0000 0.38108  0.94199  0.87150  Biso   1.000  H
  N90      1.0000 0.37670  0.87840  0.89277  Biso   1.000  N
  H660     1.0000 0.22959  0.79589  0.84791  Biso   1.000  H
  N91      1.0000 0.18594  0.81174  0.81119  Biso   1.000  N
  C630     1.0000 0.08020  0.22521  0.93494  Biso   1.000  C
  H661     1.0000 0.13441  0.26039  0.90809  Biso   1.000  H
  C631     1.0000 0.13998  0.28431  0.95873  Biso   1.000  C
  C632     1.0000 0.16651  0.98187  0.00447  Biso   1.000  C
  C633     1.0000 0.24558  0.95469  0.98612  Biso   1.000  C
  C634     1.0000 0.32719  0.92570  0.96680  Biso   1.000  C
  H662     1.0000 0.02490  0.09399  0.63551  Biso   1.000  H
  H663     1.0000 0.01310  0.04679  0.65778  Biso   1.000  H
  C635     1.0000 0.99327  0.10919  0.68112  Biso   1.000  C
  C636     1.0000 0.04701  0.10209  0.79135  Biso   1.000  C
  H664     1.0000 0.97199  0.10839  0.73310  Biso   1.000  H
  H665     1.0000 0.98270  0.05512  0.71850  Biso   1.000  H
  H666     1.0000 0.33950  0.82918  0.87610  Biso   1.000  H
  C637     1.0000 0.41850  0.88550  0.91508  Biso   1.000  C
  C638     1.0000 0.15811  0.76788  0.81674  Biso   1.000  C
  N92      1.0000 0.07039  0.19072  0.90750  Biso   1.000  N
  H667     1.0000 0.07701  0.20860  0.95770  Biso   1.000  H
  C639     1.0000 0.04220  0.26560  0.93239  Biso   1.000  C
  C640     1.0000 0.10401  0.32350  0.95645  Biso   1.000  C
  H668     1.0000 0.13839  0.26929  0.98181  Biso   1.000  H
  H669     1.0000 0.17281  0.29788  0.95560  Biso   1.000  H
  N93      1.0000 0.15620  0.94553  0.02218  Biso   1.000  N
  H670     1.0000 0.14309  0.00709  0.00391  Biso   1.000  H
  O46      1.0000 0.24142  0.91405  0.00509  Biso   1.000  O
  N94      1.0000 0.36758  0.93178  0.95475  Biso   1.000  N
  H671     1.0000 0.32050  0.89458  0.97610  Biso   1.000  H
  H672     1.0000 0.00409  0.14338  0.68119  Biso   1.000  H
  H673     1.0000 0.95990  0.10810  0.67199  Biso   1.000  H
  C641     1.0000 0.04741  0.08780  0.82774  Biso   1.000  C
  H674     1.0000 0.04849  0.13550  0.78570  Biso   1.000  H
  H675     1.0000 0.43359  0.91709  0.90870  Biso   1.000  H
  C642     1.0000 0.40048  0.88980  0.95249  Biso   1.000  C
  C643     1.0000 0.45480  0.84800  0.91060  Biso   1.000  C
  C644     1.0000 0.10430  0.77837  0.81589  Biso   1.000  C
  H676     1.0000 0.16698  0.75329  0.83940  Biso   1.000  H
  C645     1.0000 0.17078  0.73151  0.78667  Biso   1.000  C
  C646     1.0000 0.06681  0.14509  0.91430  Biso   1.000  C
  H677     1.0000 0.00952  0.25181  0.93568  Biso   1.000  H
  H678     1.0000 0.04350  0.28040  0.90929  Biso   1.000  H
  C647     1.0000 0.05190  0.30461  0.95989  Biso   1.000  C
  H679     1.0000 0.10759  0.34011  0.93409  Biso   1.000  H
  H680     1.0000 0.11031  0.34739  0.97479  Biso   1.000  H
  C648     1.0000 0.10890  0.93909  0.03967  Biso   1.000  C
  H681     1.0000 0.22061  0.92038  0.02431  Biso   1.000  H
  C649     1.0000 0.05342  0.12319  0.85325  Biso   1.000  C
  C650     1.0000 0.04611  0.03919  0.83794  Biso   1.000  C
  H682     1.0000 0.38260  0.85969  0.95899  Biso   1.000  H
  C651     1.0000 0.44249  0.89827  0.97816  Biso   1.000  C
  C652     1.0000 0.49848  0.85368  0.93460  Biso   1.000  C
  H683     1.0000 0.46631  0.84869  0.88650  Biso   1.000  H
  H684     1.0000 0.43971  0.81608  0.91469  Biso   1.000  H
  N95      1.0000 0.09286  0.81087  0.84518  Biso   1.000  N
  H685     1.0000 0.09551  0.79441  0.79369  Biso   1.000  H
  C653     1.0000 0.07640  0.73169  0.81992  Biso   1.000  C
  H686     1.0000 0.16351  0.74660  0.76419  Biso   1.000  H
  H687     1.0000 0.20570  0.72347  0.78729  Biso   1.000  H
  C654     1.0000 0.14009  0.68450  0.79130  Biso   1.000  C
  C655     1.0000 0.05780  0.10969  0.88745  Biso   1.000  C
  H688     1.0000 0.07010  0.13441  0.93741  Biso   1.000  H
  H689     1.0000 0.02892  0.33168  0.95699  Biso   1.000  H
  H690     1.0000 0.04708  0.29071  0.98309  Biso   1.000  H
  C656     1.0000 0.07792  0.90569  0.02146  Biso   1.000  C
  H691     1.0000 0.09228  0.97119  0.04011  Biso   1.000  H
  C657     1.0000 0.11939  0.92469  0.07673  Biso   1.000  C
  O47      1.0000 0.05530  0.17017  0.84405  Biso   1.000  O
  H692     1.0000 0.04169  0.01498  0.82090  Biso   1.000  H
  C658     1.0000 0.05099  0.02490  0.87216  Biso   1.000  C
  H693     1.0000 0.46008  0.92838  0.97230  Biso   1.000  H
  C659     1.0000 0.47669  0.85390  0.97531  Biso   1.000  C
  H694     1.0000 0.42979  0.90120  0.00190  Biso   1.000  H
  H695     1.0000 0.51571  0.88430  0.92970  Biso   1.000  H
  H696     1.0000 0.52128  0.82651  0.93139  Biso   1.000  H
  C660     1.0000 0.08020  0.85379  0.83822  Biso   1.000  C
  C661     1.0000 0.08859  0.69590  0.79143  Biso   1.000  C
  H697     1.0000 0.04118  0.73867  0.81949  Biso   1.000  H
  H698     1.0000 0.08411  0.71699  0.84249  Biso   1.000  H
  H699     1.0000 0.14718  0.66170  0.77228  Biso   1.000  H
  H700     1.0000 0.14889  0.66850  0.81319  Biso   1.000  H
  C662     1.0000 0.05660  0.05971  0.89655  Biso   1.000  C
  N96      1.0000 0.06594  0.92480  0.98700  Biso   1.000  N
  H701     1.0000 0.09522  0.87410  0.01881  Biso   1.000  H
  C663     1.0000 0.02921  0.89700  0.04240  Biso   1.000  C
  C664     1.0000 0.07430  0.91430  0.09631  Biso   1.000  C
  H702     1.0000 0.14031  0.89559  0.07691  Biso   1.000  H
  H703     1.0000 0.13720  0.95118  0.08819  Biso   1.000  H
  H704     1.0000 0.06091  0.18721  0.86150  Biso   1.000  H
  C665     1.0000 0.05421  0.97188  0.88157  Biso   1.000  C
  H705     1.0000 0.45871  0.82357  0.97998  Biso   1.000  H
  H706     1.0000 0.50351  0.85669  0.99198  Biso   1.000  H
  C666     1.0000 0.06869  0.88930  0.86589  Biso   1.000  C
  H707     1.0000 0.07799  0.86360  0.81489  Biso   1.000  H
  H708     1.0000 0.06970  0.66579  0.79479  Biso   1.000  H
  H709     1.0000 0.07940  0.70990  0.76900  Biso   1.000  H
  H710     1.0000 0.05979  0.05059  0.91998  Biso   1.000  H
  C667     1.0000 0.07368  0.89628  0.96169  Biso   1.000  C
  H711     1.0000 0.01078  0.92758  0.04399  Biso   1.000  H
  H712     1.0000 0.00879  0.87297  0.03019  Biso   1.000  H
  C668     1.0000 0.04089  0.87898  0.07719  Biso   1.000  C
  H713     1.0000 0.05678  0.94499  0.10039  Biso   1.000  H
  H714     1.0000 0.08298  0.90037  0.11889  Biso   1.000  H
  C669     1.0000 0.06040  0.93660  0.85716  Biso   1.000  C
  C670     1.0000 0.05751  0.95759  0.91626  Biso   1.000  C
  C671     1.0000 0.07198  0.87590  0.89984  Biso   1.000  C
  C672     1.0000 0.06500  0.91108  0.92548  Biso   1.000  C
  H715     1.0000 0.08530  0.86458  0.96618  Biso   1.000  H
  H716     1.0000 0.05689  0.84710  0.07539  Biso   1.000  H
  H717     1.0000 0.01060  0.87478  0.09040  Biso   1.000  H
  H718     1.0000 0.05892  0.94517  0.83359  Biso   1.000  H
  H719     1.0000 0.05428  0.98140  0.93371  Biso   1.000  H
  O48      1.0000 0.08259  0.82940  0.90922  Biso   1.000  O
  H720     1.0000 0.10871  0.81778  0.89519  Biso   1.000  H
