data_image0
_cell_length_a       14.425
_cell_length_b       25.248
_cell_length_c       17.812
_cell_angle_alpha    90
_cell_angle_beta     100.84
_cell_angle_gamma    90

_symmetry_space_group_name_H-M    "P 1"
_symmetry_int_tables_number       1

loop_
  _symmetry_equiv_pos_as_xyz
  'x, y, z'

loop_
  _atom_site_label
  _atom_site_occupancy
  _atom_site_fract_x
  _atom_site_fract_y
  _atom_site_fract_z
  _atom_site_thermal_displace_type
  _atom_site_B_iso_or_equiv
  _atom_site_type_symbol
  C1       1.0000 0.55734  0.56999  0.46170  Biso   1.000  C
  C2       1.0000 0.62043  0.52361  0.44472  Biso   1.000  C
  C3       1.0000 0.57320  0.57640  0.40579  Biso   1.000  C
  C4       1.0000 0.52093  0.59569  0.38910  Biso   1.000  C
  H1       1.0000 0.59465  0.59537  0.49759  Biso   1.000  H
  H2       1.0000 0.50473  0.55660  0.48502  Biso   1.000  H
  C5       1.0000 0.48855  0.58619  0.44312  Biso   1.000  C
  H3       1.0000 0.50761  0.58979  0.49919  Biso   1.000  H
  H4       1.0000 0.64655  0.50519  0.49239  Biso   1.000  H
  H5       1.0000 0.67209  0.53751  0.42180  Biso   1.000  H
  H6       1.0000 0.58266  0.49877  0.40922  Biso   1.000  H
  H7       1.0000 0.67621  0.51477  0.42311  Biso   1.000  H
  H8       1.0000 0.57492  0.49449  0.43500  Biso   1.000  H
  H9       1.0000 0.63930  0.52907  0.50000  Biso   1.000  H
  H10      1.0000 0.57321  0.61189  0.36824  Biso   1.000  H
  H11      1.0000 0.55335  0.57149  0.34989  Biso   1.000  H
  H12      1.0000 0.61805  0.60638  0.41534  Biso   1.000  H
  C6       1.0000 0.44802  0.64029  0.40499  Biso   1.000  C
  H13      1.0000 0.48875  0.56947  0.35172  Biso   1.000  H
  H14      1.0000 0.44163  0.55727  0.43152  Biso   1.000  H
  C7       1.0000 0.50135  0.68865  0.44089  Biso   1.000  C
  H15      1.0000 0.40783  0.62619  0.43969  Biso   1.000  H
  H16      1.0000 0.40655  0.65047  0.35629  Biso   1.000  H
  H17      1.0000 0.38085  0.64358  0.40951  Biso   1.000  H
  H18      1.0000 0.45075  0.63938  0.34989  Biso   1.000  H
  C8       1.0000 0.43656  0.73574  0.44340  Biso   1.000  C
  H19      1.0000 0.55040  0.69827  0.41122  Biso   1.000  H
  H20      1.0000 0.53341  0.67990  0.49359  Biso   1.000  H
  C9       1.0000 0.48943  0.78854  0.46004  Biso   1.000  C
  H21      1.0000 0.39245  0.73847  0.39379  Biso   1.000  H
  H22      1.0000 0.39843  0.72948  0.48342  Biso   1.000  H
  C10      1.0000 0.42630  0.83607  0.44849  Biso   1.000  C
  H23      1.0000 0.53184  0.79159  0.42174  Biso   1.000  H
  C11      1.0000 0.55345  0.79214  0.53869  Biso   1.000  C
  C12      1.0000 0.45706  0.88348  0.42243  Biso   1.000  C
  C13      1.0000 0.33484  0.83563  0.46421  Biso   1.000  C
  C14      1.0000 0.63707  0.82117  0.54773  Biso   1.000  C
  C15      1.0000 0.52916  0.77056  0.60454  Biso   1.000  C
  C16      1.0000 0.40261  0.92910  0.41454  Biso   1.000  C
  O1       1.0000 0.54480  0.88565  0.39933  Biso   1.000  O
  C17      1.0000 0.27564  0.87952  0.45409  Biso   1.000  C
  H24      1.0000 0.31201  0.80379  0.48262  Biso   1.000  H
  C18      1.0000 0.69432  0.82898  0.61901  Biso   1.000  C
  O2       1.0000 0.66695  0.84217  0.48382  Biso   1.000  O
  C19      1.0000 0.58402  0.77749  0.67691  Biso   1.000  C
  H25      1.0000 0.47272  0.75040  0.59974  Biso   1.000  H
  C20      1.0000 0.30951  0.92657  0.42889  Biso   1.000  C
  C21      1.0000 0.44085  0.97841  0.39322  Biso   1.000  C
  C22      1.0000 0.62673  0.89104  0.45690  Biso   1.000  C
  C23      1.0000 0.17663  0.87825  0.47341  Biso   1.000  C
  C24      1.0000 0.66626  0.80731  0.68354  Biso   1.000  C
  C25      1.0000 0.77963  0.85939  0.62724  Biso   1.000  C
  C26      1.0000 0.55408  0.75685  0.74945  Biso   1.000  C
  O3       1.0000 0.25426  0.97097  0.41517  Biso   1.000  O
  C27      1.0000 0.47691  0.01850  0.38013  Biso   1.000  C
  H26      1.0000 0.61026  0.91096  0.50034  Biso   1.000  H
  H27      1.0000 0.67426  0.91199  0.43620  Biso   1.000  H
  C28      1.0000 0.18567  0.89762  0.55533  Biso   1.000  C
  H28      1.0000 0.13670  0.90427  0.43940  Biso   1.000  H
  C29      1.0000 0.12861  0.82359  0.46010  Biso   1.000  C
  O4       1.0000 0.72356  0.81563  0.75385  Biso   1.000  O
  C30      1.0000 0.85044  0.88443  0.63541  Biso   1.000  C
  H29      1.0000 0.61308  0.75250  0.78861  Biso   1.000  H
  C31      1.0000 0.50498  0.70247  0.74013  Biso   1.000  C
  C32      1.0000 0.49677  0.80034  0.77820  Biso   1.000  C
  C33      1.0000 0.24406  0.00210  0.47902  Biso   1.000  C
  Br1      1.0000 0.53238  0.07961  0.36018  Biso   1.000  Br
  C34      1.0000 0.18175  0.95148  0.56979  Biso   1.000  C
  C35      1.0000 0.20161  0.86351  0.61832  Biso   1.000  C
  H30      1.0000 0.16552  0.79769  0.49542  Biso   1.000  H
  H31      1.0000 0.13023  0.81199  0.40734  Biso   1.000  H
  C36      1.0000 0.02652  0.82260  0.47181  Biso   1.000  C
  C37      1.0000 0.69633  0.85753  0.79752  Biso   1.000  C
  Br2      1.0000 0.95842  0.92229  0.64547  Biso   1.000  Br
  H32      1.0000 0.45088  0.70417  0.69675  Biso   1.000  H
  H33      1.0000 0.47978  0.69447  0.78683  Biso   1.000  H
  C38      1.0000 0.56982  0.65768  0.72590  Biso   1.000  C
  C39      1.0000 0.54209  0.84102  0.82382  Biso   1.000  C
  C40      1.0000 0.39888  0.80232  0.75940  Biso   1.000  C
  H34      1.0000 0.30151  0.99849  0.51892  Biso   1.000  H
  O5       1.0000 0.16459  0.98768  0.51023  Biso   1.000  O
  H35      1.0000 0.23825  0.03977  0.46353  Biso   1.000  H
  C41      1.0000 0.19444  0.97152  0.64444  Biso   1.000  C
  C42      1.0000 0.21354  0.88157  0.69355  Biso   1.000  C
  H36      1.0000 0.20463  0.82648  0.60952  Biso   1.000  H
  H37      1.0000 0.02225  0.84078  0.52029  Biso   1.000  H
  H38      1.0000 0.98636  0.84209  0.42963  Biso   1.000  H
  C43      1.0000 0.99024  0.76624  0.47410  Biso   1.000  C
  H39      1.0000 0.75367  0.87488  0.82650  Biso   1.000  H
  H40      1.0000 0.66118  0.88419  0.76260  Biso   1.000  H
  O6       1.0000 0.63906  0.84030  0.84971  Biso   1.000  O
  H41      1.0000 0.59188  0.66429  0.67731  Biso   1.000  H
  H42      1.0000 0.62596  0.65720  0.76763  Biso   1.000  H
  C44      1.0000 0.52157  0.60349  0.72173  Biso   1.000  C
  C45      1.0000 0.49158  0.88264  0.84840  Biso   1.000  C
  C46      1.0000 0.34473  0.84197  0.78472  Biso   1.000  C
  H43      1.0000 0.36703  0.77519  0.72761  Biso   1.000  H
  C47      1.0000 0.20944  0.93564  0.70544  Biso   1.000  C
  C48      1.0000 0.19868  0.02784  0.65913  Biso   1.000  C
  C49      1.0000 0.23757  0.84438  0.76243  Biso   1.000  C
  H44      1.0000 0.03096  0.74727  0.51663  Biso   1.000  H
  H45      1.0000 0.99682  0.74830  0.42603  Biso   1.000  H
  C50      1.0000 0.88853  0.76109  0.48422  Biso   1.000  C
  H46      1.0000 0.47688  0.60357  0.75762  Biso   1.000  H
  H47      1.0000 0.48395  0.59898  0.66959  Biso   1.000  H
  C51      1.0000 0.58778  0.55458  0.74025  Biso   1.000  C
  H48      1.0000 0.51324  0.59308  0.77363  Biso   1.000  H
  H49      1.0000 0.45807  0.60638  0.68920  Biso   1.000  H
  C52      1.0000 0.57905  0.55890  0.68834  Biso   1.000  C
  C53      1.0000 0.39345  0.88169  0.83033  Biso   1.000  C
  C54      1.0000 0.53877  0.92728  0.88892  Biso   1.000  C
  O7       1.0000 0.21781  0.95671  0.77792  Biso   1.000  O
  C55      1.0000 0.20785  0.07296  0.67474  Biso   1.000  C
  H50      1.0000 0.21420  0.86177  0.80564  Biso   1.000  H
  C56      1.0000 0.19084  0.78988  0.75134  Biso   1.000  C
  H51      1.0000 0.88013  0.78129  0.53012  Biso   1.000  H
  H52      1.0000 0.84686  0.77697  0.43940  Biso   1.000  H
  C57      1.0000 0.85876  0.70370  0.49274  Biso   1.000  C
  H53      1.0000 0.54918  0.52238  0.74242  Biso   1.000  H
  H54      1.0000 0.62868  0.55937  0.79101  Biso   1.000  H
  C58      1.0000 0.64744  0.54737  0.68160  Biso   1.000  C
  C59      1.0000 0.66269  0.54559  0.73922  Biso   1.000  C
  H55      1.0000 0.64764  0.53569  0.78935  Biso   1.000  H
  H56      1.0000 0.60745  0.54099  0.63090  Biso   1.000  H
  H57      1.0000 0.59482  0.57129  0.63953  Biso   1.000  H
  H58      1.0000 0.53915  0.52689  0.67743  Biso   1.000  H
  O8       1.0000 0.34472  0.92007  0.86320  Biso   1.000  O
  C60      1.0000 0.57178  0.96697  0.91762  Biso   1.000  C
  C61      1.0000 0.31073  0.96447  0.81833  Biso   1.000  C
  Br3      1.0000 0.22713  0.14187  0.69983  Biso   1.000  Br
  H59      1.0000 0.21155  0.76877  0.79844  Biso   1.000  H
  H60      1.0000 0.21339  0.77147  0.70904  Biso   1.000  H
  C62      1.0000 0.08339  0.79123  0.73373  Biso   1.000  C
  H61      1.0000 0.90005  0.68809  0.53801  Biso   1.000  H
  H62      1.0000 0.86879  0.68350  0.44729  Biso   1.000  H
  C63      1.0000 0.75804  0.69720  0.50114  Biso   1.000  C
  H63      1.0000 0.68585  0.57949  0.67834  Biso   1.000  H
  C64      1.0000 0.71436  0.49770  0.70681  Biso   1.000  C
  H64      1.0000 0.70515  0.57668  0.74682  Biso   1.000  H
  Br4      1.0000 0.61694  0.02666  0.96644  Biso   1.000  Br
  H65      1.0000 0.31216  0.99588  0.85194  Biso   1.000  H
  H66      1.0000 0.35279  0.97168  0.78152  Biso   1.000  H
  H67      1.0000 0.06076  0.81507  0.77060  Biso   1.000  H
  H68      1.0000 0.06193  0.80596  0.68194  Biso   1.000  H
  C65      1.0000 0.03988  0.73653  0.73802  Biso   1.000  C
  H69      1.0000 0.74952  0.71218  0.55013  Biso   1.000  H
  H70      1.0000 0.71685  0.71570  0.45930  Biso   1.000  H
  H71      1.0000 0.74193  0.65950  0.49954  Biso   1.000  H
  H72      1.0000 0.75485  0.49180  0.66919  Biso   1.000  H
  H73      1.0000 0.67555  0.46610  0.70984  Biso   1.000  H
  H74      1.0000 0.75368  0.50459  0.75700  Biso   1.000  H
  H75      1.0000 0.77235  0.48899  0.74305  Biso   1.000  H
  H76      1.0000 0.73003  0.50760  0.65753  Biso   1.000  H
  H77      1.0000 0.67258  0.46669  0.70000  Biso   1.000  H
  H78      1.0000 0.06046  0.72228  0.79021  Biso   1.000  H
  H79      1.0000 0.06436  0.71257  0.70223  Biso   1.000  H
  C66      1.0000 0.93326  0.73610  0.71893  Biso   1.000  C
  H80      1.0000 0.91136  0.76687  0.74522  Biso   1.000  H
  H81      1.0000 0.91503  0.74299  0.66342  Biso   1.000  H
  C67      1.0000 0.87533  0.68778  0.73665  Biso   1.000  C
  H82      1.0000 0.90585  0.75729  0.75614  Biso   1.000  H
  H83      1.0000 0.90965  0.74988  0.66679  Biso   1.000  H
  C68      1.0000 0.91048  0.67617  0.72470  Biso   1.000  C
  H84      1.0000 0.80817  0.69328  0.71344  Biso   1.000  H
  H85      1.0000 0.87994  0.68477  0.79261  Biso   1.000  H
  C69      1.0000 0.90924  0.63700  0.70652  Biso   1.000  C
  C70      1.0000 0.80645  0.67019  0.72693  Biso   1.000  C
  H86      1.0000 0.94906  0.66108  0.77174  Biso   1.000  H
  H87      1.0000 0.92577  0.65708  0.68011  Biso   1.000  H
  H88      1.0000 0.97498  0.63058  0.73110  Biso   1.000  H
  H89      1.0000 0.86976  0.60757  0.71772  Biso   1.000  H
  H90      1.0000 0.90518  0.63989  0.65113  Biso   1.000  H
  H91      1.0000 0.79236  0.68809  0.77220  Biso   1.000  H
  H92      1.0000 0.76877  0.68599  0.68080  Biso   1.000  H
  H93      1.0000 0.79093  0.63249  0.72904  Biso   1.000  H
  C71      1.0000 0.44272  0.42997  0.53829  Biso   1.000  C
  C72      1.0000 0.47913  0.40431  0.61089  Biso   1.000  C
  C73      1.0000 0.51152  0.41378  0.55693  Biso   1.000  C
  H94      1.0000 0.49534  0.44340  0.51503  Biso   1.000  H
  H95      1.0000 0.49245  0.41021  0.50080  Biso   1.000  H
  C74      1.0000 0.42686  0.42360  0.59420  Biso   1.000  C
  H96      1.0000 0.40540  0.40459  0.50240  Biso   1.000  H
  C75      1.0000 0.37964  0.47639  0.55533  Biso   1.000  C
  C76      1.0000 0.55204  0.35971  0.59500  Biso   1.000  C
  H97      1.0000 0.42686  0.38811  0.63181  Biso   1.000  H
  H98      1.0000 0.51132  0.43049  0.64833  Biso   1.000  H
  H99      1.0000 0.44678  0.42851  0.65010  Biso   1.000  H
  H100     1.0000 0.55844  0.44269  0.56853  Biso   1.000  H
  H101     1.0000 0.38202  0.39358  0.58471  Biso   1.000  H
  H102     1.0000 0.35351  0.49477  0.50760  Biso   1.000  H
  H103     1.0000 0.32796  0.46249  0.57819  Biso   1.000  H
  H104     1.0000 0.41741  0.50119  0.59083  Biso   1.000  H
  H105     1.0000 0.32386  0.48519  0.57694  Biso   1.000  H
  H106     1.0000 0.42514  0.50551  0.56499  Biso   1.000  H
  H107     1.0000 0.36076  0.47089  0.50000  Biso   1.000  H
  C77      1.0000 0.49871  0.31135  0.55910  Biso   1.000  C
  H108     1.0000 0.59223  0.37381  0.56030  Biso   1.000  H
  H109     1.0000 0.59357  0.34949  0.64370  Biso   1.000  H
  H110     1.0000 0.61922  0.35638  0.59054  Biso   1.000  H
  H111     1.0000 0.54938  0.36058  0.65010  Biso   1.000  H
  C78      1.0000 0.56351  0.26422  0.55664  Biso   1.000  C
  H112     1.0000 0.44967  0.30169  0.58882  Biso   1.000  H
  H113     1.0000 0.46665  0.32010  0.50640  Biso   1.000  H
  C79      1.0000 0.51064  0.21142  0.54001  Biso   1.000  C
  H114     1.0000 0.60767  0.26149  0.60620  Biso   1.000  H
  H115     1.0000 0.60164  0.27048  0.51663  Biso   1.000  H
  C80      1.0000 0.44660  0.20786  0.46130  Biso   1.000  C
  C81      1.0000 0.57376  0.16389  0.55150  Biso   1.000  C
  H116     1.0000 0.46823  0.20841  0.57831  Biso   1.000  H
  C82      1.0000 0.36306  0.17879  0.45232  Biso   1.000  C
  C83      1.0000 0.47091  0.22940  0.39550  Biso   1.000  C
  C84      1.0000 0.54301  0.11652  0.57762  Biso   1.000  C
  C85      1.0000 0.66523  0.16433  0.53584  Biso   1.000  C
  C86      1.0000 0.30574  0.17098  0.38098  Biso   1.000  C
  O9       1.0000 0.33312  0.15779  0.51623  Biso   1.000  O
  C87      1.0000 0.41605  0.22251  0.32314  Biso   1.000  C
  H117     1.0000 0.52735  0.24960  0.40030  Biso   1.000  H
  O10      1.0000 0.45526  0.11435  0.60066  Biso   1.000  O
  C88      1.0000 0.59746  0.07090  0.58551  Biso   1.000  C
  C89      1.0000 0.72441  0.12045  0.54590  Biso   1.000  C
  H118     1.0000 0.68806  0.19621  0.51743  Biso   1.000  H
  C90      1.0000 0.33381  0.19269  0.31651  Biso   1.000  C
  C91      1.0000 0.22044  0.14061  0.37281  Biso   1.000  C
  C92      1.0000 0.37333  0.10896  0.54310  Biso   1.000  C
  C93      1.0000 0.44599  0.24311  0.25060  Biso   1.000  C
  C94      1.0000 0.69055  0.07339  0.57110  Biso   1.000  C
  C95      1.0000 0.55922  0.02155  0.60683  Biso   1.000  C
  C96      1.0000 0.82344  0.12171  0.52663  Biso   1.000  C
  O11      1.0000 0.27651  0.18437  0.24620  Biso   1.000  O
  C97      1.0000 0.14963  0.11557  0.36464  Biso   1.000  C
  H119     1.0000 0.38981  0.08900  0.49971  Biso   1.000  H
  H120     1.0000 0.32587  0.08801  0.56379  Biso   1.000  H
  H121     1.0000 0.38697  0.24750  0.21138  Biso   1.000  H
  C98      1.0000 0.49509  0.29753  0.25992  Biso   1.000  C
  C99      1.0000 0.50329  0.19966  0.22179  Biso   1.000  C
  O12      1.0000 0.74581  0.02899  0.58488  Biso   1.000  O
  C100     1.0000 0.52316  0.98146  0.61992  Biso   1.000  C
  C101     1.0000 0.81440  0.10234  0.44472  Biso   1.000  C
  H122     1.0000 0.86337  0.09569  0.56064  Biso   1.000  H
  C102     1.0000 0.87144  0.17637  0.53989  Biso   1.000  C
  C103     1.0000 0.30374  0.14247  0.20252  Biso   1.000  C
  Br5      1.0000 0.04172  0.07767  0.35458  Biso   1.000  Br
  H123     1.0000 0.54919  0.29579  0.30330  Biso   1.000  H
  H124     1.0000 0.52029  0.30549  0.21321  Biso   1.000  H
  C104     1.0000 0.43024  0.34232  0.27409  Biso   1.000  C
  C105     1.0000 0.45805  0.15894  0.17623  Biso   1.000  C
  C106     1.0000 0.60124  0.19768  0.24059  Biso   1.000  C
  C107     1.0000 0.75601  0.99790  0.52103  Biso   1.000  C
  Br6      1.0000 0.46769  0.92039  0.63987  Biso   1.000  Br
  C108     1.0000 0.79846  0.13649  0.38173  Biso   1.000  C
  C109     1.0000 0.81831  0.04852  0.43020  Biso   1.000  C
  H125     1.0000 0.83455  0.20231  0.50463  Biso   1.000  H
  H126     1.0000 0.86984  0.18801  0.59271  Biso   1.000  H
  C110     1.0000 0.97355  0.17736  0.52823  Biso   1.000  C
  H127     1.0000 0.24639  0.12508  0.17349  Biso   1.000  H
  H128     1.0000 0.33894  0.11581  0.23739  Biso   1.000  H
  O13      1.0000 0.36101  0.15970  0.15034  Biso   1.000  O
  H129     1.0000 0.40826  0.33571  0.32274  Biso   1.000  H
  H130     1.0000 0.37411  0.34280  0.23242  Biso   1.000  H
  C111     1.0000 0.47850  0.39651  0.27832  Biso   1.000  C
  C112     1.0000 0.50848  0.11732  0.15159  Biso   1.000  C
  C113     1.0000 0.65534  0.15799  0.21533  Biso   1.000  C
  H131     1.0000 0.63304  0.22481  0.27243  Biso   1.000  H
  H132     1.0000 0.69856  0.00151  0.48113  Biso   1.000  H
  O14      1.0000 0.83547  0.01228  0.48976  Biso   1.000  O
  H133     1.0000 0.76182  0.96023  0.53652  Biso   1.000  H
  C114     1.0000 0.78653  0.11843  0.30650  Biso   1.000  C
  H134     1.0000 0.79544  0.17348  0.39053  Biso   1.000  H
  C115     1.0000 0.80563  0.02844  0.35560  Biso   1.000  C
  H135     1.0000 0.97781  0.15918  0.47970  Biso   1.000  H
  H136     1.0000 0.01371  0.15791  0.57042  Biso   1.000  H
  C116     1.0000 0.00982  0.23376  0.52589  Biso   1.000  C
  H137     1.0000 0.52319  0.39639  0.24242  Biso   1.000  H
  H138     1.0000 0.51610  0.40098  0.33040  Biso   1.000  H
  C117     1.0000 0.41229  0.44538  0.25980  Biso   1.000  C
  H139     1.0000 0.48683  0.40688  0.22642  Biso   1.000  H
  H140     1.0000 0.54198  0.39358  0.31079  Biso   1.000  H
  C118     1.0000 0.42102  0.44110  0.31170  Biso   1.000  C
  C119     1.0000 0.60662  0.11827  0.16971  Biso   1.000  C
  C120     1.0000 0.46130  0.07272  0.11112  Biso   1.000  C
  C121     1.0000 0.76250  0.15562  0.23762  Biso   1.000  C
  C122     1.0000 0.79063  0.06436  0.29461  Biso   1.000  C
  C123     1.0000 0.80146  0.97212  0.34091  Biso   1.000  C
  H141     1.0000 0.96911  0.25269  0.48342  Biso   1.000  H
  H142     1.0000 0.00325  0.25170  0.57402  Biso   1.000  H
  C124     1.0000 0.11154  0.23891  0.51583  Biso   1.000  C
  H143     1.0000 0.45095  0.47758  0.25763  Biso   1.000  H
  H144     1.0000 0.37144  0.44059  0.20898  Biso   1.000  H
  C125     1.0000 0.35262  0.45259  0.31839  Biso   1.000  C
  C126     1.0000 0.33745  0.45437  0.26083  Biso   1.000  C
  H145     1.0000 0.35243  0.46427  0.21070  Biso   1.000  H
  H146     1.0000 0.39261  0.45901  0.36909  Biso   1.000  H
  H147     1.0000 0.40525  0.42871  0.36052  Biso   1.000  H
  H148     1.0000 0.46092  0.47311  0.32262  Biso   1.000  H
  O15      1.0000 0.65534  0.07989  0.13679  Biso   1.000  O
  C127     1.0000 0.42829  0.03299  0.08243  Biso   1.000  C
  H149     1.0000 0.78594  0.13819  0.19441  Biso   1.000  H
  C128     1.0000 0.80923  0.21008  0.24871  Biso   1.000  C
  O16      1.0000 0.78232  0.04329  0.22207  Biso   1.000  O
  C129     1.0000 0.79222  0.92704  0.32531  Biso   1.000  C
  H150     1.0000 0.11994  0.21871  0.46993  Biso   1.000  H
  H151     1.0000 0.15328  0.22299  0.56064  Biso   1.000  H
  C130     1.0000 0.14131  0.29630  0.50731  Biso   1.000  C
  H152     1.0000 0.31422  0.42051  0.32171  Biso   1.000  H
  C131     1.0000 0.28569  0.50230  0.29318  Biso   1.000  C
  H153     1.0000 0.29492  0.42328  0.25323  Biso   1.000  H
  C132     1.0000 0.68934  0.03549  0.18172  Biso   1.000  C
  Br7      1.0000 0.38313  0.97330  0.03361  Biso   1.000  Br
  H154     1.0000 0.78852  0.23119  0.20161  Biso   1.000  H
  H155     1.0000 0.78675  0.22849  0.29101  Biso   1.000  H
  C133     1.0000 0.91675  0.20873  0.26632  Biso   1.000  C
  Br8      1.0000 0.77294  0.85813  0.30021  Biso   1.000  Br
  H156     1.0000 0.10002  0.31191  0.46204  Biso   1.000  H
  H157     1.0000 0.13126  0.31650  0.55270  Biso   1.000  H
  C134     1.0000 0.24203  0.30280  0.49891  Biso   1.000  C
  H158     1.0000 0.24521  0.50820  0.33080  Biso   1.000  H
  H159     1.0000 0.32452  0.53390  0.29021  Biso   1.000  H
  H160     1.0000 0.24645  0.49541  0.24300  Biso   1.000  H
  H161     1.0000 0.22772  0.51097  0.25700  Biso   1.000  H
  H162     1.0000 0.27004  0.49240  0.34251  Biso   1.000  H
  H163     1.0000 0.32755  0.53327  0.29999  Biso   1.000  H
  H164     1.0000 0.68791  0.00412  0.14811  Biso   1.000  H
  H165     1.0000 0.64735  0.02832  0.21853  Biso   1.000  H
  H166     1.0000 0.93930  0.18489  0.22939  Biso   1.000  H
  H167     1.0000 0.93814  0.19400  0.31811  Biso   1.000  H
  C135     1.0000 0.96019  0.26343  0.26203  Biso   1.000  C
  H168     1.0000 0.25055  0.28779  0.44992  Biso   1.000  H
  H169     1.0000 0.28321  0.28430  0.54069  Biso   1.000  H
  H170     1.0000 0.25814  0.34050  0.50051  Biso   1.000  H
  H171     1.0000 0.93960  0.27769  0.20978  Biso   1.000  H
  H172     1.0000 0.93571  0.28739  0.29781  Biso   1.000  H
  C136     1.0000 0.06681  0.26390  0.28112  Biso   1.000  C
  H173     1.0000 0.08871  0.23309  0.25483  Biso   1.000  H
  H174     1.0000 0.08504  0.25701  0.33663  Biso   1.000  H
  C137     1.0000 0.12474  0.31218  0.26340  Biso   1.000  C
  H175     1.0000 0.09422  0.24271  0.24391  Biso   1.000  H
  H176     1.0000 0.09041  0.25008  0.33320  Biso   1.000  H
  C138     1.0000 0.08965  0.32379  0.27529  Biso   1.000  C
  H177     1.0000 0.19190  0.30668  0.28661  Biso   1.000  H
  H178     1.0000 0.12012  0.31519  0.20738  Biso   1.000  H
  C139     1.0000 0.09083  0.36300  0.29353  Biso   1.000  C
  C140     1.0000 0.19362  0.32981  0.27312  Biso   1.000  C
  H179     1.0000 0.05101  0.33888  0.22830  Biso   1.000  H
  H180     1.0000 0.07430  0.34288  0.31994  Biso   1.000  H
  H181     1.0000 0.02515  0.36938  0.26889  Biso   1.000  H
  H182     1.0000 0.13031  0.39239  0.28232  Biso   1.000  H
  H183     1.0000 0.09496  0.36011  0.34892  Biso   1.000  H
  H184     1.0000 0.20770  0.31191  0.22779  Biso   1.000  H
  H185     1.0000 0.23135  0.31401  0.31919  Biso   1.000  H
  H186     1.0000 0.20914  0.36747  0.27100  Biso   1.000  H
  O17      1.0000 0.71771  0.54325  0.27792  Biso   1.000  O
  C141     1.0000 0.70939  0.56432  0.20538  Biso   1.000  C
  C142     1.0000 0.81070  0.53549  0.31833  Biso   1.000  C
  C143     1.0000 0.69440  0.52844  0.14439  Biso   1.000  C
  C144     1.0000 0.71350  0.61839  0.19349  Biso   1.000  C
  H187     1.0000 0.81212  0.50408  0.35189  Biso   1.000  H
  H188     1.0000 0.85269  0.52828  0.28152  Biso   1.000  H
  O18      1.0000 0.84469  0.57989  0.36321  Biso   1.000  O
  C145     1.0000 0.69857  0.47212  0.15908  Biso   1.000  C
  C146     1.0000 0.68172  0.54848  0.06979  Biso   1.000  C
  C147     1.0000 0.70159  0.63645  0.11833  Biso   1.000  C
  C148     1.0000 0.73755  0.65558  0.26243  Biso   1.000  C
  C149     1.0000 0.89341  0.61827  0.33028  Biso   1.000  C
  C150     1.0000 0.70781  0.42700  0.17469  Biso   1.000  C
  C151     1.0000 0.68563  0.60234  0.05528  Biso   1.000  C
  O19      1.0000 0.66456  0.51228  0.01023  Biso   1.000  O
  H189     1.0000 0.70460  0.67348  0.10952  Biso   1.000  H
  C152     1.0000 0.84470  0.65799  0.28472  Biso   1.000  C
  H190     1.0000 0.71408  0.63819  0.30559  Biso   1.000  H
  C153     1.0000 0.69080  0.71008  0.25128  Biso   1.000  C
  C154     1.0000 0.99155  0.61732  0.34840  Biso   1.000  C
  Br9      1.0000 0.72703  0.35809  0.19984  Biso   1.000  Br
  C155     1.0000 0.67667  0.62171  0.97342  Biso   1.000  C
  C156     1.0000 0.74411  0.49786  0.97902  Biso   1.000  C
  C157     1.0000 0.89878  0.69764  0.25940  Biso   1.000  C
  H191     1.0000 0.71151  0.73119  0.29839  Biso   1.000  H
  H192     1.0000 0.71328  0.72849  0.20898  Biso   1.000  H
  C158     1.0000 0.58329  0.70873  0.23374  Biso   1.000  C
  C159     1.0000 0.04206  0.65894  0.32382  Biso   1.000  C
  C160     1.0000 0.03874  0.57272  0.38893  Biso   1.000  C
  H193     1.0000 0.63674  0.59569  0.93941  Biso   1.000  H
  C161     1.0000 0.62867  0.67637  0.96016  Biso   1.000  C
  C162     1.0000 0.77570  0.62045  0.95416  Biso   1.000  C
  H194     1.0000 0.80148  0.50151  0.01892  Biso   1.000  H
  H195     1.0000 0.73829  0.46019  0.96353  Biso   1.000  H
  O20      1.0000 0.75430  0.52899  0.91517  Biso   1.000  O
  C163     1.0000 0.99674  0.69966  0.27821  Biso   1.000  C
  H196     1.0000 0.86700  0.72477  0.22762  Biso   1.000  H
  H197     1.0000 0.56073  0.68489  0.27060  Biso   1.000  H
  H198     1.0000 0.56189  0.69400  0.18189  Biso   1.000  H
  C164     1.0000 0.53985  0.76343  0.23802  Biso   1.000  C
  O21      1.0000 0.13902  0.65966  0.34966  Biso   1.000  O
  C165     1.0000 0.07175  0.53299  0.41762  Biso   1.000  C
  H199     1.0000 0.66556  0.70227  0.99543  Biso   1.000  H
  H200     1.0000 0.63027  0.68798  0.90734  Biso   1.000  H
  C166     1.0000 0.52656  0.67736  0.97182  Biso   1.000  C
  C167     1.0000 0.80957  0.57339  0.92895  Biso   1.000  C
  C168     1.0000 0.83488  0.66433  0.96422  Biso   1.000  C
  C169     1.0000 0.05403  0.74311  0.24940  Biso   1.000  C
  H201     1.0000 0.56043  0.77769  0.29021  Biso   1.000  H
  H202     1.0000 0.56432  0.78739  0.20218  Biso   1.000  H
  C170     1.0000 0.43323  0.76390  0.21893  Biso   1.000  C
  C171     1.0000 0.19630  0.64247  0.29753  Biso   1.000  C
  Br10     1.0000 0.11690  0.47330  0.46638  Biso   1.000  Br
  H203     1.0000 0.52222  0.65918  0.02029  Biso   1.000  H
  H204     1.0000 0.48640  0.65787  0.92963  Biso   1.000  H
  C172     1.0000 0.49029  0.73376  0.97416  Biso   1.000  C
  C173     1.0000 0.90265  0.57086  0.91454  Biso   1.000  C
  C174     1.0000 0.92635  0.66389  0.94855  Biso   1.000  C
  H205     1.0000 0.81205  0.69617  0.98262  Biso   1.000  H
  C175     1.0000 0.08400  0.72251  0.17692  Biso   1.000  C
  H206     1.0000 0.11305  0.74750  0.28861  Biso   1.000  H
  C176     1.0000 0.00494  0.79753  0.24008  Biso   1.000  C
  H207     1.0000 0.41133  0.73309  0.24522  Biso   1.000  H
  H208     1.0000 0.41501  0.75697  0.16343  Biso   1.000  H
  C177     1.0000 0.37529  0.81218  0.23659  Biso   1.000  C
  H209     1.0000 0.40581  0.74267  0.25609  Biso   1.000  H
  H210     1.0000 0.40962  0.75008  0.16680  Biso   1.000  H
  C178     1.0000 0.41045  0.82379  0.22470  Biso   1.000  C
  H211     1.0000 0.25364  0.62508  0.32651  Biso   1.000  H
  H212     1.0000 0.16109  0.61577  0.26260  Biso   1.000  H
  O22      1.0000 0.22353  0.68437  0.25386  Biso   1.000  O
  H213     1.0000 0.53092  0.75269  0.01658  Biso   1.000  H
  H214     1.0000 0.49686  0.75170  0.92603  Biso   1.000  H
  C179     1.0000 0.38857  0.73891  0.98422  Biso   1.000  C
  C180     1.0000 0.95710  0.61648  0.92243  Biso   1.000  C
  C181     1.0000 0.94089  0.52155  0.89322  Biso   1.000  C
  C182     1.0000 0.98947  0.71142  0.96004  Biso   1.000  C
  C183     1.0000 0.16622  0.69265  0.18349  Biso   1.000  C
  C184     1.0000 0.02912  0.72940  0.10449  Biso   1.000  C
  H215     1.0000 0.95077  0.79579  0.19669  Biso   1.000  H
  H216     1.0000 0.97973  0.80549  0.28678  Biso   1.000  H
  C185     1.0000 0.06979  0.84232  0.22590  Biso   1.000  C
  H217     1.0000 0.30813  0.80668  0.21339  Biso   1.000  H
  H218     1.0000 0.37991  0.81519  0.29261  Biso   1.000  H
  C186     1.0000 0.40921  0.86300  0.20653  Biso   1.000  C
  C187     1.0000 0.30643  0.82977  0.22693  Biso   1.000  C
  H219     1.0000 0.44902  0.83888  0.27169  Biso   1.000  H
  H220     1.0000 0.42574  0.84288  0.18012  Biso   1.000  H
  H221     1.0000 0.38010  0.71867  0.03012  Biso   1.000  H
  H222     1.0000 0.34690  0.72299  0.93941  Biso   1.000  H
  C188     1.0000 0.35880  0.79630  0.99274  Biso   1.000  C
  O23      1.0000 0.04485  0.61435  0.89940  Biso   1.000  O
  C189     1.0000 0.97695  0.48146  0.88013  Biso   1.000  C
  C190     1.0000 0.93660  0.76422  0.94341  Biso   1.000  C
  H223     1.0000 0.03188  0.70837  0.92175  Biso   1.000  H
  C191     1.0000 0.05342  0.70786  0.03870  Biso   1.000  C
  C192     1.0000 0.19429  0.67098  0.11901  Biso   1.000  C
  H224     1.0000 0.97268  0.74960  0.09969  Biso   1.000  H
  H225     1.0000 0.09178  0.83567  0.17732  Biso   1.000  H
  H226     1.0000 0.12593  0.84280  0.26763  Biso   1.000  H
  C193     1.0000 0.02154  0.89647  0.22173  Biso   1.000  C
  H227     1.0000 0.47488  0.86938  0.23111  Biso   1.000  H
  H228     1.0000 0.36973  0.89239  0.21773  Biso   1.000  H
  H229     1.0000 0.40514  0.86007  0.15108  Biso   1.000  H
  H230     1.0000 0.29233  0.81187  0.27221  Biso   1.000  H
  H231     1.0000 0.26875  0.81397  0.18080  Biso   1.000  H
  H232     1.0000 0.29089  0.86747  0.22899  Biso   1.000  H
  H233     1.0000 0.40002  0.81187  0.03801  Biso   1.000  H
  C194     1.0000 0.25800  0.80280  0.00109  Biso   1.000  C
  H234     1.0000 0.36892  0.81650  0.94735  Biso   1.000  H
  C195     1.0000 0.12678  0.60892  0.95696  Biso   1.000  C
  Br11     1.0000 0.03242  0.42035  0.86018  Biso   1.000  Br
  H235     1.0000 0.89251  0.76149  0.89385  Biso   1.000  H
  H236     1.0000 0.89847  0.77048  0.98342  Biso   1.000  H
  C196     1.0000 0.00140  0.81131  0.94095  Biso   1.000  C
  C197     1.0000 0.13696  0.67879  0.04767  Biso   1.000  C
  C198     1.0000 0.27959  0.64057  0.12719  Biso   1.000  C
  H237     1.0000 0.97685  0.89639  0.25763  Biso   1.000  H
  H238     1.0000 0.98393  0.90098  0.16960  Biso   1.000  H
  H239     1.0000 0.95798  0.89358  0.18921  Biso   1.000  H
  C199     1.0000 0.08774  0.94538  0.24019  Biso   1.000  C
  H240     1.0000 0.01322  0.90688  0.27363  Biso   1.000  H
  C200     1.0000 0.07901  0.94106  0.18829  Biso   1.000  C
  H241     1.0000 0.24948  0.78779  0.05007  Biso   1.000  H
  H242     1.0000 0.21691  0.78430  0.95936  Biso   1.000  H
  H243     1.0000 0.24197  0.84050  0.99954  Biso   1.000  H
  H244     1.0000 0.17432  0.58801  0.93626  Biso   1.000  H
  O24      1.0000 0.16699  0.65779  0.98382  Biso   1.000  O
  H245     1.0000 0.11022  0.58900  0.00029  Biso   1.000  H
  C201     1.0000 0.94807  0.85967  0.90505  Biso   1.000  C
  H246     1.0000 0.05051  0.80169  0.91123  Biso   1.000  H
  H247     1.0000 0.03347  0.82006  0.99366  Biso   1.000  H
  C202     1.0000 0.35041  0.61557  0.13542  Biso   1.000  C
  H248     1.0000 0.04916  0.97758  0.24242  Biso   1.000  H
  H249     1.0000 0.12865  0.94059  0.29101  Biso   1.000  H
  C203     1.0000 0.14741  0.95259  0.18160  Biso   1.000  C
  C204     1.0000 0.16259  0.95437  0.23922  Biso   1.000  C
  H250     1.0000 0.14760  0.96427  0.28930  Biso   1.000  H
  H251     1.0000 0.10742  0.95897  0.13090  Biso   1.000  H
  H252     1.0000 0.09479  0.92867  0.13953  Biso   1.000  H
  H253     1.0000 0.03912  0.97307  0.17743  Biso   1.000  H
  H254     1.0000 0.90788  0.87377  0.93975  Biso   1.000  H
  H255     1.0000 0.90661  0.84949  0.85635  Biso   1.000  H
  H256     1.0000 0.88089  0.85638  0.90951  Biso   1.000  H
  H257     1.0000 0.95080  0.86058  0.84995  Biso   1.000  H
  C205     1.0000 0.98859  0.91378  0.94312  Biso   1.000  C
  C206     1.0000 0.02099  0.90427  0.88916  Biso   1.000  C
  Br12     1.0000 0.45831  0.57767  0.14542  Biso   1.000  Br
  H258     1.0000 0.18581  0.92047  0.17829  Biso   1.000  H
  C207     1.0000 0.21434  0.00226  0.20681  Biso   1.000  C
  H259     1.0000 0.20512  0.92328  0.24683  Biso   1.000  H
  H260     1.0000 0.94167  0.94269  0.93152  Biso   1.000  H
  C208     1.0000 0.05739  0.92997  0.96176  Biso   1.000  C
  H261     1.0000 0.00477  0.94336  0.98502  Biso   1.000  H
  H262     1.0000 0.00773  0.91017  0.99926  Biso   1.000  H
  C209     1.0000 0.07332  0.92360  0.90585  Biso   1.000  C
  H263     1.0000 0.98879  0.93049  0.85172  Biso   1.000  H
  H264     1.0000 0.07325  0.88807  0.86824  Biso   1.000  H
  H265     1.0000 0.05340  0.92847  0.84995  Biso   1.000  H
  H266     1.0000 0.25365  0.99537  0.25700  Biso   1.000  H
  H267     1.0000 0.22999  0.99240  0.15748  Biso   1.000  H
  H268     1.0000 0.25482  0.00816  0.16920  Biso   1.000  H
  H269     1.0000 0.17551  0.03386  0.20978  Biso   1.000  H
  H270     1.0000 0.27230  0.01097  0.24300  Biso   1.000  H
  H271     1.0000 0.17255  0.03327  0.20001  Biso   1.000  H
  H272     1.0000 0.09471  0.90459  0.99766  Biso   1.000  H
  C210     1.0000 0.12047  0.97639  0.94472  Biso   1.000  C
  H273     1.0000 0.11809  0.89358  0.91534  Biso   1.000  H
  H274     1.0000 0.14660  0.99477  0.99245  Biso   1.000  H
  H275     1.0000 0.17222  0.96249  0.92186  Biso   1.000  H
  H276     1.0000 0.17625  0.98519  0.92312  Biso   1.000  H
  H277     1.0000 0.13927  0.97089  0.00000  Biso   1.000  H
  H278     1.0000 0.08270  0.00115  0.90923  Biso   1.000  H
  H279     1.0000 0.07497  0.00547  0.93506  Biso   1.000  H
  O25      1.0000 0.28236  0.45671  0.72213  Biso   1.000  O
  C211     1.0000 0.18937  0.46451  0.68171  Biso   1.000  C
  C212     1.0000 0.29066  0.43564  0.79461  Biso   1.000  C
  O26      1.0000 0.15538  0.42011  0.63684  Biso   1.000  O
  H280     1.0000 0.18794  0.49588  0.64810  Biso   1.000  H
  H281     1.0000 0.14738  0.47168  0.71853  Biso   1.000  H
  C213     1.0000 0.28656  0.38157  0.80650  Biso   1.000  C
  C214     1.0000 0.30566  0.47152  0.85560  Biso   1.000  C
  C215     1.0000 0.10665  0.38169  0.66971  Biso   1.000  C
  C216     1.0000 0.26252  0.34438  0.73762  Biso   1.000  C
  C217     1.0000 0.29848  0.36351  0.88172  Biso   1.000  C
  C218     1.0000 0.31835  0.45148  0.93025  Biso   1.000  C
  C219     1.0000 0.30148  0.52788  0.84091  Biso   1.000  C
  C220     1.0000 0.00859  0.38268  0.65165  Biso   1.000  C
  C221     1.0000 0.15537  0.34201  0.71532  Biso   1.000  C
  H282     1.0000 0.28597  0.36181  0.69440  Biso   1.000  H
  C222     1.0000 0.30926  0.28992  0.74871  Biso   1.000  C
  C223     1.0000 0.31450  0.39762  0.94471  Biso   1.000  C
  H283     1.0000 0.29547  0.32648  0.89053  Biso   1.000  H
  O27      1.0000 0.33551  0.48768  0.98982  Biso   1.000  O
  C224     1.0000 0.29225  0.57296  0.82530  Biso   1.000  C
  C225     1.0000 0.95808  0.34106  0.67623  Biso   1.000  C
  C226     1.0000 0.96133  0.42728  0.61112  Biso   1.000  C
  C227     1.0000 0.10129  0.30232  0.74065  Biso   1.000  C
  H284     1.0000 0.28855  0.26881  0.70161  Biso   1.000  H
  H285     1.0000 0.28678  0.27151  0.79101  Biso   1.000  H
  C228     1.0000 0.41678  0.29123  0.76631  Biso   1.000  C
  C229     1.0000 0.32339  0.37825  0.02657  Biso   1.000  C
  C230     1.0000 0.25595  0.50210  0.02097  Biso   1.000  C
  Br13     1.0000 0.27304  0.64187  0.80021  Biso   1.000  Br
  C231     1.0000 0.00333  0.30034  0.72184  Biso   1.000  C
  O28      1.0000 0.86104  0.34030  0.65033  Biso   1.000  O
  C232     1.0000 0.92832  0.46697  0.58242  Biso   1.000  C
  H286     1.0000 0.13307  0.27519  0.77243  Biso   1.000  H
  H287     1.0000 0.43934  0.31507  0.72944  Biso   1.000  H
  H288     1.0000 0.43816  0.30600  0.81810  Biso   1.000  H
  C233     1.0000 0.46029  0.23657  0.76203  Biso   1.000  C
  H289     1.0000 0.36331  0.40431  0.06058  Biso   1.000  H
  C234     1.0000 0.37140  0.32363  0.03989  Biso   1.000  C
  C235     1.0000 0.22437  0.37955  0.04589  Biso   1.000  C
  H290     1.0000 0.19859  0.49849  0.98113  Biso   1.000  H
  H291     1.0000 0.26178  0.53981  0.03652  Biso   1.000  H
  O29      1.0000 0.24575  0.47101  0.08482  Biso   1.000  O
  C236     1.0000 0.94604  0.25685  0.75065  Biso   1.000  C
  C237     1.0000 0.80377  0.35753  0.70252  Biso   1.000  C
  Br14     1.0000 0.88317  0.52670  0.53366  Biso   1.000  Br
  H292     1.0000 0.43964  0.22231  0.70984  Biso   1.000  H
  H293     1.0000 0.43574  0.21261  0.79781  Biso   1.000  H
  C238     1.0000 0.56684  0.23610  0.78112  Biso   1.000  C
  H294     1.0000 0.33450  0.29769  0.00456  Biso   1.000  H
  H295     1.0000 0.36980  0.31199  0.09271  Biso   1.000  H
  C239     1.0000 0.47350  0.32264  0.02817  Biso   1.000  C
  C240     1.0000 0.19050  0.42657  0.07110  Biso   1.000  C
  C241     1.0000 0.16518  0.33567  0.03577  Biso   1.000  C
  C242     1.0000 0.91607  0.27749  0.82313  Biso   1.000  C
  H296     1.0000 0.88709  0.25250  0.71144  Biso   1.000  H
  C243     1.0000 0.99512  0.20247  0.75991  Biso   1.000  C
  H297     1.0000 0.74643  0.37488  0.67354  Biso   1.000  H
  H298     1.0000 0.83898  0.38419  0.73745  Biso   1.000  H
  O30      1.0000 0.77654  0.31563  0.74619  Biso   1.000  O
  H299     1.0000 0.58874  0.26691  0.75482  Biso   1.000  H
  H300     1.0000 0.58506  0.24299  0.83662  Biso   1.000  H
  C244     1.0000 0.62477  0.18778  0.76340  Biso   1.000  C
  H301     1.0000 0.59424  0.25729  0.74391  Biso   1.000  H
  H302     1.0000 0.59045  0.24988  0.83325  Biso   1.000  H
  C245     1.0000 0.58969  0.17621  0.77534  Biso   1.000  C
  H303     1.0000 0.47785  0.34078  0.97976  Biso   1.000  H
  H304     1.0000 0.51367  0.34209  0.07041  Biso   1.000  H
  C246     1.0000 0.50978  0.26624  0.02588  Biso   1.000  C
  C247     1.0000 0.09742  0.42910  0.08550  Biso   1.000  C
  C248     1.0000 0.07372  0.33607  0.05149  Biso   1.000  C
  H305     1.0000 0.18801  0.30379  0.01737  Biso   1.000  H
  C249     1.0000 0.83384  0.30731  0.81650  Biso   1.000  C
  C250     1.0000 0.97094  0.27056  0.89550  Biso   1.000  C
  H306     1.0000 0.04928  0.20421  0.80330  Biso   1.000  H
  H307     1.0000 0.02032  0.19451  0.71321  Biso   1.000  H
  C251     1.0000 0.93028  0.15768  0.77414  Biso   1.000  C
  H308     1.0000 0.69192  0.19328  0.78661  Biso   1.000  H
  H309     1.0000 0.62016  0.18481  0.70744  Biso   1.000  H
  C252     1.0000 0.59086  0.13700  0.79352  Biso   1.000  C
  C253     1.0000 0.69364  0.17019  0.77311  Biso   1.000  C
  H310     1.0000 0.55104  0.16108  0.72830  Biso   1.000  H
  H311     1.0000 0.57439  0.15708  0.81993  Biso   1.000  H
  H312     1.0000 0.46921  0.24731  0.98341  Biso   1.000  H
  H313     1.0000 0.50321  0.24830  0.07402  Biso   1.000  H
  C254     1.0000 0.61148  0.26109  0.01577  Biso   1.000  C
  C255     1.0000 0.04297  0.38348  0.07762  Biso   1.000  C
  C256     1.0000 0.05917  0.47845  0.10677  Biso   1.000  C
  C257     1.0000 0.01060  0.28854  0.04000  Biso   1.000  C
  C258     1.0000 0.80578  0.32898  0.88104  Biso   1.000  C
  H314     1.0000 0.02737  0.25040  0.90030  Biso   1.000  H
  C259     1.0000 0.94665  0.29214  0.96135  Biso   1.000  C
  H315     1.0000 0.90829  0.16429  0.82273  Biso   1.000  H
  H316     1.0000 0.87414  0.15720  0.73242  Biso   1.000  H
  C260     1.0000 0.97853  0.10349  0.77832  Biso   1.000  C
  H317     1.0000 0.52519  0.13058  0.76894  Biso   1.000  H
  H318     1.0000 0.63034  0.10761  0.78232  Biso   1.000  H
  H319     1.0000 0.59499  0.13989  0.84891  Biso   1.000  H
  H320     1.0000 0.70774  0.18809  0.72784  Biso   1.000  H
  H321     1.0000 0.73139  0.18599  0.81924  Biso   1.000  H
  H322     1.0000 0.70917  0.13249  0.77100  Biso   1.000  H
  H323     1.0000 0.61997  0.28129  0.96992  Biso   1.000  H
  H324     1.0000 0.65316  0.27701  0.06058  Biso   1.000  H
  C261     1.0000 0.64127  0.20370  0.00731  Biso   1.000  C
  O31      1.0000 0.95522  0.38565  0.10065  Biso   1.000  O
  C262     1.0000 0.02312  0.51854  0.11992  Biso   1.000  C
  H325     1.0000 0.96819  0.29159  0.07830  Biso   1.000  H
  C263     1.0000 0.06346  0.23574  0.05658  Biso   1.000  C
  C264     1.0000 0.86309  0.32117  0.95232  Biso   1.000  C
  C265     1.0000 0.72047  0.35939  0.87281  Biso   1.000  C
  H326     1.0000 0.02329  0.10361  0.74242  Biso   1.000  H
  H327     1.0000 0.01614  0.09902  0.83045  Biso   1.000  H
  H328     1.0000 0.04209  0.10638  0.81084  Biso   1.000  H
  C266     1.0000 0.91232  0.05462  0.75980  Biso   1.000  C
  H329     1.0000 0.98685  0.09312  0.72641  Biso   1.000  H
  C267     1.0000 0.92104  0.05890  0.81170  Biso   1.000  C
  H330     1.0000 0.60005  0.18809  0.96203  Biso   1.000  H
  C268     1.0000 0.74206  0.19720  0.99890  Biso   1.000  C
  H331     1.0000 0.63122  0.18350  0.05269  Biso   1.000  H
  C269     1.0000 0.87329  0.39104  0.04309  Biso   1.000  C
  Br15     1.0000 0.96764  0.57965  0.13981  Biso   1.000  Br
  C270     1.0000 0.99867  0.18865  0.05910  Biso   1.000  C
  H332     1.0000 0.10756  0.23851  0.10620  Biso   1.000  H
  H333     1.0000 0.10158  0.22948  0.01657  Biso   1.000  H
  O32      1.0000 0.83307  0.34221  0.01617  Biso   1.000  O
  C271     1.0000 0.64966  0.38443  0.86463  Biso   1.000  C
  H334     1.0000 0.95098  0.02242  0.75762  Biso   1.000  H
  H335     1.0000 0.87148  0.05941  0.70904  Biso   1.000  H
  C272     1.0000 0.85266  0.04741  0.81844  Biso   1.000  C
  C273     1.0000 0.83748  0.04559  0.76083  Biso   1.000  C
  H336     1.0000 0.85246  0.03569  0.71069  Biso   1.000  H
  H337     1.0000 0.89265  0.04099  0.86915  Biso   1.000  H
  H338     1.0000 0.90528  0.07129  0.86052  Biso   1.000  H
  H339     1.0000 0.96095  0.02689  0.82262  Biso   1.000  H
  H340     1.0000 0.75058  0.21221  0.94992  Biso   1.000  H
  H341     1.0000 0.78316  0.21570  0.04069  Biso   1.000  H
  H342     1.0000 0.75810  0.15950  0.00050  Biso   1.000  H
  H343     1.0000 0.88983  0.41100  0.99970  Biso   1.000  H
  H344     1.0000 0.82575  0.41199  0.06378  Biso   1.000  H
  H345     1.0000 0.94963  0.19831  0.08882  Biso   1.000  H
  H346     1.0000 0.96660  0.17990  0.00639  Biso   1.000  H
  C274     1.0000 0.05200  0.14029  0.09499  Biso   1.000  C
  Br16     1.0000 0.54175  0.42233  0.85457  Biso   1.000  Br
  C275     1.0000 0.78573  0.99770  0.79324  Biso   1.000  C
  H347     1.0000 0.81425  0.07949  0.82170  Biso   1.000  H
  H348     1.0000 0.79495  0.07668  0.75322  Biso   1.000  H
  C276     1.0000 0.97908  0.09569  0.11088  Biso   1.000  C
  H349     1.0000 0.09219  0.12619  0.06030  Biso   1.000  H
  H350     1.0000 0.09353  0.15051  0.14370  Biso   1.000  H
  H351     1.0000 0.11916  0.14362  0.09048  Biso   1.000  H
  H352     1.0000 0.04927  0.13942  0.15010  Biso   1.000  H
  C277     1.0000 0.01146  0.08619  0.05687  Biso   1.000  C
  H353     1.0000 0.74525  0.99180  0.83085  Biso   1.000  H
  H354     1.0000 0.82455  0.96614  0.79021  Biso   1.000  H
  H355     1.0000 0.72775  0.98903  0.75700  Biso   1.000  H
  H356     1.0000 0.82759  0.96673  0.80004  Biso   1.000  H
  H357     1.0000 0.74649  0.00459  0.74305  Biso   1.000  H
  H358     1.0000 0.77007  0.00760  0.84251  Biso   1.000  H
  H359     1.0000 0.92682  0.11189  0.13181  Biso   1.000  H
  C278     1.0000 0.94268  0.06999  0.03829  Biso   1.000  C
  H360     1.0000 0.94667  0.07149  0.15010  Biso   1.000  H
  H361     1.0000 0.01127  0.06951  0.14827  Biso   1.000  H
  H362     1.0000 0.99529  0.05660  0.01497  Biso   1.000  H
  H363     1.0000 0.99241  0.08979  0.00079  Biso   1.000  H
  C279     1.0000 0.92682  0.07640  0.09419  Biso   1.000  C
  H364     1.0000 0.05839  0.05731  0.06847  Biso   1.000  H
  H365     1.0000 0.90536  0.09541  0.00239  Biso   1.000  H
  C280     1.0000 0.87958  0.02361  0.05527  Biso   1.000  C
  H366     1.0000 0.88198  0.10638  0.08470  Biso   1.000  H
  H367     1.0000 0.91737  0.99881  0.09082  Biso   1.000  H
  H368     1.0000 0.92510  0.99453  0.06498  Biso   1.000  H
  H369     1.0000 0.85347  0.00519  0.00759  Biso   1.000  H
  H370     1.0000 0.82785  0.03751  0.07819  Biso   1.000  H
  H371     1.0000 0.82380  0.01481  0.07687  Biso   1.000  H
  H372     1.0000 0.86072  0.02911  0.99999  Biso   1.000  H
