data_image0
_cell_length_a       23.948
_cell_length_b       23.948
_cell_length_c       23.948
_cell_angle_alpha    90
_cell_angle_beta     90
_cell_angle_gamma    90

_symmetry_space_group_name_H-M    "P 1"
_symmetry_int_tables_number       1

loop_
  _symmetry_equiv_pos_as_xyz
  'x, y, z'

loop_
  _atom_site_label
  _atom_site_occupancy
  _atom_site_fract_x
  _atom_site_fract_y
  _atom_site_fract_z
  _atom_site_thermal_displace_type
  _atom_site_B_iso_or_equiv
  _atom_site_type_symbol
  C1       1.0000 0.63417  0.55658  0.61709  Biso   1.000  C
  C2       1.0000 0.64916  0.58840  0.57061  Biso   1.000  C
  C3       1.0000 0.58840  0.57061  0.64916  Biso   1.000  C
  H1       1.0000 0.65580  0.52480  0.62677  Biso   1.000  H
  C4       1.0000 0.69922  0.57508  0.53762  Biso   1.000  C
  C5       1.0000 0.61709  0.63417  0.55658  Biso   1.000  C
  C6       1.0000 0.55658  0.61709  0.63417  Biso   1.000  C
  C7       1.0000 0.57508  0.53762  0.69922  Biso   1.000  C
  N1       1.0000 0.73234  0.53583  0.54961  Biso   1.000  N
  H2       1.0000 0.70707  0.59721  0.50560  Biso   1.000  H
  C8       1.0000 0.57061  0.64916  0.58840  Biso   1.000  C
  H3       1.0000 0.62677  0.65580  0.52480  Biso   1.000  H
  H4       1.0000 0.52480  0.62677  0.65580  Biso   1.000  H
  N2       1.0000 0.53583  0.54961  0.73234  Biso   1.000  N
  H5       1.0000 0.59721  0.50560  0.70707  Biso   1.000  H
  C9       1.0000 0.78107  0.52885  0.51320  Biso   1.000  C
  C10      1.0000 0.53762  0.69922  0.57508  Biso   1.000  C
  C11      1.0000 0.52885  0.51320  0.78107  Biso   1.000  C
  C12      1.0000 0.78107  0.47115  0.48680  Biso   1.000  C
  H6       1.0000 0.81568  0.53391  0.53528  Biso   1.000  H
  H7       1.0000 0.78040  0.55758  0.48351  Biso   1.000  H
  N3       1.0000 0.54961  0.73234  0.53583  Biso   1.000  N
  H8       1.0000 0.50560  0.70707  0.59721  Biso   1.000  H
  C13      1.0000 0.47115  0.48680  0.78107  Biso   1.000  C
  H9       1.0000 0.53391  0.53528  0.81568  Biso   1.000  H
  H10      1.0000 0.55758  0.48351  0.78040  Biso   1.000  H
  N4       1.0000 0.73234  0.46413  0.45039  Biso   1.000  N
  H11      1.0000 0.81568  0.46609  0.46472  Biso   1.000  H
  H12      1.0000 0.78040  0.44242  0.51649  Biso   1.000  H
  C14      1.0000 0.51320  0.78107  0.52885  Biso   1.000  C
  N5       1.0000 0.46413  0.45039  0.73234  Biso   1.000  N
  H13      1.0000 0.46609  0.46472  0.81568  Biso   1.000  H
  H14      1.0000 0.44242  0.51649  0.78040  Biso   1.000  H
  C15      1.0000 0.69922  0.42492  0.46238  Biso   1.000  C
  C16      1.0000 0.48680  0.78107  0.47115  Biso   1.000  C
  H15      1.0000 0.53528  0.81568  0.53391  Biso   1.000  H
  H16      1.0000 0.48351  0.78040  0.55758  Biso   1.000  H
  C17      1.0000 0.42492  0.46238  0.69922  Biso   1.000  C
  C18      1.0000 0.64916  0.41160  0.42939  Biso   1.000  C
  H17      1.0000 0.70707  0.40279  0.49440  Biso   1.000  H
  N6       1.0000 0.45039  0.73234  0.46413  Biso   1.000  N
  H18      1.0000 0.46472  0.81568  0.46609  Biso   1.000  H
  H19      1.0000 0.51649  0.78040  0.44242  Biso   1.000  H
  C19      1.0000 0.41160  0.42939  0.64916  Biso   1.000  C
  H20      1.0000 0.40279  0.49440  0.70707  Biso   1.000  H
  C20      1.0000 0.61709  0.36583  0.44342  Biso   1.000  C
  C21      1.0000 0.63417  0.44342  0.38287  Biso   1.000  C
  C22      1.0000 0.46238  0.69922  0.42492  Biso   1.000  C
  C23      1.0000 0.44342  0.38287  0.63417  Biso   1.000  C
  C24      1.0000 0.36583  0.44342  0.61709  Biso   1.000  C
  C25      1.0000 0.57061  0.35084  0.41160  Biso   1.000  C
  H21      1.0000 0.62677  0.34420  0.47520  Biso   1.000  H
  C26      1.0000 0.58840  0.42939  0.35084  Biso   1.000  C
  H22      1.0000 0.65580  0.47520  0.37318  Biso   1.000  H
  C27      1.0000 0.42939  0.64916  0.41160  Biso   1.000  C
  H23      1.0000 0.49440  0.70707  0.40279  Biso   1.000  H
  C28      1.0000 0.42939  0.35084  0.58840  Biso   1.000  C
  H24      1.0000 0.47520  0.37318  0.65580  Biso   1.000  H
  C29      1.0000 0.35084  0.41160  0.57061  Biso   1.000  C
  H25      1.0000 0.34420  0.47520  0.62677  Biso   1.000  H
  C30      1.0000 0.53762  0.30078  0.42492  Biso   1.000  C
  C31      1.0000 0.55658  0.38287  0.36583  Biso   1.000  C
  C32      1.0000 0.57508  0.46238  0.30078  Biso   1.000  C
  C33      1.0000 0.44342  0.61709  0.36583  Biso   1.000  C
  C34      1.0000 0.38287  0.63417  0.44342  Biso   1.000  C
  C35      1.0000 0.46238  0.30078  0.57508  Biso   1.000  C
  C36      1.0000 0.38287  0.36583  0.55658  Biso   1.000  C
  C37      1.0000 0.30078  0.42492  0.53762  Biso   1.000  C
  N7       1.0000 0.54961  0.26766  0.46413  Biso   1.000  N
  H26      1.0000 0.50560  0.29288  0.40279  Biso   1.000  H
  H27      1.0000 0.52480  0.37318  0.34420  Biso   1.000  H
  N8       1.0000 0.53583  0.45039  0.26766  Biso   1.000  N
  H28      1.0000 0.59721  0.49440  0.29288  Biso   1.000  H
  C38      1.0000 0.41160  0.57061  0.35084  Biso   1.000  C
  H29      1.0000 0.47520  0.62677  0.34420  Biso   1.000  H
  C39      1.0000 0.35084  0.58840  0.42939  Biso   1.000  C
  H30      1.0000 0.37318  0.65580  0.47520  Biso   1.000  H
  N9       1.0000 0.45039  0.26766  0.53583  Biso   1.000  N
  H31      1.0000 0.49440  0.29288  0.59721  Biso   1.000  H
  H32      1.0000 0.37318  0.34420  0.52480  Biso   1.000  H
  N10      1.0000 0.26766  0.46413  0.54961  Biso   1.000  N
  H33      1.0000 0.29288  0.40279  0.50560  Biso   1.000  H
  C40      1.0000 0.51320  0.21893  0.47115  Biso   1.000  C
  C41      1.0000 0.52885  0.48680  0.21893  Biso   1.000  C
  C42      1.0000 0.42492  0.53762  0.30078  Biso   1.000  C
  C43      1.0000 0.36583  0.55658  0.38287  Biso   1.000  C
  C44      1.0000 0.30078  0.57508  0.46238  Biso   1.000  C
  C45      1.0000 0.48680  0.21893  0.52885  Biso   1.000  C
  C46      1.0000 0.21893  0.47115  0.51320  Biso   1.000  C
  H34      1.0000 0.53528  0.18432  0.46609  Biso   1.000  H
  H35      1.0000 0.48351  0.21960  0.44242  Biso   1.000  H
  C47      1.0000 0.47115  0.51320  0.21893  Biso   1.000  C
  H36      1.0000 0.53391  0.46472  0.18432  Biso   1.000  H
  H37      1.0000 0.55758  0.51649  0.21960  Biso   1.000  H
  N11      1.0000 0.46413  0.54961  0.26766  Biso   1.000  N
  H38      1.0000 0.40279  0.50560  0.29288  Biso   1.000  H
  H39      1.0000 0.34420  0.52480  0.37318  Biso   1.000  H
  N12      1.0000 0.26766  0.53583  0.45039  Biso   1.000  N
  H40      1.0000 0.29288  0.59721  0.49440  Biso   1.000  H
  H41      1.0000 0.46472  0.18432  0.53391  Biso   1.000  H
  H42      1.0000 0.51649  0.21960  0.55758  Biso   1.000  H
  C48      1.0000 0.21893  0.52885  0.48680  Biso   1.000  C
  H43      1.0000 0.18432  0.46609  0.53528  Biso   1.000  H
  H44      1.0000 0.21960  0.44242  0.48351  Biso   1.000  H
  H45      1.0000 0.46609  0.53528  0.18432  Biso   1.000  H
  H46      1.0000 0.44242  0.48351  0.21960  Biso   1.000  H
  H47      1.0000 0.18432  0.53391  0.46472  Biso   1.000  H
  H48      1.0000 0.21960  0.55758  0.51649  Biso   1.000  H
  C49      1.0000 0.77639  0.63041  0.70219  Biso   1.000  C
  C50      1.0000 0.78625  0.58723  0.71613  Biso   1.000  C
  C51      1.0000 0.80938  0.57541  0.69300  Biso   1.000  C
  H49      1.0000 0.78821  0.59871  0.67651  Biso   1.000  H
  C52      1.0000 0.75000  0.63083  0.75000  Biso   1.000  C
  H50      1.0000 0.80270  0.66231  0.70098  Biso   1.000  H
  H51      1.0000 0.74908  0.63521  0.67150  Biso   1.000  H
  C53      1.0000 0.76098  0.52931  0.72023  Biso   1.000  C
  H52      1.0000 0.82470  0.58660  0.73121  Biso   1.000  H
  H53      1.0000 0.84487  0.57491  0.71409  Biso   1.000  H
  H54      1.0000 0.81681  0.56831  0.65300  Biso   1.000  H
  C54      1.0000 0.71375  0.58723  0.78382  Biso   1.000  C
  C55      1.0000 0.72361  0.63041  0.79781  Biso   1.000  C
  H55      1.0000 0.72691  0.65458  0.72528  Biso   1.000  H
  H56      1.0000 0.77309  0.65458  0.77468  Biso   1.000  H
  N13      1.0000 0.79894  0.48280  0.71108  Biso   1.000  N
  C56      1.0000 0.73898  0.52931  0.77973  Biso   1.000  C
  H57      1.0000 0.72891  0.52639  0.69371  Biso   1.000  H
  H58      1.0000 0.71179  0.59871  0.82349  Biso   1.000  H
  H59      1.0000 0.67530  0.58660  0.76879  Biso   1.000  H
  C57      1.0000 0.69058  0.57541  0.80700  Biso   1.000  C
  H60      1.0000 0.69730  0.66231  0.79898  Biso   1.000  H
  H61      1.0000 0.75088  0.63521  0.82850  Biso   1.000  H
  C58      1.0000 0.78629  0.44881  0.67296  Biso   1.000  C
  N14      1.0000 0.70106  0.48280  0.78888  Biso   1.000  N
  H62      1.0000 0.77109  0.52639  0.80629  Biso   1.000  H
  H63      1.0000 0.65509  0.57491  0.78591  Biso   1.000  H
  H64      1.0000 0.68319  0.56831  0.84700  Biso   1.000  H
  C59      1.0000 0.82065  0.39974  0.66018  Biso   1.000  C
  H65      1.0000 0.75338  0.45519  0.65179  Biso   1.000  H
  C60      1.0000 0.71371  0.44881  0.82704  Biso   1.000  C
  C61      1.0000 0.80737  0.36688  0.61441  Biso   1.000  C
  C62      1.0000 0.86688  0.38559  0.69258  Biso   1.000  C
  H66      1.0000 0.74658  0.45519  0.84821  Biso   1.000  H
  C63      1.0000 0.67931  0.39974  0.83982  Biso   1.000  C
  C64      1.0000 0.83982  0.32065  0.60022  Biso   1.000  C
  H67      1.0000 0.77568  0.37598  0.59241  Biso   1.000  H
  C65      1.0000 0.89974  0.33982  0.67931  Biso   1.000  C
  H68      1.0000 0.87598  0.40759  0.72428  Biso   1.000  H
  C66      1.0000 0.63308  0.38559  0.80737  Biso   1.000  C
  C67      1.0000 0.69258  0.36688  0.88559  Biso   1.000  C
  C68      1.0000 0.82704  0.28629  0.55115  Biso   1.000  C
  C69      1.0000 0.88559  0.30737  0.63308  Biso   1.000  C
  C70      1.0000 0.94881  0.32704  0.71371  Biso   1.000  C
  C71      1.0000 0.60022  0.33982  0.82065  Biso   1.000  C
  H69      1.0000 0.62398  0.40759  0.77568  Biso   1.000  H
  C72      1.0000 0.66018  0.32065  0.89974  Biso   1.000  C
  H70      1.0000 0.72428  0.37598  0.90759  Biso   1.000  H
  N15      1.0000 0.78888  0.29894  0.51716  Biso   1.000  N
  H71      1.0000 0.84821  0.25338  0.54481  Biso   1.000  H
  H72      1.0000 0.90759  0.27568  0.62398  Biso   1.000  H
  N16      1.0000 0.98280  0.28892  0.70106  Biso   1.000  N
  H73      1.0000 0.95519  0.34821  0.74658  Biso   1.000  H
  C73      1.0000 0.55115  0.32704  0.78629  Biso   1.000  C
  C74      1.0000 0.61441  0.30737  0.86688  Biso   1.000  C
  C75      1.0000 0.67296  0.28629  0.94881  Biso   1.000  C
  C76      1.0000 0.77973  0.26098  0.47069  Biso   1.000  C
  C77      1.0000 0.02931  0.27973  0.73898  Biso   1.000  C
  N17      1.0000 0.51716  0.28892  0.79894  Biso   1.000  N
  H74      1.0000 0.54481  0.34821  0.75338  Biso   1.000  H
  H75      1.0000 0.59241  0.27568  0.87598  Biso   1.000  H
  N18      1.0000 0.71108  0.29894  0.98280  Biso   1.000  N
  H76      1.0000 0.65179  0.25338  0.95519  Biso   1.000  H
  C78      1.0000 0.72023  0.23902  0.47069  Biso   1.000  C
  C79      1.0000 0.78382  0.28625  0.41277  Biso   1.000  C
  C80      1.0000 0.80700  0.30938  0.42459  Biso   1.000  C
  H77      1.0000 0.80629  0.22891  0.47361  Biso   1.000  H
  C81      1.0000 0.02931  0.22027  0.76098  Biso   1.000  C
  H78      1.0000 0.02639  0.30629  0.77109  Biso   1.000  H
  C82      1.0000 0.08723  0.28387  0.71375  Biso   1.000  C
  C83      1.0000 0.07541  0.30700  0.69058  Biso   1.000  C
  C84      1.0000 0.47069  0.27973  0.76098  Biso   1.000  C
  C85      1.0000 0.72023  0.26098  0.02931  Biso   1.000  C
  C86      1.0000 0.71613  0.21375  0.41277  Biso   1.000  C
  C87      1.0000 0.69300  0.19058  0.42459  Biso   1.000  C
  N19      1.0000 0.71108  0.20106  0.51716  Biso   1.000  N
  H79      1.0000 0.69371  0.27109  0.47361  Biso   1.000  H
  C88      1.0000 0.75000  0.25000  0.36917  Biso   1.000  C
  C89      1.0000 0.79781  0.27639  0.36959  Biso   1.000  C
  H80      1.0000 0.82349  0.28821  0.40129  Biso   1.000  H
  H81      1.0000 0.76879  0.32470  0.41340  Biso   1.000  H
  H82      1.0000 0.78591  0.34491  0.42509  Biso   1.000  H
  H83      1.0000 0.84700  0.31681  0.43169  Biso   1.000  H
  N20      1.0000 0.98280  0.21108  0.79894  Biso   1.000  N
  H84      1.0000 0.02639  0.19371  0.72891  Biso   1.000  H
  C90      1.0000 0.08723  0.21613  0.78625  Biso   1.000  C
  C91      1.0000 0.07541  0.19300  0.80938  Biso   1.000  C
  H85      1.0000 0.09871  0.32349  0.71179  Biso   1.000  H
  H86      1.0000 0.08660  0.26879  0.67530  Biso   1.000  H
  C92      1.0000 0.13083  0.25000  0.75000  Biso   1.000  C
  C93      1.0000 0.13041  0.29781  0.72361  Biso   1.000  C
  H87      1.0000 0.07491  0.28591  0.65509  Biso   1.000  H
  H88      1.0000 0.06831  0.34700  0.68319  Biso   1.000  H
  C94      1.0000 0.47069  0.22027  0.73898  Biso   1.000  C
  H89      1.0000 0.47361  0.30629  0.72891  Biso   1.000  H
  C95      1.0000 0.41277  0.28387  0.78625  Biso   1.000  C
  C96      1.0000 0.42459  0.30700  0.80938  Biso   1.000  C
  C97      1.0000 0.77973  0.23902  0.02931  Biso   1.000  C
  H90      1.0000 0.69371  0.22891  0.02639  Biso   1.000  H
  C98      1.0000 0.71613  0.28625  0.08723  Biso   1.000  C
  C99      1.0000 0.69300  0.30938  0.07541  Biso   1.000  C
  C100     1.0000 0.70219  0.22361  0.36959  Biso   1.000  C
  H91      1.0000 0.67651  0.21179  0.40129  Biso   1.000  H
  H92      1.0000 0.73121  0.17530  0.41340  Biso   1.000  H
  H93      1.0000 0.71409  0.15509  0.42509  Biso   1.000  H
  H94      1.0000 0.65300  0.18319  0.43169  Biso   1.000  H
  C101     1.0000 0.67296  0.21371  0.55115  Biso   1.000  C
  H95      1.0000 0.77468  0.22691  0.34542  Biso   1.000  H
  H96      1.0000 0.72528  0.27309  0.34542  Biso   1.000  H
  H97      1.0000 0.79898  0.30270  0.33769  Biso   1.000  H
  H98      1.0000 0.82850  0.24908  0.36479  Biso   1.000  H
  C102     1.0000 0.94881  0.17296  0.78629  Biso   1.000  C
  H99      1.0000 0.09871  0.17651  0.78821  Biso   1.000  H
  H100     1.0000 0.08660  0.23121  0.82470  Biso   1.000  H
  C103     1.0000 0.13041  0.20219  0.77639  Biso   1.000  C
  H101     1.0000 0.07491  0.21409  0.84487  Biso   1.000  H
  H102     1.0000 0.06831  0.15300  0.81681  Biso   1.000  H
  H103     1.0000 0.15458  0.22528  0.72691  Biso   1.000  H
  H104     1.0000 0.15458  0.27468  0.77309  Biso   1.000  H
  H105     1.0000 0.16231  0.29898  0.69730  Biso   1.000  H
  H106     1.0000 0.13521  0.32850  0.75088  Biso   1.000  H
  N21      1.0000 0.51716  0.21108  0.70106  Biso   1.000  N
  H107     1.0000 0.47361  0.19371  0.77109  Biso   1.000  H
  C104     1.0000 0.41277  0.21613  0.71375  Biso   1.000  C
  C105     1.0000 0.42459  0.19300  0.69058  Biso   1.000  C
  C106     1.0000 0.36917  0.25000  0.75000  Biso   1.000  C
  H108     1.0000 0.40129  0.32349  0.78821  Biso   1.000  H
  H109     1.0000 0.41340  0.26879  0.82470  Biso   1.000  H
  C107     1.0000 0.36959  0.29781  0.77639  Biso   1.000  C
  H110     1.0000 0.42509  0.28591  0.84487  Biso   1.000  H
  H111     1.0000 0.43169  0.34700  0.81681  Biso   1.000  H
  N22      1.0000 0.78888  0.20106  0.98280  Biso   1.000  N
  H112     1.0000 0.80629  0.27109  0.02639  Biso   1.000  H
  C108     1.0000 0.78382  0.21375  0.08723  Biso   1.000  C
  C109     1.0000 0.80700  0.19058  0.07541  Biso   1.000  C
  C110     1.0000 0.75000  0.25000  0.13083  Biso   1.000  C
  H113     1.0000 0.67651  0.28821  0.09871  Biso   1.000  H
  H114     1.0000 0.73121  0.32470  0.08660  Biso   1.000  H
  C111     1.0000 0.70219  0.27639  0.13041  Biso   1.000  C
  H115     1.0000 0.71409  0.34491  0.07491  Biso   1.000  H
  H116     1.0000 0.65300  0.31681  0.06831  Biso   1.000  H
  H117     1.0000 0.70098  0.19730  0.33769  Biso   1.000  H
  H118     1.0000 0.67150  0.25092  0.36479  Biso   1.000  H
  H119     1.0000 0.65179  0.24662  0.54481  Biso   1.000  H
  C112     1.0000 0.66018  0.17935  0.60022  Biso   1.000  C
  H120     1.0000 0.95519  0.15179  0.75338  Biso   1.000  H
  C113     1.0000 0.89974  0.16018  0.82065  Biso   1.000  C
  H121     1.0000 0.16231  0.20102  0.80270  Biso   1.000  H
  H122     1.0000 0.13521  0.17150  0.74908  Biso   1.000  H
  C114     1.0000 0.55115  0.17296  0.71371  Biso   1.000  C
  H123     1.0000 0.40129  0.17651  0.71179  Biso   1.000  H
  H124     1.0000 0.41340  0.23121  0.67530  Biso   1.000  H
  C115     1.0000 0.36959  0.20219  0.72361  Biso   1.000  C
  H125     1.0000 0.42509  0.21409  0.65509  Biso   1.000  H
  H126     1.0000 0.43169  0.15300  0.68319  Biso   1.000  H
  H127     1.0000 0.34542  0.22528  0.77309  Biso   1.000  H
  H128     1.0000 0.34542  0.27468  0.72691  Biso   1.000  H
  H129     1.0000 0.33769  0.29898  0.80270  Biso   1.000  H
  H130     1.0000 0.36479  0.32850  0.74908  Biso   1.000  H
  C116     1.0000 0.82704  0.21371  0.94881  Biso   1.000  C
  H131     1.0000 0.82349  0.21179  0.09871  Biso   1.000  H
  H132     1.0000 0.76879  0.17530  0.08660  Biso   1.000  H
  C117     1.0000 0.79781  0.22361  0.13041  Biso   1.000  C
  H133     1.0000 0.78591  0.15509  0.07491  Biso   1.000  H
  H134     1.0000 0.84700  0.18319  0.06831  Biso   1.000  H
  H135     1.0000 0.77468  0.27309  0.15458  Biso   1.000  H
  H136     1.0000 0.72528  0.22691  0.15458  Biso   1.000  H
  H137     1.0000 0.70098  0.30270  0.16231  Biso   1.000  H
  H138     1.0000 0.67150  0.24908  0.13521  Biso   1.000  H
  C118     1.0000 0.69258  0.13308  0.61441  Biso   1.000  C
  C119     1.0000 0.61441  0.19263  0.63308  Biso   1.000  C
  C120     1.0000 0.86688  0.11441  0.80737  Biso   1.000  C
  C121     1.0000 0.88559  0.19263  0.86688  Biso   1.000  C
  C122     1.0000 0.60022  0.16018  0.67931  Biso   1.000  C
  H139     1.0000 0.54481  0.15179  0.74658  Biso   1.000  H
  H140     1.0000 0.33769  0.20102  0.69730  Biso   1.000  H
  H141     1.0000 0.36479  0.17150  0.75088  Biso   1.000  H
  C123     1.0000 0.83982  0.17935  0.89974  Biso   1.000  C
  H142     1.0000 0.84821  0.24662  0.95519  Biso   1.000  H
  H143     1.0000 0.79898  0.19730  0.16231  Biso   1.000  H
  H144     1.0000 0.82850  0.25092  0.13521  Biso   1.000  H
  C124     1.0000 0.67931  0.10026  0.66018  Biso   1.000  C
  H145     1.0000 0.72428  0.12402  0.59241  Biso   1.000  H
  H146     1.0000 0.59241  0.22428  0.62398  Biso   1.000  H
  C125     1.0000 0.82065  0.10026  0.83982  Biso   1.000  C
  H147     1.0000 0.87598  0.09241  0.77568  Biso   1.000  H
  H148     1.0000 0.90759  0.22428  0.87598  Biso   1.000  H
  C126     1.0000 0.63308  0.11441  0.69258  Biso   1.000  C
  C127     1.0000 0.80737  0.13308  0.88559  Biso   1.000  C
  C128     1.0000 0.71371  0.05115  0.67296  Biso   1.000  C
  C129     1.0000 0.78629  0.05115  0.82704  Biso   1.000  C
  H149     1.0000 0.62398  0.09241  0.72428  Biso   1.000  H
  H150     1.0000 0.77568  0.12402  0.90759  Biso   1.000  H
  N23      1.0000 0.70106  0.01716  0.71108  Biso   1.000  N
  H151     1.0000 0.74658  0.04481  0.65179  Biso   1.000  H
  N24      1.0000 0.79894  0.01716  0.78888  Biso   1.000  N
  H152     1.0000 0.75338  0.04481  0.84821  Biso   1.000  H
  C130     1.0000 0.73898  0.97064  0.72023  Biso   1.000  C
  C131     1.0000 0.76098  0.97064  0.77973  Biso   1.000  C
  H153     1.0000 0.77109  0.97361  0.69371  Biso   1.000  H
  C132     1.0000 0.71375  0.91277  0.71613  Biso   1.000  C
  C133     1.0000 0.69058  0.92459  0.69300  Biso   1.000  C
  H154     1.0000 0.72891  0.97361  0.80629  Biso   1.000  H
  C134     1.0000 0.78625  0.91277  0.78382  Biso   1.000  C
  C135     1.0000 0.80938  0.92459  0.80700  Biso   1.000  C
  H155     1.0000 0.71179  0.90129  0.67651  Biso   1.000  H
  H156     1.0000 0.67530  0.91340  0.73121  Biso   1.000  H
  C136     1.0000 0.75000  0.86917  0.75000  Biso   1.000  C
  C137     1.0000 0.72361  0.86959  0.70219  Biso   1.000  C
  H157     1.0000 0.65509  0.92509  0.71409  Biso   1.000  H
  H158     1.0000 0.68319  0.93169  0.65300  Biso   1.000  H
  H159     1.0000 0.78821  0.90129  0.82349  Biso   1.000  H
  H160     1.0000 0.82470  0.91340  0.76879  Biso   1.000  H
  C138     1.0000 0.77639  0.86959  0.79781  Biso   1.000  C
  H161     1.0000 0.84487  0.92509  0.78591  Biso   1.000  H
  H162     1.0000 0.81681  0.93169  0.84700  Biso   1.000  H
  H163     1.0000 0.72691  0.84537  0.77468  Biso   1.000  H
  H164     1.0000 0.77309  0.84537  0.72528  Biso   1.000  H
  H165     1.0000 0.69730  0.83769  0.70098  Biso   1.000  H
  H166     1.0000 0.75088  0.86479  0.67150  Biso   1.000  H
  H167     1.0000 0.80270  0.83769  0.79898  Biso   1.000  H
  H168     1.0000 0.74908  0.86479  0.82850  Biso   1.000  H
  C139     1.0000 0.70219  0.77639  0.63041  Biso   1.000  C
  C140     1.0000 0.71613  0.78625  0.58723  Biso   1.000  C
  C141     1.0000 0.69300  0.80938  0.57541  Biso   1.000  C
  H169     1.0000 0.67651  0.78821  0.59871  Biso   1.000  H
  C142     1.0000 0.75000  0.75000  0.63083  Biso   1.000  C
  H170     1.0000 0.70098  0.80270  0.66231  Biso   1.000  H
  H171     1.0000 0.67150  0.74908  0.63521  Biso   1.000  H
  C143     1.0000 0.72023  0.76098  0.52931  Biso   1.000  C
  H172     1.0000 0.73121  0.82470  0.58660  Biso   1.000  H
  H173     1.0000 0.71409  0.84487  0.57491  Biso   1.000  H
  H174     1.0000 0.65300  0.81681  0.56831  Biso   1.000  H
  C144     1.0000 0.78382  0.71375  0.58723  Biso   1.000  C
  C145     1.0000 0.79781  0.72361  0.63041  Biso   1.000  C
  H175     1.0000 0.77468  0.77309  0.65458  Biso   1.000  H
  H176     1.0000 0.72528  0.72691  0.65458  Biso   1.000  H
  N25      1.0000 0.71108  0.79894  0.48280  Biso   1.000  N
  C146     1.0000 0.77973  0.73898  0.52931  Biso   1.000  C
  H177     1.0000 0.69371  0.72891  0.52639  Biso   1.000  H
  H178     1.0000 0.82349  0.71179  0.59871  Biso   1.000  H
  H179     1.0000 0.76879  0.67530  0.58660  Biso   1.000  H
  C147     1.0000 0.80700  0.69058  0.57541  Biso   1.000  C
  H180     1.0000 0.79898  0.69730  0.66231  Biso   1.000  H
  H181     1.0000 0.82850  0.75088  0.63521  Biso   1.000  H
  C148     1.0000 0.67296  0.78629  0.44881  Biso   1.000  C
  N26      1.0000 0.78888  0.70106  0.48280  Biso   1.000  N
  H182     1.0000 0.80629  0.77109  0.52639  Biso   1.000  H
  H183     1.0000 0.78591  0.65509  0.57491  Biso   1.000  H
  H184     1.0000 0.84700  0.68319  0.56831  Biso   1.000  H
  C149     1.0000 0.66018  0.82065  0.39974  Biso   1.000  C
  H185     1.0000 0.65179  0.75338  0.45519  Biso   1.000  H
  C150     1.0000 0.82704  0.71371  0.44881  Biso   1.000  C
  C151     1.0000 0.61441  0.80737  0.36688  Biso   1.000  C
  C152     1.0000 0.69258  0.86688  0.38559  Biso   1.000  C
  H186     1.0000 0.84821  0.74658  0.45519  Biso   1.000  H
  C153     1.0000 0.83982  0.67931  0.39974  Biso   1.000  C
  C154     1.0000 0.60022  0.83982  0.32065  Biso   1.000  C
  H187     1.0000 0.59241  0.77568  0.37598  Biso   1.000  H
  C155     1.0000 0.67931  0.89974  0.33982  Biso   1.000  C
  H188     1.0000 0.72428  0.87598  0.40759  Biso   1.000  H
  C156     1.0000 0.80737  0.63308  0.38559  Biso   1.000  C
  C157     1.0000 0.88559  0.69258  0.36688  Biso   1.000  C
  C158     1.0000 0.55115  0.82704  0.28629  Biso   1.000  C
  C159     1.0000 0.63308  0.88559  0.30737  Biso   1.000  C
  C160     1.0000 0.71371  0.94881  0.32704  Biso   1.000  C
  C161     1.0000 0.82065  0.60022  0.33982  Biso   1.000  C
  H189     1.0000 0.77568  0.62398  0.40759  Biso   1.000  H
  C162     1.0000 0.89974  0.66018  0.32065  Biso   1.000  C
  H190     1.0000 0.90759  0.72428  0.37598  Biso   1.000  H
  N27      1.0000 0.51716  0.78888  0.29894  Biso   1.000  N
  H191     1.0000 0.54481  0.84821  0.25338  Biso   1.000  H
  H192     1.0000 0.62398  0.90759  0.27568  Biso   1.000  H
  N28      1.0000 0.70106  0.98280  0.28892  Biso   1.000  N
  H193     1.0000 0.74658  0.95519  0.34821  Biso   1.000  H
  C163     1.0000 0.78629  0.55115  0.32704  Biso   1.000  C
  C164     1.0000 0.86688  0.61441  0.30737  Biso   1.000  C
  C165     1.0000 0.94881  0.67296  0.28629  Biso   1.000  C
  C166     1.0000 0.47069  0.77973  0.26098  Biso   1.000  C
  C167     1.0000 0.73898  0.02931  0.27973  Biso   1.000  C
  N29      1.0000 0.79894  0.51716  0.28892  Biso   1.000  N
  H194     1.0000 0.75338  0.54481  0.34821  Biso   1.000  H
  H195     1.0000 0.87598  0.59241  0.27568  Biso   1.000  H
  N30      1.0000 0.98280  0.71108  0.29894  Biso   1.000  N
  H196     1.0000 0.95519  0.65179  0.25338  Biso   1.000  H
  C168     1.0000 0.47069  0.72023  0.23902  Biso   1.000  C
  C169     1.0000 0.41277  0.78382  0.28625  Biso   1.000  C
  C170     1.0000 0.42459  0.80700  0.30938  Biso   1.000  C
  H197     1.0000 0.47361  0.80629  0.22891  Biso   1.000  H
  C171     1.0000 0.76098  0.02931  0.22027  Biso   1.000  C
  H198     1.0000 0.77109  0.02639  0.30629  Biso   1.000  H
  C172     1.0000 0.71375  0.08723  0.28387  Biso   1.000  C
  C173     1.0000 0.69058  0.07541  0.30700  Biso   1.000  C
  C174     1.0000 0.76098  0.47069  0.27973  Biso   1.000  C
  C175     1.0000 0.02931  0.72023  0.26098  Biso   1.000  C
  C176     1.0000 0.41277  0.71613  0.21375  Biso   1.000  C
  C177     1.0000 0.42459  0.69300  0.19058  Biso   1.000  C
  N31      1.0000 0.51716  0.71108  0.20106  Biso   1.000  N
  H199     1.0000 0.47361  0.69371  0.27109  Biso   1.000  H
  C178     1.0000 0.36917  0.75000  0.25000  Biso   1.000  C
  C179     1.0000 0.36959  0.79781  0.27639  Biso   1.000  C
  H200     1.0000 0.40129  0.82349  0.28821  Biso   1.000  H
  H201     1.0000 0.41340  0.76879  0.32470  Biso   1.000  H
  H202     1.0000 0.42509  0.78591  0.34491  Biso   1.000  H
  H203     1.0000 0.43169  0.84700  0.31681  Biso   1.000  H
  N32      1.0000 0.79894  0.98280  0.21108  Biso   1.000  N
  H204     1.0000 0.72891  0.02639  0.19371  Biso   1.000  H
  C180     1.0000 0.78625  0.08723  0.21613  Biso   1.000  C
  C181     1.0000 0.80938  0.07541  0.19300  Biso   1.000  C
  H205     1.0000 0.71179  0.09871  0.32349  Biso   1.000  H
  H206     1.0000 0.67530  0.08660  0.26879  Biso   1.000  H
  C182     1.0000 0.75000  0.13083  0.25000  Biso   1.000  C
  C183     1.0000 0.72361  0.13041  0.29781  Biso   1.000  C
  H207     1.0000 0.65509  0.07491  0.28591  Biso   1.000  H
  H208     1.0000 0.68319  0.06831  0.34700  Biso   1.000  H
  C184     1.0000 0.73898  0.47069  0.22027  Biso   1.000  C
  H209     1.0000 0.72891  0.47361  0.30629  Biso   1.000  H
  C185     1.0000 0.78625  0.41277  0.28387  Biso   1.000  C
  C186     1.0000 0.80938  0.42459  0.30700  Biso   1.000  C
  C187     1.0000 0.02931  0.77973  0.23902  Biso   1.000  C
  H210     1.0000 0.02639  0.69371  0.22891  Biso   1.000  H
  C188     1.0000 0.08723  0.71613  0.28625  Biso   1.000  C
  C189     1.0000 0.07541  0.69300  0.30938  Biso   1.000  C
  C190     1.0000 0.36959  0.70219  0.22361  Biso   1.000  C
  H211     1.0000 0.40129  0.67651  0.21179  Biso   1.000  H
  H212     1.0000 0.41340  0.73121  0.17530  Biso   1.000  H
  H213     1.0000 0.42509  0.71409  0.15509  Biso   1.000  H
  H214     1.0000 0.43169  0.65300  0.18319  Biso   1.000  H
  C191     1.0000 0.55115  0.67296  0.21371  Biso   1.000  C
  H215     1.0000 0.34542  0.77468  0.22691  Biso   1.000  H
  H216     1.0000 0.34542  0.72528  0.27309  Biso   1.000  H
  H217     1.0000 0.33769  0.79898  0.30270  Biso   1.000  H
  H218     1.0000 0.36479  0.82850  0.24908  Biso   1.000  H
  C192     1.0000 0.78629  0.94881  0.17296  Biso   1.000  C
  H219     1.0000 0.78821  0.09871  0.17651  Biso   1.000  H
  H220     1.0000 0.82470  0.08660  0.23121  Biso   1.000  H
  C193     1.0000 0.77639  0.13041  0.20219  Biso   1.000  C
  H221     1.0000 0.84487  0.07491  0.21409  Biso   1.000  H
  H222     1.0000 0.81681  0.06831  0.15300  Biso   1.000  H
  H223     1.0000 0.72691  0.15458  0.22528  Biso   1.000  H
  H224     1.0000 0.77309  0.15458  0.27468  Biso   1.000  H
  H225     1.0000 0.69730  0.16231  0.29898  Biso   1.000  H
  H226     1.0000 0.75088  0.13521  0.32850  Biso   1.000  H
  N33      1.0000 0.70106  0.51716  0.21108  Biso   1.000  N
  H227     1.0000 0.77109  0.47361  0.19371  Biso   1.000  H
  C194     1.0000 0.71375  0.41277  0.21613  Biso   1.000  C
  C195     1.0000 0.69058  0.42459  0.19300  Biso   1.000  C
  C196     1.0000 0.75000  0.36917  0.25000  Biso   1.000  C
  H228     1.0000 0.78821  0.40129  0.32349  Biso   1.000  H
  H229     1.0000 0.82470  0.41340  0.26879  Biso   1.000  H
  C197     1.0000 0.77639  0.36959  0.29781  Biso   1.000  C
  H230     1.0000 0.84487  0.42509  0.28591  Biso   1.000  H
  H231     1.0000 0.81681  0.43169  0.34700  Biso   1.000  H
  N34      1.0000 0.98280  0.78888  0.20106  Biso   1.000  N
  H232     1.0000 0.02639  0.80629  0.27109  Biso   1.000  H
  C198     1.0000 0.08723  0.78382  0.21375  Biso   1.000  C
  C199     1.0000 0.07541  0.80700  0.19058  Biso   1.000  C
  H233     1.0000 0.09871  0.67651  0.28821  Biso   1.000  H
  H234     1.0000 0.08660  0.73121  0.32470  Biso   1.000  H
  C200     1.0000 0.13083  0.75000  0.25000  Biso   1.000  C
  C201     1.0000 0.13041  0.70219  0.27639  Biso   1.000  C
  H235     1.0000 0.07491  0.71409  0.34491  Biso   1.000  H
  H236     1.0000 0.06831  0.65300  0.31681  Biso   1.000  H
  H237     1.0000 0.33769  0.70098  0.19730  Biso   1.000  H
  H238     1.0000 0.36479  0.67150  0.25092  Biso   1.000  H
  H239     1.0000 0.54481  0.65179  0.24662  Biso   1.000  H
  C202     1.0000 0.60022  0.66018  0.17935  Biso   1.000  C
  H240     1.0000 0.75338  0.95519  0.15179  Biso   1.000  H
  C203     1.0000 0.82065  0.89974  0.16018  Biso   1.000  C
  H241     1.0000 0.80270  0.16231  0.20102  Biso   1.000  H
  H242     1.0000 0.74908  0.13521  0.17150  Biso   1.000  H
  C204     1.0000 0.71371  0.55115  0.17296  Biso   1.000  C
  H243     1.0000 0.71179  0.40129  0.17651  Biso   1.000  H
  H244     1.0000 0.67530  0.41340  0.23121  Biso   1.000  H
  C205     1.0000 0.72361  0.36959  0.20219  Biso   1.000  C
  H245     1.0000 0.65509  0.42509  0.21409  Biso   1.000  H
  H246     1.0000 0.68319  0.43169  0.15300  Biso   1.000  H
  H247     1.0000 0.72691  0.34542  0.27468  Biso   1.000  H
  H248     1.0000 0.77309  0.34542  0.22528  Biso   1.000  H
  H249     1.0000 0.80270  0.33769  0.29898  Biso   1.000  H
  H250     1.0000 0.74908  0.36479  0.32850  Biso   1.000  H
  C206     1.0000 0.94881  0.82704  0.21371  Biso   1.000  C
  H251     1.0000 0.09871  0.82349  0.21179  Biso   1.000  H
  H252     1.0000 0.08660  0.76879  0.17530  Biso   1.000  H
  C207     1.0000 0.13041  0.79781  0.22361  Biso   1.000  C
  H253     1.0000 0.07491  0.78591  0.15509  Biso   1.000  H
  H254     1.0000 0.06831  0.84700  0.18319  Biso   1.000  H
  H255     1.0000 0.15458  0.77468  0.27309  Biso   1.000  H
  H256     1.0000 0.15458  0.72528  0.22691  Biso   1.000  H
  H257     1.0000 0.16231  0.70098  0.30270  Biso   1.000  H
  H258     1.0000 0.13521  0.67150  0.24908  Biso   1.000  H
  C208     1.0000 0.63308  0.61441  0.19263  Biso   1.000  C
  C209     1.0000 0.61441  0.69258  0.13308  Biso   1.000  C
  C210     1.0000 0.80737  0.86688  0.11441  Biso   1.000  C
  C211     1.0000 0.86688  0.88559  0.19263  Biso   1.000  C
  C212     1.0000 0.67931  0.60022  0.16018  Biso   1.000  C
  H259     1.0000 0.74658  0.54481  0.15179  Biso   1.000  H
  H260     1.0000 0.69730  0.33769  0.20102  Biso   1.000  H
  H261     1.0000 0.75088  0.36479  0.17150  Biso   1.000  H
  C213     1.0000 0.89974  0.83982  0.17935  Biso   1.000  C
  H262     1.0000 0.95519  0.84821  0.24662  Biso   1.000  H
  H263     1.0000 0.16231  0.79898  0.19730  Biso   1.000  H
  H264     1.0000 0.13521  0.82850  0.25092  Biso   1.000  H
  H265     1.0000 0.62398  0.59241  0.22428  Biso   1.000  H
  C214     1.0000 0.66018  0.67931  0.10026  Biso   1.000  C
  H266     1.0000 0.59241  0.72428  0.12402  Biso   1.000  H
  C215     1.0000 0.83982  0.82065  0.10026  Biso   1.000  C
  H267     1.0000 0.77568  0.87598  0.09241  Biso   1.000  H
  H268     1.0000 0.87598  0.90759  0.22428  Biso   1.000  H
  C216     1.0000 0.69258  0.63308  0.11441  Biso   1.000  C
  C217     1.0000 0.88559  0.80737  0.13308  Biso   1.000  C
  C218     1.0000 0.67296  0.71371  0.05115  Biso   1.000  C
  C219     1.0000 0.82704  0.78629  0.05115  Biso   1.000  C
  H269     1.0000 0.72428  0.62398  0.09241  Biso   1.000  H
  H270     1.0000 0.90759  0.77568  0.12402  Biso   1.000  H
  N35      1.0000 0.71108  0.70106  0.01716  Biso   1.000  N
  H271     1.0000 0.65179  0.74658  0.04481  Biso   1.000  H
  N36      1.0000 0.78888  0.79894  0.01716  Biso   1.000  N
  H272     1.0000 0.84821  0.75338  0.04481  Biso   1.000  H
  C220     1.0000 0.72023  0.73898  0.97064  Biso   1.000  C
  C221     1.0000 0.77973  0.76098  0.97064  Biso   1.000  C
  H273     1.0000 0.69371  0.77109  0.97361  Biso   1.000  H
  C222     1.0000 0.71613  0.71375  0.91277  Biso   1.000  C
  C223     1.0000 0.69300  0.69058  0.92459  Biso   1.000  C
  H274     1.0000 0.80629  0.72891  0.97361  Biso   1.000  H
  C224     1.0000 0.78382  0.78625  0.91277  Biso   1.000  C
  C225     1.0000 0.80700  0.80938  0.92459  Biso   1.000  C
  H275     1.0000 0.67651  0.71179  0.90129  Biso   1.000  H
  H276     1.0000 0.73121  0.67530  0.91340  Biso   1.000  H
  C226     1.0000 0.75000  0.75000  0.86917  Biso   1.000  C
  C227     1.0000 0.70219  0.72361  0.86959  Biso   1.000  C
  H277     1.0000 0.71409  0.65509  0.92509  Biso   1.000  H
  H278     1.0000 0.65300  0.68319  0.93169  Biso   1.000  H
  H279     1.0000 0.82349  0.78821  0.90129  Biso   1.000  H
  H280     1.0000 0.76879  0.82470  0.91340  Biso   1.000  H
  C228     1.0000 0.79781  0.77639  0.86959  Biso   1.000  C
  H281     1.0000 0.78591  0.84487  0.92509  Biso   1.000  H
  H282     1.0000 0.84700  0.81681  0.93169  Biso   1.000  H
  H283     1.0000 0.77468  0.72691  0.84537  Biso   1.000  H
  H284     1.0000 0.72528  0.77309  0.84537  Biso   1.000  H
  H285     1.0000 0.70098  0.69730  0.83769  Biso   1.000  H
  H286     1.0000 0.67150  0.75088  0.86479  Biso   1.000  H
  H287     1.0000 0.79898  0.80270  0.83769  Biso   1.000  H
  H288     1.0000 0.82850  0.74908  0.86479  Biso   1.000  H
  C229     1.0000 0.63041  0.70219  0.77639  Biso   1.000  C
  C230     1.0000 0.58723  0.71613  0.78625  Biso   1.000  C
  C231     1.0000 0.57541  0.69300  0.80938  Biso   1.000  C
  H289     1.0000 0.59871  0.67651  0.78821  Biso   1.000  H
  C232     1.0000 0.63083  0.75000  0.75000  Biso   1.000  C
  H290     1.0000 0.66231  0.70098  0.80270  Biso   1.000  H
  H291     1.0000 0.63521  0.67150  0.74908  Biso   1.000  H
  C233     1.0000 0.52931  0.72023  0.76098  Biso   1.000  C
  H292     1.0000 0.58660  0.73121  0.82470  Biso   1.000  H
  H293     1.0000 0.57491  0.71409  0.84487  Biso   1.000  H
  H294     1.0000 0.56831  0.65300  0.81681  Biso   1.000  H
  C234     1.0000 0.58723  0.78382  0.71375  Biso   1.000  C
  C235     1.0000 0.63041  0.79781  0.72361  Biso   1.000  C
  H295     1.0000 0.65458  0.77468  0.77309  Biso   1.000  H
  H296     1.0000 0.65458  0.72528  0.72691  Biso   1.000  H
  N37      1.0000 0.48280  0.71108  0.79894  Biso   1.000  N
  C236     1.0000 0.52931  0.77973  0.73898  Biso   1.000  C
  H297     1.0000 0.52639  0.69371  0.72891  Biso   1.000  H
  H298     1.0000 0.59871  0.82349  0.71179  Biso   1.000  H
  H299     1.0000 0.58660  0.76879  0.67530  Biso   1.000  H
  C237     1.0000 0.57541  0.80700  0.69058  Biso   1.000  C
  H300     1.0000 0.66231  0.79898  0.69730  Biso   1.000  H
  H301     1.0000 0.63521  0.82850  0.75088  Biso   1.000  H
  C238     1.0000 0.44881  0.67296  0.78629  Biso   1.000  C
  N38      1.0000 0.48280  0.78888  0.70106  Biso   1.000  N
  H302     1.0000 0.52639  0.80629  0.77109  Biso   1.000  H
  H303     1.0000 0.57491  0.78591  0.65509  Biso   1.000  H
  H304     1.0000 0.56831  0.84700  0.68319  Biso   1.000  H
  C239     1.0000 0.39974  0.66018  0.82065  Biso   1.000  C
  H305     1.0000 0.45519  0.65179  0.75338  Biso   1.000  H
  C240     1.0000 0.44881  0.82704  0.71371  Biso   1.000  C
  C241     1.0000 0.36688  0.61441  0.80737  Biso   1.000  C
  C242     1.0000 0.38559  0.69258  0.86688  Biso   1.000  C
  H306     1.0000 0.45519  0.84821  0.74658  Biso   1.000  H
  C243     1.0000 0.39974  0.83982  0.67931  Biso   1.000  C
  C244     1.0000 0.32065  0.60022  0.83982  Biso   1.000  C
  H307     1.0000 0.37598  0.59241  0.77568  Biso   1.000  H
  C245     1.0000 0.33982  0.67931  0.89974  Biso   1.000  C
  H308     1.0000 0.40759  0.72428  0.87598  Biso   1.000  H
  C246     1.0000 0.38559  0.80737  0.63308  Biso   1.000  C
  C247     1.0000 0.36688  0.88559  0.69258  Biso   1.000  C
  C248     1.0000 0.28629  0.55115  0.82704  Biso   1.000  C
  C249     1.0000 0.30737  0.63308  0.88559  Biso   1.000  C
  C250     1.0000 0.32704  0.71371  0.94881  Biso   1.000  C
  C251     1.0000 0.33982  0.82065  0.60022  Biso   1.000  C
  H309     1.0000 0.40759  0.77568  0.62398  Biso   1.000  H
  C252     1.0000 0.32065  0.89974  0.66018  Biso   1.000  C
  H310     1.0000 0.37598  0.90759  0.72428  Biso   1.000  H
  N39      1.0000 0.29894  0.51716  0.78888  Biso   1.000  N
  H311     1.0000 0.25338  0.54481  0.84821  Biso   1.000  H
  H312     1.0000 0.27568  0.62398  0.90759  Biso   1.000  H
  N40      1.0000 0.28892  0.70106  0.98280  Biso   1.000  N
  H313     1.0000 0.34821  0.74658  0.95519  Biso   1.000  H
  C253     1.0000 0.32704  0.78629  0.55115  Biso   1.000  C
  C254     1.0000 0.30737  0.86688  0.61441  Biso   1.000  C
  C255     1.0000 0.28629  0.94881  0.67296  Biso   1.000  C
  C256     1.0000 0.26098  0.47069  0.77973  Biso   1.000  C
  C257     1.0000 0.27973  0.73898  0.02931  Biso   1.000  C
  N41      1.0000 0.28892  0.79894  0.51716  Biso   1.000  N
  H314     1.0000 0.34821  0.75338  0.54481  Biso   1.000  H
  H315     1.0000 0.27568  0.87598  0.59241  Biso   1.000  H
  N42      1.0000 0.29894  0.98280  0.71108  Biso   1.000  N
  H316     1.0000 0.25338  0.95519  0.65179  Biso   1.000  H
  C258     1.0000 0.23902  0.47069  0.72023  Biso   1.000  C
  C259     1.0000 0.28625  0.41277  0.78382  Biso   1.000  C
  C260     1.0000 0.30938  0.42459  0.80700  Biso   1.000  C
  H317     1.0000 0.22891  0.47361  0.80629  Biso   1.000  H
  C261     1.0000 0.22027  0.76098  0.02931  Biso   1.000  C
  H318     1.0000 0.30629  0.77109  0.02639  Biso   1.000  H
  C262     1.0000 0.28387  0.71375  0.08723  Biso   1.000  C
  C263     1.0000 0.30700  0.69058  0.07541  Biso   1.000  C
  C264     1.0000 0.27973  0.76098  0.47069  Biso   1.000  C
  C265     1.0000 0.26098  0.02931  0.72023  Biso   1.000  C
  C266     1.0000 0.21375  0.41277  0.71613  Biso   1.000  C
  C267     1.0000 0.19058  0.42459  0.69300  Biso   1.000  C
  N43      1.0000 0.20106  0.51716  0.71108  Biso   1.000  N
  H319     1.0000 0.27109  0.47361  0.69371  Biso   1.000  H
  C268     1.0000 0.25000  0.36917  0.75000  Biso   1.000  C
  C269     1.0000 0.27639  0.36959  0.79781  Biso   1.000  C
  H320     1.0000 0.28821  0.40129  0.82349  Biso   1.000  H
  H321     1.0000 0.32470  0.41340  0.76879  Biso   1.000  H
  H322     1.0000 0.34491  0.42509  0.78591  Biso   1.000  H
  H323     1.0000 0.31681  0.43169  0.84700  Biso   1.000  H
  N44      1.0000 0.21108  0.79894  0.98280  Biso   1.000  N
  H324     1.0000 0.19371  0.72891  0.02639  Biso   1.000  H
  C270     1.0000 0.21613  0.78625  0.08723  Biso   1.000  C
  C271     1.0000 0.19300  0.80938  0.07541  Biso   1.000  C
  H325     1.0000 0.32349  0.71179  0.09871  Biso   1.000  H
  H326     1.0000 0.26879  0.67530  0.08660  Biso   1.000  H
  C272     1.0000 0.25000  0.75000  0.13083  Biso   1.000  C
  C273     1.0000 0.29781  0.72361  0.13041  Biso   1.000  C
  H327     1.0000 0.28591  0.65509  0.07491  Biso   1.000  H
  H328     1.0000 0.34700  0.68319  0.06831  Biso   1.000  H
  C274     1.0000 0.22027  0.73898  0.47069  Biso   1.000  C
  H329     1.0000 0.30629  0.72891  0.47361  Biso   1.000  H
  C275     1.0000 0.28387  0.78625  0.41277  Biso   1.000  C
  C276     1.0000 0.30700  0.80938  0.42459  Biso   1.000  C
  C277     1.0000 0.23902  0.02931  0.77973  Biso   1.000  C
  H330     1.0000 0.22891  0.02639  0.69371  Biso   1.000  H
  C278     1.0000 0.28625  0.08723  0.71613  Biso   1.000  C
  C279     1.0000 0.30938  0.07541  0.69300  Biso   1.000  C
  C280     1.0000 0.22361  0.36959  0.70219  Biso   1.000  C
  H331     1.0000 0.21179  0.40129  0.67651  Biso   1.000  H
  H332     1.0000 0.17530  0.41340  0.73121  Biso   1.000  H
  H333     1.0000 0.15509  0.42509  0.71409  Biso   1.000  H
  H334     1.0000 0.18319  0.43169  0.65300  Biso   1.000  H
  C281     1.0000 0.21371  0.55115  0.67296  Biso   1.000  C
  H335     1.0000 0.27309  0.34542  0.72528  Biso   1.000  H
  H336     1.0000 0.22691  0.34542  0.77468  Biso   1.000  H
  H337     1.0000 0.30270  0.33769  0.79898  Biso   1.000  H
  H338     1.0000 0.24908  0.36479  0.82850  Biso   1.000  H
  C282     1.0000 0.17296  0.78629  0.94881  Biso   1.000  C
  H339     1.0000 0.17651  0.78821  0.09871  Biso   1.000  H
  H340     1.0000 0.23121  0.82470  0.08660  Biso   1.000  H
  C283     1.0000 0.20219  0.77639  0.13041  Biso   1.000  C
  H341     1.0000 0.21409  0.84487  0.07491  Biso   1.000  H
  H342     1.0000 0.15300  0.81681  0.06831  Biso   1.000  H
  H343     1.0000 0.22528  0.72691  0.15458  Biso   1.000  H
  H344     1.0000 0.27468  0.77309  0.15458  Biso   1.000  H
  H345     1.0000 0.29898  0.69730  0.16231  Biso   1.000  H
  H346     1.0000 0.32850  0.75088  0.13521  Biso   1.000  H
  N45      1.0000 0.21108  0.70106  0.51716  Biso   1.000  N
  H347     1.0000 0.19371  0.77109  0.47361  Biso   1.000  H
  C284     1.0000 0.21613  0.71375  0.41277  Biso   1.000  C
  C285     1.0000 0.19300  0.69058  0.42459  Biso   1.000  C
  C286     1.0000 0.25000  0.75000  0.36917  Biso   1.000  C
  H348     1.0000 0.32349  0.78821  0.40129  Biso   1.000  H
  H349     1.0000 0.26879  0.82470  0.41340  Biso   1.000  H
  C287     1.0000 0.29781  0.77639  0.36959  Biso   1.000  C
  H350     1.0000 0.28591  0.84487  0.42509  Biso   1.000  H
  H351     1.0000 0.34700  0.81681  0.43169  Biso   1.000  H
  N46      1.0000 0.20106  0.98280  0.78888  Biso   1.000  N
  H352     1.0000 0.27109  0.02639  0.80629  Biso   1.000  H
  C288     1.0000 0.21375  0.08723  0.78382  Biso   1.000  C
  C289     1.0000 0.19058  0.07541  0.80700  Biso   1.000  C
  C290     1.0000 0.25000  0.13083  0.75000  Biso   1.000  C
  H353     1.0000 0.28821  0.09871  0.67651  Biso   1.000  H
  H354     1.0000 0.32470  0.08660  0.73121  Biso   1.000  H
  C291     1.0000 0.27639  0.13041  0.70219  Biso   1.000  C
  H355     1.0000 0.34491  0.07491  0.71409  Biso   1.000  H
  H356     1.0000 0.31681  0.06831  0.65300  Biso   1.000  H
  H357     1.0000 0.19730  0.33769  0.70098  Biso   1.000  H
  H358     1.0000 0.25092  0.36479  0.67150  Biso   1.000  H
  H359     1.0000 0.24662  0.54481  0.65179  Biso   1.000  H
  C292     1.0000 0.17935  0.60022  0.66018  Biso   1.000  C
  H360     1.0000 0.15179  0.75338  0.95519  Biso   1.000  H
  C293     1.0000 0.16018  0.82065  0.89974  Biso   1.000  C
  H361     1.0000 0.20102  0.80270  0.16231  Biso   1.000  H
  H362     1.0000 0.17150  0.74908  0.13521  Biso   1.000  H
  C294     1.0000 0.17296  0.71371  0.55115  Biso   1.000  C
  H363     1.0000 0.17651  0.71179  0.40129  Biso   1.000  H
  H364     1.0000 0.23121  0.67530  0.41340  Biso   1.000  H
  C295     1.0000 0.20219  0.72361  0.36959  Biso   1.000  C
  H365     1.0000 0.21409  0.65509  0.42509  Biso   1.000  H
  H366     1.0000 0.15300  0.68319  0.43169  Biso   1.000  H
  H367     1.0000 0.22528  0.77309  0.34542  Biso   1.000  H
  H368     1.0000 0.27468  0.72691  0.34542  Biso   1.000  H
  H369     1.0000 0.29898  0.80270  0.33769  Biso   1.000  H
  H370     1.0000 0.32850  0.74908  0.36479  Biso   1.000  H
  C296     1.0000 0.21371  0.94881  0.82704  Biso   1.000  C
  H371     1.0000 0.21179  0.09871  0.82349  Biso   1.000  H
  H372     1.0000 0.17530  0.08660  0.76879  Biso   1.000  H
  C297     1.0000 0.22361  0.13041  0.79781  Biso   1.000  C
  H373     1.0000 0.15509  0.07491  0.78591  Biso   1.000  H
  H374     1.0000 0.18319  0.06831  0.84700  Biso   1.000  H
  H375     1.0000 0.27309  0.15458  0.77468  Biso   1.000  H
  H376     1.0000 0.22691  0.15458  0.72528  Biso   1.000  H
  H377     1.0000 0.30270  0.16231  0.70098  Biso   1.000  H
  H378     1.0000 0.24908  0.13521  0.67150  Biso   1.000  H
  C298     1.0000 0.13308  0.61441  0.69258  Biso   1.000  C
  C299     1.0000 0.19263  0.63308  0.61441  Biso   1.000  C
  C300     1.0000 0.11441  0.80737  0.86688  Biso   1.000  C
  C301     1.0000 0.19263  0.86688  0.88559  Biso   1.000  C
  C302     1.0000 0.16018  0.67931  0.60022  Biso   1.000  C
  H379     1.0000 0.15179  0.74658  0.54481  Biso   1.000  H
  H380     1.0000 0.20102  0.69730  0.33769  Biso   1.000  H
  H381     1.0000 0.17150  0.75088  0.36479  Biso   1.000  H
  C303     1.0000 0.17935  0.89974  0.83982  Biso   1.000  C
  H382     1.0000 0.24662  0.95519  0.84821  Biso   1.000  H
  H383     1.0000 0.19730  0.16231  0.79898  Biso   1.000  H
  H384     1.0000 0.25092  0.13521  0.82850  Biso   1.000  H
  C304     1.0000 0.10026  0.66018  0.67931  Biso   1.000  C
  H385     1.0000 0.12402  0.59241  0.72428  Biso   1.000  H
  H386     1.0000 0.22428  0.62398  0.59241  Biso   1.000  H
  C305     1.0000 0.10026  0.83982  0.82065  Biso   1.000  C
  H387     1.0000 0.09241  0.77568  0.87598  Biso   1.000  H
  H388     1.0000 0.22428  0.87598  0.90759  Biso   1.000  H
  C306     1.0000 0.11441  0.69258  0.63308  Biso   1.000  C
  C307     1.0000 0.13308  0.88559  0.80737  Biso   1.000  C
  C308     1.0000 0.05115  0.67296  0.71371  Biso   1.000  C
  C309     1.0000 0.05115  0.82704  0.78629  Biso   1.000  C
  H389     1.0000 0.09241  0.72428  0.62398  Biso   1.000  H
  H390     1.0000 0.12402  0.90759  0.77568  Biso   1.000  H
  N47      1.0000 0.01716  0.71108  0.70106  Biso   1.000  N
  H391     1.0000 0.04481  0.65179  0.74658  Biso   1.000  H
  N48      1.0000 0.01716  0.78888  0.79894  Biso   1.000  N
  H392     1.0000 0.04481  0.84821  0.75338  Biso   1.000  H
  C310     1.0000 0.97064  0.72023  0.73898  Biso   1.000  C
  C311     1.0000 0.97064  0.77973  0.76098  Biso   1.000  C
  H393     1.0000 0.97361  0.69371  0.77109  Biso   1.000  H
  C312     1.0000 0.91277  0.71613  0.71375  Biso   1.000  C
  C313     1.0000 0.92459  0.69300  0.69058  Biso   1.000  C
  H394     1.0000 0.97361  0.80629  0.72891  Biso   1.000  H
  C314     1.0000 0.91277  0.78382  0.78625  Biso   1.000  C
  C315     1.0000 0.92459  0.80700  0.80938  Biso   1.000  C
  H395     1.0000 0.90129  0.67651  0.71179  Biso   1.000  H
  H396     1.0000 0.91340  0.73121  0.67530  Biso   1.000  H
  C316     1.0000 0.86917  0.75000  0.75000  Biso   1.000  C
  C317     1.0000 0.86959  0.70219  0.72361  Biso   1.000  C
  H397     1.0000 0.92509  0.71409  0.65509  Biso   1.000  H
  H398     1.0000 0.93169  0.65300  0.68319  Biso   1.000  H
  H399     1.0000 0.90129  0.82349  0.78821  Biso   1.000  H
  H400     1.0000 0.91340  0.76879  0.82470  Biso   1.000  H
  C318     1.0000 0.86959  0.79781  0.77639  Biso   1.000  C
  H401     1.0000 0.92509  0.78591  0.84487  Biso   1.000  H
  H402     1.0000 0.93169  0.84700  0.81681  Biso   1.000  H
  H403     1.0000 0.84537  0.77468  0.72691  Biso   1.000  H
  H404     1.0000 0.84537  0.72528  0.77309  Biso   1.000  H
  H405     1.0000 0.83769  0.70098  0.69730  Biso   1.000  H
  H406     1.0000 0.86479  0.67150  0.75088  Biso   1.000  H
  H407     1.0000 0.83769  0.79898  0.80270  Biso   1.000  H
  H408     1.0000 0.86479  0.82850  0.74908  Biso   1.000  H
  C319     1.0000 0.92492  0.53762  0.80078  Biso   1.000  C
  N49      1.0000 0.96413  0.54961  0.76766  Biso   1.000  N
  H409     1.0000 0.90279  0.50560  0.79288  Biso   1.000  H
  C320     1.0000 0.91160  0.57061  0.85084  Biso   1.000  C
  C321     1.0000 0.97115  0.51320  0.71893  Biso   1.000  C
  C322     1.0000 0.94342  0.61709  0.86583  Biso   1.000  C
  C323     1.0000 0.86583  0.55658  0.88287  Biso   1.000  C
  H410     1.0000 0.96609  0.53528  0.68427  Biso   1.000  H
  H411     1.0000 0.94238  0.48351  0.71960  Biso   1.000  H
  C324     1.0000 0.02885  0.48680  0.71893  Biso   1.000  C
  C325     1.0000 0.92939  0.64916  0.91160  Biso   1.000  C
  H412     1.0000 0.97520  0.62677  0.84420  Biso   1.000  H
  C326     1.0000 0.85084  0.58840  0.92939  Biso   1.000  C
  H413     1.0000 0.84420  0.52480  0.87318  Biso   1.000  H
  N50      1.0000 0.03587  0.45039  0.76766  Biso   1.000  N
  H414     1.0000 0.03391  0.46472  0.68427  Biso   1.000  H
  H415     1.0000 0.05758  0.51649  0.71960  Biso   1.000  H
  C327     1.0000 0.96234  0.69922  0.92492  Biso   1.000  C
  C328     1.0000 0.88287  0.63417  0.94342  Biso   1.000  C
  C329     1.0000 0.80078  0.57508  0.96234  Biso   1.000  C
  C330     1.0000 0.07508  0.46238  0.80078  Biso   1.000  C
  N51      1.0000 0.95039  0.73234  0.96413  Biso   1.000  N
  H416     1.0000 0.99440  0.70707  0.90279  Biso   1.000  H
  H417     1.0000 0.87318  0.65580  0.97520  Biso   1.000  H
  N52      1.0000 0.76766  0.53583  0.95039  Biso   1.000  N
  H418     1.0000 0.79288  0.59721  0.99440  Biso   1.000  H
  H419     1.0000 0.09721  0.49440  0.79288  Biso   1.000  H
  C331     1.0000 0.08840  0.42939  0.85084  Biso   1.000  C
  C332     1.0000 0.98676  0.78107  0.97115  Biso   1.000  C
  C333     1.0000 0.71893  0.52885  0.98676  Biso   1.000  C
  C334     1.0000 0.05658  0.38287  0.86583  Biso   1.000  C
  C335     1.0000 0.13417  0.44342  0.88287  Biso   1.000  C
  H420     1.0000 0.96467  0.81568  0.96609  Biso   1.000  H
  H421     1.0000 0.01649  0.78040  0.94238  Biso   1.000  H
  C336     1.0000 0.01320  0.78107  0.02885  Biso   1.000  C
  H422     1.0000 0.68427  0.53391  0.96467  Biso   1.000  H
  C337     1.0000 0.71893  0.47115  0.01320  Biso   1.000  C
  H423     1.0000 0.71960  0.55758  0.01649  Biso   1.000  H
  C338     1.0000 0.07061  0.35084  0.91160  Biso   1.000  C
  H424     1.0000 0.02480  0.37318  0.84420  Biso   1.000  H
  C339     1.0000 0.14916  0.41160  0.92939  Biso   1.000  C
  H425     1.0000 0.15580  0.47520  0.87318  Biso   1.000  H
  H426     1.0000 0.98351  0.78040  0.05758  Biso   1.000  H
  N53      1.0000 0.04961  0.73234  0.03587  Biso   1.000  N
  H427     1.0000 0.03528  0.81568  0.03391  Biso   1.000  H
  H428     1.0000 0.71960  0.44242  0.98351  Biso   1.000  H
  N54      1.0000 0.76766  0.46413  0.04961  Biso   1.000  N
  H429     1.0000 0.68427  0.46609  0.03528  Biso   1.000  H
  C340     1.0000 0.03762  0.30078  0.92492  Biso   1.000  C
  C341     1.0000 0.11713  0.36583  0.94342  Biso   1.000  C
  C342     1.0000 0.19922  0.42492  0.96234  Biso   1.000  C
  C343     1.0000 0.03762  0.69922  0.07508  Biso   1.000  C
  C344     1.0000 0.80078  0.42492  0.03762  Biso   1.000  C
  N55      1.0000 0.04961  0.26766  0.96413  Biso   1.000  N
  H430     1.0000 0.00560  0.29288  0.90279  Biso   1.000  H
  H431     1.0000 0.12682  0.34420  0.97520  Biso   1.000  H
  N56      1.0000 0.23234  0.46413  0.95039  Biso   1.000  N
  H432     1.0000 0.20712  0.40279  0.99440  Biso   1.000  H
  H433     1.0000 0.00560  0.70707  0.09721  Biso   1.000  H
  C345     1.0000 0.07061  0.64916  0.08840  Biso   1.000  C
  H434     1.0000 0.79288  0.40279  0.00560  Biso   1.000  H
  C346     1.0000 0.85084  0.41160  0.07061  Biso   1.000  C
  C347     1.0000 0.01320  0.21893  0.97115  Biso   1.000  C
  C348     1.0000 0.28107  0.47115  0.98676  Biso   1.000  C
  C349     1.0000 0.05658  0.61709  0.13417  Biso   1.000  C
  C350     1.0000 0.11713  0.63417  0.05658  Biso   1.000  C
  C351     1.0000 0.86583  0.44342  0.11713  Biso   1.000  C
  C352     1.0000 0.88287  0.36583  0.05658  Biso   1.000  C
  H435     1.0000 0.98351  0.21960  0.94238  Biso   1.000  H
  C353     1.0000 0.98676  0.21893  0.02885  Biso   1.000  C
  H436     1.0000 0.03528  0.18432  0.96609  Biso   1.000  H
  H437     1.0000 0.31568  0.46609  0.96467  Biso   1.000  H
  C354     1.0000 0.28107  0.52885  0.01320  Biso   1.000  C
  H438     1.0000 0.28040  0.44242  0.01649  Biso   1.000  H
  C355     1.0000 0.08840  0.57061  0.14916  Biso   1.000  C
  H439     1.0000 0.02480  0.62677  0.15580  Biso   1.000  H
  C356     1.0000 0.14916  0.58840  0.07061  Biso   1.000  C
  H440     1.0000 0.12682  0.65580  0.02480  Biso   1.000  H
  C357     1.0000 0.91160  0.42939  0.14916  Biso   1.000  C
  H441     1.0000 0.84420  0.47520  0.12682  Biso   1.000  H
  C358     1.0000 0.92939  0.35084  0.08840  Biso   1.000  C
  H442     1.0000 0.87318  0.34420  0.02480  Biso   1.000  H
  N57      1.0000 0.95039  0.26766  0.03587  Biso   1.000  N
  H443     1.0000 0.96467  0.18432  0.03391  Biso   1.000  H
  H444     1.0000 0.01649  0.21960  0.05758  Biso   1.000  H
  H445     1.0000 0.28040  0.55758  0.98351  Biso   1.000  H
  N58      1.0000 0.23234  0.53583  0.04961  Biso   1.000  N
  H446     1.0000 0.31568  0.53391  0.03528  Biso   1.000  H
  C359     1.0000 0.13417  0.55658  0.11713  Biso   1.000  C
  C360     1.0000 0.07508  0.53762  0.19922  Biso   1.000  C
  C361     1.0000 0.19922  0.57508  0.03762  Biso   1.000  C
  C362     1.0000 0.94342  0.38287  0.13417  Biso   1.000  C
  C363     1.0000 0.92492  0.46238  0.19922  Biso   1.000  C
  C364     1.0000 0.96234  0.30078  0.07508  Biso   1.000  C
  H447     1.0000 0.15580  0.52480  0.12682  Biso   1.000  H
  N59      1.0000 0.03587  0.54961  0.23234  Biso   1.000  N
  H448     1.0000 0.09721  0.50560  0.20712  Biso   1.000  H
  H449     1.0000 0.20712  0.59721  0.00560  Biso   1.000  H
  H450     1.0000 0.97520  0.37318  0.15580  Biso   1.000  H
  N60      1.0000 0.96413  0.45039  0.23234  Biso   1.000  N
  H451     1.0000 0.90279  0.49440  0.20712  Biso   1.000  H
  H452     1.0000 0.99440  0.29288  0.09721  Biso   1.000  H
  C365     1.0000 0.02885  0.51320  0.28107  Biso   1.000  C
  C366     1.0000 0.97115  0.48680  0.28107  Biso   1.000  C
  H453     1.0000 0.03391  0.53528  0.31568  Biso   1.000  H
  H454     1.0000 0.05758  0.48351  0.28040  Biso   1.000  H
  H455     1.0000 0.96609  0.46472  0.31568  Biso   1.000  H
  H456     1.0000 0.94238  0.51649  0.28040  Biso   1.000  H
  C367     1.0000 0.80078  0.92492  0.53762  Biso   1.000  C
  N61      1.0000 0.76766  0.96413  0.54961  Biso   1.000  N
  H457     1.0000 0.79288  0.90279  0.50560  Biso   1.000  H
  C368     1.0000 0.85084  0.91160  0.57061  Biso   1.000  C
  C369     1.0000 0.71893  0.97115  0.51320  Biso   1.000  C
  C370     1.0000 0.86583  0.94342  0.61709  Biso   1.000  C
  C371     1.0000 0.88287  0.86583  0.55658  Biso   1.000  C
  H458     1.0000 0.68427  0.96609  0.53528  Biso   1.000  H
  H459     1.0000 0.71960  0.94238  0.48351  Biso   1.000  H
  C372     1.0000 0.71893  0.02885  0.48680  Biso   1.000  C
  C373     1.0000 0.91160  0.92939  0.64916  Biso   1.000  C
  H460     1.0000 0.84420  0.97520  0.62677  Biso   1.000  H
  C374     1.0000 0.92939  0.85084  0.58840  Biso   1.000  C
  H461     1.0000 0.87318  0.84420  0.52480  Biso   1.000  H
  N62      1.0000 0.76766  0.03587  0.45039  Biso   1.000  N
  H462     1.0000 0.68427  0.03391  0.46472  Biso   1.000  H
  H463     1.0000 0.71960  0.05758  0.51649  Biso   1.000  H
  C375     1.0000 0.92492  0.96234  0.69922  Biso   1.000  C
  C376     1.0000 0.94342  0.88287  0.63417  Biso   1.000  C
  C377     1.0000 0.96234  0.80078  0.57508  Biso   1.000  C
  C378     1.0000 0.80078  0.07508  0.46238  Biso   1.000  C
  N63      1.0000 0.96413  0.95039  0.73234  Biso   1.000  N
  H464     1.0000 0.90279  0.99440  0.70707  Biso   1.000  H
  H465     1.0000 0.97520  0.87318  0.65580  Biso   1.000  H
  N64      1.0000 0.95039  0.76766  0.53583  Biso   1.000  N
  H466     1.0000 0.99440  0.79288  0.59721  Biso   1.000  H
  H467     1.0000 0.79288  0.09721  0.49440  Biso   1.000  H
  C379     1.0000 0.85084  0.08840  0.42939  Biso   1.000  C
  C380     1.0000 0.97115  0.98676  0.78107  Biso   1.000  C
  C381     1.0000 0.98676  0.71893  0.52885  Biso   1.000  C
  C382     1.0000 0.86583  0.05658  0.38287  Biso   1.000  C
  C383     1.0000 0.88287  0.13417  0.44342  Biso   1.000  C
  H468     1.0000 0.96609  0.96467  0.81568  Biso   1.000  H
  H469     1.0000 0.94238  0.01649  0.78040  Biso   1.000  H
  C384     1.0000 0.02885  0.01320  0.78107  Biso   1.000  C
  H470     1.0000 0.96467  0.68427  0.53391  Biso   1.000  H
  C385     1.0000 0.01320  0.71893  0.47115  Biso   1.000  C
  H471     1.0000 0.01649  0.71960  0.55758  Biso   1.000  H
  C386     1.0000 0.91160  0.07061  0.35084  Biso   1.000  C
  H472     1.0000 0.84420  0.02480  0.37318  Biso   1.000  H
  C387     1.0000 0.92939  0.14916  0.41160  Biso   1.000  C
  H473     1.0000 0.87318  0.15580  0.47520  Biso   1.000  H
  H474     1.0000 0.05758  0.98351  0.78040  Biso   1.000  H
  N65      1.0000 0.03587  0.04961  0.73234  Biso   1.000  N
  H475     1.0000 0.03391  0.03528  0.81568  Biso   1.000  H
  H476     1.0000 0.98351  0.71960  0.44242  Biso   1.000  H
  N66      1.0000 0.04961  0.76766  0.46413  Biso   1.000  N
  H477     1.0000 0.03528  0.68427  0.46609  Biso   1.000  H
  C388     1.0000 0.92492  0.03762  0.30078  Biso   1.000  C
  C389     1.0000 0.94342  0.11713  0.36583  Biso   1.000  C
  C390     1.0000 0.96234  0.19922  0.42492  Biso   1.000  C
  C391     1.0000 0.07508  0.03762  0.69922  Biso   1.000  C
  C392     1.0000 0.03762  0.80078  0.42492  Biso   1.000  C
  N67      1.0000 0.96413  0.04961  0.26766  Biso   1.000  N
  H478     1.0000 0.90279  0.00560  0.29288  Biso   1.000  H
  H479     1.0000 0.97520  0.12682  0.34420  Biso   1.000  H
  N68      1.0000 0.95039  0.23234  0.46413  Biso   1.000  N
  H480     1.0000 0.99440  0.20712  0.40279  Biso   1.000  H
  H481     1.0000 0.09721  0.00560  0.70707  Biso   1.000  H
  C393     1.0000 0.08840  0.07061  0.64916  Biso   1.000  C
  H482     1.0000 0.00560  0.79288  0.40279  Biso   1.000  H
  C394     1.0000 0.07061  0.85084  0.41160  Biso   1.000  C
  C395     1.0000 0.97115  0.01320  0.21893  Biso   1.000  C
  C396     1.0000 0.98676  0.28107  0.47115  Biso   1.000  C
  C397     1.0000 0.13417  0.05658  0.61709  Biso   1.000  C
  C398     1.0000 0.05658  0.11713  0.63417  Biso   1.000  C
  C399     1.0000 0.05658  0.88287  0.36583  Biso   1.000  C
  C400     1.0000 0.11713  0.86583  0.44342  Biso   1.000  C
  H483     1.0000 0.94238  0.98351  0.21960  Biso   1.000  H
  H484     1.0000 0.96609  0.03528  0.18432  Biso   1.000  H
  C401     1.0000 0.02885  0.98676  0.21893  Biso   1.000  C
  H485     1.0000 0.96467  0.31568  0.46609  Biso   1.000  H
  C402     1.0000 0.01320  0.28107  0.52885  Biso   1.000  C
  H486     1.0000 0.01649  0.28040  0.44242  Biso   1.000  H
  C403     1.0000 0.14916  0.08840  0.57061  Biso   1.000  C
  H487     1.0000 0.15580  0.02480  0.62677  Biso   1.000  H
  C404     1.0000 0.07061  0.14916  0.58840  Biso   1.000  C
  H488     1.0000 0.02480  0.12682  0.65580  Biso   1.000  H
  C405     1.0000 0.08840  0.92939  0.35084  Biso   1.000  C
  H489     1.0000 0.02480  0.87318  0.34420  Biso   1.000  H
  C406     1.0000 0.14916  0.91160  0.42939  Biso   1.000  C
  H490     1.0000 0.12682  0.84420  0.47520  Biso   1.000  H
  N69      1.0000 0.03587  0.95039  0.26766  Biso   1.000  N
  H491     1.0000 0.03391  0.96467  0.18432  Biso   1.000  H
  H492     1.0000 0.05758  0.01649  0.21960  Biso   1.000  H
  H493     1.0000 0.98351  0.28040  0.55758  Biso   1.000  H
  N70      1.0000 0.04961  0.23234  0.53583  Biso   1.000  N
  H494     1.0000 0.03528  0.31568  0.53391  Biso   1.000  H
  C407     1.0000 0.11713  0.13417  0.55658  Biso   1.000  C
  C408     1.0000 0.19922  0.07508  0.53762  Biso   1.000  C
  C409     1.0000 0.03762  0.19922  0.57508  Biso   1.000  C
  C410     1.0000 0.07508  0.96234  0.30078  Biso   1.000  C
  C411     1.0000 0.13417  0.94342  0.38287  Biso   1.000  C
  C412     1.0000 0.19922  0.92492  0.46238  Biso   1.000  C
  H495     1.0000 0.12682  0.15580  0.52480  Biso   1.000  H
  N71      1.0000 0.23234  0.03587  0.54961  Biso   1.000  N
  H496     1.0000 0.20712  0.09721  0.50560  Biso   1.000  H
  H497     1.0000 0.00560  0.20712  0.59721  Biso   1.000  H
  H498     1.0000 0.09721  0.99440  0.29288  Biso   1.000  H
  H499     1.0000 0.15580  0.97520  0.37318  Biso   1.000  H
  N72      1.0000 0.23234  0.96413  0.45039  Biso   1.000  N
  H500     1.0000 0.20712  0.90279  0.49440  Biso   1.000  H
  C413     1.0000 0.28107  0.02885  0.51320  Biso   1.000  C
  C414     1.0000 0.28107  0.97115  0.48680  Biso   1.000  C
  H501     1.0000 0.31568  0.03391  0.53528  Biso   1.000  H
  H502     1.0000 0.28040  0.05758  0.48351  Biso   1.000  H
  H503     1.0000 0.31568  0.96609  0.46472  Biso   1.000  H
  H504     1.0000 0.28040  0.94238  0.51649  Biso   1.000  H
  C415     1.0000 0.53762  0.80078  0.92492  Biso   1.000  C
  N73      1.0000 0.54961  0.76766  0.96413  Biso   1.000  N
  H505     1.0000 0.50560  0.79288  0.90279  Biso   1.000  H
  C416     1.0000 0.57061  0.85084  0.91160  Biso   1.000  C
  C417     1.0000 0.51320  0.71893  0.97115  Biso   1.000  C
  C418     1.0000 0.61709  0.86583  0.94342  Biso   1.000  C
  C419     1.0000 0.55658  0.88287  0.86583  Biso   1.000  C
  H506     1.0000 0.53528  0.68427  0.96609  Biso   1.000  H
  H507     1.0000 0.48351  0.71960  0.94238  Biso   1.000  H
  C420     1.0000 0.48680  0.71893  0.02885  Biso   1.000  C
  C421     1.0000 0.64916  0.91160  0.92939  Biso   1.000  C
  H508     1.0000 0.62677  0.84420  0.97520  Biso   1.000  H
  C422     1.0000 0.58840  0.92939  0.85084  Biso   1.000  C
  H509     1.0000 0.52480  0.87318  0.84420  Biso   1.000  H
  N74      1.0000 0.45039  0.76766  0.03587  Biso   1.000  N
  H510     1.0000 0.46472  0.68427  0.03391  Biso   1.000  H
  H511     1.0000 0.51649  0.71960  0.05758  Biso   1.000  H
  C423     1.0000 0.69922  0.92492  0.96234  Biso   1.000  C
  C424     1.0000 0.63417  0.94342  0.88287  Biso   1.000  C
  C425     1.0000 0.57508  0.96234  0.80078  Biso   1.000  C
  C426     1.0000 0.46238  0.80078  0.07508  Biso   1.000  C
  N75      1.0000 0.73234  0.96413  0.95039  Biso   1.000  N
  H512     1.0000 0.70707  0.90279  0.99440  Biso   1.000  H
  H513     1.0000 0.65580  0.97520  0.87318  Biso   1.000  H
  N76      1.0000 0.53583  0.95039  0.76766  Biso   1.000  N
  H514     1.0000 0.59721  0.99440  0.79288  Biso   1.000  H
  H515     1.0000 0.49440  0.79288  0.09721  Biso   1.000  H
  C427     1.0000 0.42939  0.85084  0.08840  Biso   1.000  C
  C428     1.0000 0.78107  0.97115  0.98676  Biso   1.000  C
  C429     1.0000 0.52885  0.98676  0.71893  Biso   1.000  C
  C430     1.0000 0.38287  0.86583  0.05658  Biso   1.000  C
  C431     1.0000 0.44342  0.88287  0.13417  Biso   1.000  C
  H516     1.0000 0.81568  0.96609  0.96467  Biso   1.000  H
  H517     1.0000 0.78040  0.94238  0.01649  Biso   1.000  H
  C432     1.0000 0.78107  0.02885  0.01320  Biso   1.000  C
  H518     1.0000 0.53391  0.96467  0.68427  Biso   1.000  H
  C433     1.0000 0.47115  0.01320  0.71893  Biso   1.000  C
  H519     1.0000 0.55758  0.01649  0.71960  Biso   1.000  H
  C434     1.0000 0.35084  0.91160  0.07061  Biso   1.000  C
  H520     1.0000 0.37318  0.84420  0.02480  Biso   1.000  H
  C435     1.0000 0.41160  0.92939  0.14916  Biso   1.000  C
  H521     1.0000 0.47520  0.87318  0.15580  Biso   1.000  H
  H522     1.0000 0.78040  0.05758  0.98351  Biso   1.000  H
  N77      1.0000 0.73234  0.03587  0.04961  Biso   1.000  N
  H523     1.0000 0.81568  0.03391  0.03528  Biso   1.000  H
  H524     1.0000 0.44242  0.98351  0.71960  Biso   1.000  H
  N78      1.0000 0.46413  0.04961  0.76766  Biso   1.000  N
  H525     1.0000 0.46609  0.03528  0.68427  Biso   1.000  H
  C436     1.0000 0.30078  0.92492  0.03762  Biso   1.000  C
  C437     1.0000 0.36583  0.94342  0.11713  Biso   1.000  C
  C438     1.0000 0.42492  0.96234  0.19922  Biso   1.000  C
  C439     1.0000 0.69922  0.07508  0.03762  Biso   1.000  C
  C440     1.0000 0.42492  0.03762  0.80078  Biso   1.000  C
  N79      1.0000 0.26766  0.96413  0.04961  Biso   1.000  N
  H526     1.0000 0.29288  0.90279  0.00560  Biso   1.000  H
  H527     1.0000 0.34420  0.97520  0.12682  Biso   1.000  H
  N80      1.0000 0.46413  0.95039  0.23234  Biso   1.000  N
  H528     1.0000 0.40279  0.99440  0.20712  Biso   1.000  H
  H529     1.0000 0.70707  0.09721  0.00560  Biso   1.000  H
  C441     1.0000 0.64916  0.08840  0.07061  Biso   1.000  C
  H530     1.0000 0.40279  0.00560  0.79288  Biso   1.000  H
  C442     1.0000 0.41160  0.07061  0.85084  Biso   1.000  C
  C443     1.0000 0.21893  0.97115  0.01320  Biso   1.000  C
  C444     1.0000 0.47115  0.98676  0.28107  Biso   1.000  C
  C445     1.0000 0.61709  0.13417  0.05658  Biso   1.000  C
  C446     1.0000 0.63417  0.05658  0.11713  Biso   1.000  C
  C447     1.0000 0.36583  0.05658  0.88287  Biso   1.000  C
  C448     1.0000 0.44342  0.11713  0.86583  Biso   1.000  C
  H531     1.0000 0.21960  0.94238  0.98351  Biso   1.000  H
  H532     1.0000 0.18432  0.96609  0.03528  Biso   1.000  H
  C449     1.0000 0.21893  0.02885  0.98676  Biso   1.000  C
  H533     1.0000 0.46609  0.96467  0.31568  Biso   1.000  H
  C450     1.0000 0.52885  0.01320  0.28107  Biso   1.000  C
  H534     1.0000 0.44242  0.01649  0.28040  Biso   1.000  H
  C451     1.0000 0.57061  0.14916  0.08840  Biso   1.000  C
  H535     1.0000 0.62677  0.15580  0.02480  Biso   1.000  H
  C452     1.0000 0.58840  0.07061  0.14916  Biso   1.000  C
  H536     1.0000 0.65580  0.02480  0.12682  Biso   1.000  H
  C453     1.0000 0.35084  0.08840  0.92939  Biso   1.000  C
  H537     1.0000 0.34420  0.02480  0.87318  Biso   1.000  H
  C454     1.0000 0.42939  0.14916  0.91160  Biso   1.000  C
  H538     1.0000 0.47520  0.12682  0.84420  Biso   1.000  H
  N81      1.0000 0.26766  0.03587  0.95039  Biso   1.000  N
  H539     1.0000 0.18432  0.03391  0.96467  Biso   1.000  H
  H540     1.0000 0.21960  0.05758  0.01649  Biso   1.000  H
  H541     1.0000 0.55758  0.98351  0.28040  Biso   1.000  H
  N82      1.0000 0.53583  0.04961  0.23234  Biso   1.000  N
  H542     1.0000 0.53391  0.03528  0.31568  Biso   1.000  H
  C455     1.0000 0.55658  0.11713  0.13417  Biso   1.000  C
  C456     1.0000 0.53762  0.19922  0.07508  Biso   1.000  C
  C457     1.0000 0.57508  0.03762  0.19922  Biso   1.000  C
  C458     1.0000 0.30078  0.07508  0.96234  Biso   1.000  C
  C459     1.0000 0.38287  0.13417  0.94342  Biso   1.000  C
  C460     1.0000 0.46238  0.19922  0.92492  Biso   1.000  C
  H543     1.0000 0.52480  0.12682  0.15580  Biso   1.000  H
  N83      1.0000 0.54961  0.23234  0.03587  Biso   1.000  N
  H544     1.0000 0.50560  0.20712  0.09721  Biso   1.000  H
  H545     1.0000 0.59721  0.00560  0.20712  Biso   1.000  H
  H546     1.0000 0.29288  0.09721  0.99440  Biso   1.000  H
  H547     1.0000 0.37318  0.15580  0.97520  Biso   1.000  H
  N84      1.0000 0.45039  0.23234  0.96413  Biso   1.000  N
  H548     1.0000 0.49440  0.20712  0.90279  Biso   1.000  H
  C461     1.0000 0.51320  0.28107  0.02885  Biso   1.000  C
  C462     1.0000 0.48680  0.28107  0.97115  Biso   1.000  C
  H549     1.0000 0.53528  0.31568  0.03391  Biso   1.000  H
  H550     1.0000 0.48351  0.28040  0.05758  Biso   1.000  H
  H551     1.0000 0.46472  0.31568  0.96609  Biso   1.000  H
  H552     1.0000 0.51649  0.28040  0.94238  Biso   1.000  H
  C463     1.0000 0.63041  0.29781  0.22361  Biso   1.000  C
  C464     1.0000 0.58723  0.28387  0.21375  Biso   1.000  C
  C465     1.0000 0.57541  0.30700  0.19058  Biso   1.000  C
  C466     1.0000 0.63083  0.25000  0.25000  Biso   1.000  C
  H553     1.0000 0.59871  0.32349  0.21179  Biso   1.000  H
  H554     1.0000 0.66231  0.29898  0.19730  Biso   1.000  H
  H555     1.0000 0.63521  0.32850  0.25092  Biso   1.000  H
  C467     1.0000 0.52931  0.27973  0.23902  Biso   1.000  C
  H556     1.0000 0.58660  0.26879  0.17530  Biso   1.000  H
  H557     1.0000 0.57491  0.28591  0.15509  Biso   1.000  H
  H558     1.0000 0.56831  0.34700  0.18319  Biso   1.000  H
  C468     1.0000 0.58723  0.21613  0.28625  Biso   1.000  C
  C469     1.0000 0.63041  0.20219  0.27639  Biso   1.000  C
  H559     1.0000 0.65458  0.22528  0.22691  Biso   1.000  H
  H560     1.0000 0.65458  0.27468  0.27309  Biso   1.000  H
  C470     1.0000 0.52931  0.22027  0.26098  Biso   1.000  C
  N85      1.0000 0.48280  0.28892  0.20106  Biso   1.000  N
  H561     1.0000 0.52639  0.30629  0.27109  Biso   1.000  H
  H562     1.0000 0.59871  0.17651  0.28821  Biso   1.000  H
  H563     1.0000 0.58660  0.23121  0.32470  Biso   1.000  H
  C471     1.0000 0.57541  0.19300  0.30938  Biso   1.000  C
  H564     1.0000 0.66231  0.20102  0.30270  Biso   1.000  H
  H565     1.0000 0.63521  0.17150  0.24908  Biso   1.000  H
  N86      1.0000 0.48280  0.21108  0.29894  Biso   1.000  N
  H566     1.0000 0.52639  0.19371  0.22891  Biso   1.000  H
  C472     1.0000 0.44881  0.32704  0.21371  Biso   1.000  C
  H567     1.0000 0.57491  0.21409  0.34491  Biso   1.000  H
  H568     1.0000 0.56831  0.15300  0.31681  Biso   1.000  H
  C473     1.0000 0.44881  0.17296  0.28629  Biso   1.000  C
  H569     1.0000 0.45519  0.34821  0.24662  Biso   1.000  H
  C474     1.0000 0.39974  0.33982  0.17935  Biso   1.000  C
  C475     1.0000 0.39974  0.16018  0.32065  Biso   1.000  C
  H570     1.0000 0.45519  0.15179  0.25338  Biso   1.000  H
  C476     1.0000 0.36688  0.38559  0.19263  Biso   1.000  C
  C477     1.0000 0.38559  0.30737  0.13308  Biso   1.000  C
  C478     1.0000 0.36688  0.11441  0.30737  Biso   1.000  C
  C479     1.0000 0.38559  0.19263  0.36688  Biso   1.000  C
  C480     1.0000 0.32065  0.39974  0.16018  Biso   1.000  C
  H571     1.0000 0.37598  0.40759  0.22428  Biso   1.000  H
  C481     1.0000 0.33982  0.32065  0.10026  Biso   1.000  C
  H572     1.0000 0.40759  0.27568  0.12402  Biso   1.000  H
  C482     1.0000 0.32065  0.10026  0.33982  Biso   1.000  C
  H573     1.0000 0.37598  0.09241  0.27568  Biso   1.000  H
  C483     1.0000 0.33982  0.17935  0.39974  Biso   1.000  C
  H574     1.0000 0.40759  0.22428  0.37598  Biso   1.000  H
  C484     1.0000 0.28629  0.44881  0.17296  Biso   1.000  C
  C485     1.0000 0.30737  0.36688  0.11441  Biso   1.000  C
  C486     1.0000 0.32704  0.28629  0.05115  Biso   1.000  C
  C487     1.0000 0.28629  0.05115  0.32704  Biso   1.000  C
  C488     1.0000 0.30737  0.13308  0.38559  Biso   1.000  C
  C489     1.0000 0.32704  0.21371  0.44881  Biso   1.000  C
  N87      1.0000 0.29894  0.48280  0.21108  Biso   1.000  N
  H575     1.0000 0.25338  0.45519  0.15179  Biso   1.000  H
  H576     1.0000 0.27568  0.37598  0.09241  Biso   1.000  H
  N88      1.0000 0.28892  0.29894  0.01716  Biso   1.000  N
  H577     1.0000 0.34821  0.25338  0.04481  Biso   1.000  H
  N89      1.0000 0.29894  0.01716  0.28892  Biso   1.000  N
  H578     1.0000 0.25338  0.04481  0.34821  Biso   1.000  H
  H579     1.0000 0.27568  0.12402  0.40759  Biso   1.000  H
  N90      1.0000 0.28892  0.20106  0.48280  Biso   1.000  N
  H580     1.0000 0.34821  0.24662  0.45519  Biso   1.000  H
  C490     1.0000 0.26098  0.52931  0.22027  Biso   1.000  C
  C491     1.0000 0.27973  0.26098  0.97064  Biso   1.000  C
  C492     1.0000 0.26098  0.97064  0.27973  Biso   1.000  C
  C493     1.0000 0.27973  0.23902  0.52931  Biso   1.000  C
  C494     1.0000 0.23902  0.52931  0.27973  Biso   1.000  C
  H581     1.0000 0.22891  0.52639  0.19371  Biso   1.000  H
  C495     1.0000 0.28625  0.58723  0.21613  Biso   1.000  C
  C496     1.0000 0.30938  0.57541  0.19300  Biso   1.000  C
  C497     1.0000 0.22027  0.23902  0.97064  Biso   1.000  C
  H582     1.0000 0.30629  0.22891  0.97361  Biso   1.000  H
  C498     1.0000 0.28387  0.28625  0.91277  Biso   1.000  C
  C499     1.0000 0.30700  0.30938  0.92459  Biso   1.000  C
  C500     1.0000 0.23902  0.97064  0.22027  Biso   1.000  C
  H583     1.0000 0.22891  0.97361  0.30629  Biso   1.000  H
  C501     1.0000 0.28625  0.91277  0.28387  Biso   1.000  C
  C502     1.0000 0.30938  0.92459  0.30700  Biso   1.000  C
  C503     1.0000 0.22027  0.26098  0.52931  Biso   1.000  C
  H584     1.0000 0.30629  0.27109  0.52639  Biso   1.000  H
  C504     1.0000 0.28387  0.21375  0.58723  Biso   1.000  C
  C505     1.0000 0.30700  0.19058  0.57541  Biso   1.000  C
  N91      1.0000 0.20106  0.48280  0.28892  Biso   1.000  N
  H585     1.0000 0.27109  0.52639  0.30629  Biso   1.000  H
  C506     1.0000 0.21375  0.58723  0.28387  Biso   1.000  C
  C507     1.0000 0.19058  0.57541  0.30700  Biso   1.000  C
  H586     1.0000 0.28821  0.59871  0.17651  Biso   1.000  H
  H587     1.0000 0.32470  0.58660  0.23121  Biso   1.000  H
  C508     1.0000 0.25000  0.63083  0.25000  Biso   1.000  C
  C509     1.0000 0.27639  0.63041  0.20219  Biso   1.000  C
  H588     1.0000 0.34491  0.57491  0.21409  Biso   1.000  H
  H589     1.0000 0.31681  0.56831  0.15300  Biso   1.000  H
  N92      1.0000 0.21108  0.20106  0.01716  Biso   1.000  N
  H590     1.0000 0.19371  0.27109  0.97361  Biso   1.000  H
  C510     1.0000 0.21613  0.21375  0.91277  Biso   1.000  C
  C511     1.0000 0.19300  0.19058  0.92459  Biso   1.000  C
  H591     1.0000 0.32349  0.28821  0.90129  Biso   1.000  H
  H592     1.0000 0.26879  0.32470  0.91340  Biso   1.000  H
  C512     1.0000 0.25000  0.25000  0.86917  Biso   1.000  C
  C513     1.0000 0.29781  0.27639  0.86959  Biso   1.000  C
  H593     1.0000 0.28591  0.34491  0.92509  Biso   1.000  H
  H594     1.0000 0.34700  0.31681  0.93169  Biso   1.000  H
  N93      1.0000 0.20106  0.01716  0.21108  Biso   1.000  N
  H595     1.0000 0.27109  0.97361  0.19371  Biso   1.000  H
  C514     1.0000 0.21375  0.91277  0.21613  Biso   1.000  C
  C515     1.0000 0.19058  0.92459  0.19300  Biso   1.000  C
  H596     1.0000 0.28821  0.90129  0.32349  Biso   1.000  H
  H597     1.0000 0.32470  0.91340  0.26879  Biso   1.000  H
  C516     1.0000 0.25000  0.86917  0.25000  Biso   1.000  C
  C517     1.0000 0.27639  0.86959  0.29781  Biso   1.000  C
  H598     1.0000 0.34491  0.92509  0.28591  Biso   1.000  H
  H599     1.0000 0.31681  0.93169  0.34700  Biso   1.000  H
  N94      1.0000 0.21108  0.29894  0.48280  Biso   1.000  N
  H600     1.0000 0.19371  0.22891  0.52639  Biso   1.000  H
  C518     1.0000 0.21613  0.28625  0.58723  Biso   1.000  C
  C519     1.0000 0.19300  0.30938  0.57541  Biso   1.000  C
  H601     1.0000 0.32349  0.21179  0.59871  Biso   1.000  H
  H602     1.0000 0.26879  0.17530  0.58660  Biso   1.000  H
  C520     1.0000 0.25000  0.25000  0.63083  Biso   1.000  C
  C521     1.0000 0.29781  0.22361  0.63041  Biso   1.000  C
  H603     1.0000 0.28591  0.15509  0.57491  Biso   1.000  H
  H604     1.0000 0.34700  0.18319  0.56831  Biso   1.000  H
  C522     1.0000 0.21371  0.44881  0.32704  Biso   1.000  C
  H605     1.0000 0.21179  0.59871  0.32349  Biso   1.000  H
  H606     1.0000 0.17530  0.58660  0.26879  Biso   1.000  H
  C523     1.0000 0.22361  0.63041  0.29781  Biso   1.000  C
  H607     1.0000 0.15509  0.57491  0.28591  Biso   1.000  H
  H608     1.0000 0.18319  0.56831  0.34700  Biso   1.000  H
  H609     1.0000 0.27309  0.65458  0.27468  Biso   1.000  H
  H610     1.0000 0.22691  0.65458  0.22528  Biso   1.000  H
  H611     1.0000 0.30270  0.66231  0.20102  Biso   1.000  H
  H612     1.0000 0.24908  0.63521  0.17150  Biso   1.000  H
  C524     1.0000 0.17296  0.21371  0.05115  Biso   1.000  C
  H613     1.0000 0.17651  0.21179  0.90129  Biso   1.000  H
  H614     1.0000 0.23121  0.17530  0.91340  Biso   1.000  H
  C525     1.0000 0.20219  0.22361  0.86959  Biso   1.000  C
  H615     1.0000 0.21409  0.15509  0.92509  Biso   1.000  H
  H616     1.0000 0.15300  0.18319  0.93169  Biso   1.000  H
  H617     1.0000 0.22528  0.27309  0.84537  Biso   1.000  H
  H618     1.0000 0.27468  0.22691  0.84537  Biso   1.000  H
  H619     1.0000 0.29898  0.30270  0.83769  Biso   1.000  H
  H620     1.0000 0.32850  0.24908  0.86479  Biso   1.000  H
  C526     1.0000 0.21371  0.05115  0.17296  Biso   1.000  C
  H621     1.0000 0.21179  0.90129  0.17651  Biso   1.000  H
  H622     1.0000 0.17530  0.91340  0.23121  Biso   1.000  H
  C527     1.0000 0.22361  0.86959  0.20219  Biso   1.000  C
  H623     1.0000 0.15509  0.92509  0.21409  Biso   1.000  H
  H624     1.0000 0.18319  0.93169  0.15300  Biso   1.000  H
  H625     1.0000 0.27309  0.84537  0.22528  Biso   1.000  H
  H626     1.0000 0.22691  0.84537  0.27468  Biso   1.000  H
  H627     1.0000 0.30270  0.83769  0.29898  Biso   1.000  H
  H628     1.0000 0.24908  0.86479  0.32850  Biso   1.000  H
  C528     1.0000 0.17296  0.28629  0.44881  Biso   1.000  C
  H629     1.0000 0.17651  0.28821  0.59871  Biso   1.000  H
  H630     1.0000 0.23121  0.32470  0.58660  Biso   1.000  H
  C529     1.0000 0.20219  0.27639  0.63041  Biso   1.000  C
  H631     1.0000 0.21409  0.34491  0.57491  Biso   1.000  H
  H632     1.0000 0.15300  0.31681  0.56831  Biso   1.000  H
  H633     1.0000 0.22528  0.22691  0.65458  Biso   1.000  H
  H634     1.0000 0.27468  0.27309  0.65458  Biso   1.000  H
  H635     1.0000 0.29898  0.19730  0.66231  Biso   1.000  H
  H636     1.0000 0.32850  0.25092  0.63521  Biso   1.000  H
  C530     1.0000 0.17935  0.39974  0.33982  Biso   1.000  C
  H637     1.0000 0.24662  0.45519  0.34821  Biso   1.000  H
  H638     1.0000 0.19730  0.66231  0.29898  Biso   1.000  H
  H639     1.0000 0.25092  0.63521  0.32850  Biso   1.000  H
  C531     1.0000 0.16018  0.17935  0.10026  Biso   1.000  C
  H640     1.0000 0.15179  0.24662  0.04481  Biso   1.000  H
  H641     1.0000 0.20102  0.19730  0.83769  Biso   1.000  H
  H642     1.0000 0.17150  0.25092  0.86479  Biso   1.000  H
  H643     1.0000 0.24662  0.04481  0.15179  Biso   1.000  H
  C532     1.0000 0.17935  0.10026  0.16018  Biso   1.000  C
  H644     1.0000 0.19730  0.83769  0.20102  Biso   1.000  H
  H645     1.0000 0.25092  0.86479  0.17150  Biso   1.000  H
  H646     1.0000 0.15179  0.25338  0.45519  Biso   1.000  H
  C533     1.0000 0.16018  0.32065  0.39974  Biso   1.000  C
  H647     1.0000 0.20102  0.30270  0.66231  Biso   1.000  H
  H648     1.0000 0.17150  0.24908  0.63521  Biso   1.000  H
  C534     1.0000 0.19263  0.36688  0.38559  Biso   1.000  C
  C535     1.0000 0.13308  0.38559  0.30737  Biso   1.000  C
  C536     1.0000 0.19263  0.13308  0.11441  Biso   1.000  C
  C537     1.0000 0.11441  0.19263  0.13308  Biso   1.000  C
  C538     1.0000 0.13308  0.11441  0.19263  Biso   1.000  C
  C539     1.0000 0.11441  0.30737  0.36688  Biso   1.000  C
  H649     1.0000 0.22428  0.37598  0.40759  Biso   1.000  H
  C540     1.0000 0.10026  0.33982  0.32065  Biso   1.000  C
  H650     1.0000 0.12402  0.40759  0.27568  Biso   1.000  H
  H651     1.0000 0.22428  0.12402  0.09241  Biso   1.000  H
  C541     1.0000 0.10026  0.16018  0.17935  Biso   1.000  C
  H652     1.0000 0.09241  0.22428  0.12402  Biso   1.000  H
  H653     1.0000 0.12402  0.09241  0.22428  Biso   1.000  H
  H654     1.0000 0.09241  0.27568  0.37598  Biso   1.000  H
  C542     1.0000 0.05115  0.32704  0.28629  Biso   1.000  C
  C543     1.0000 0.05115  0.17296  0.21371  Biso   1.000  C
  N95      1.0000 0.01716  0.28892  0.29894  Biso   1.000  N
  H655     1.0000 0.04481  0.34821  0.25338  Biso   1.000  H
  N96      1.0000 0.01716  0.21108  0.20106  Biso   1.000  N
  H656     1.0000 0.04481  0.15179  0.24662  Biso   1.000  H
  C544     1.0000 0.97064  0.27973  0.26098  Biso   1.000  C
  C545     1.0000 0.97064  0.22027  0.23902  Biso   1.000  C
  H657     1.0000 0.97361  0.30629  0.22891  Biso   1.000  H
  C546     1.0000 0.91277  0.28387  0.28625  Biso   1.000  C
  C547     1.0000 0.92459  0.30700  0.30938  Biso   1.000  C
  H658     1.0000 0.97361  0.19371  0.27109  Biso   1.000  H
  C548     1.0000 0.91277  0.21613  0.21375  Biso   1.000  C
  C549     1.0000 0.92459  0.19300  0.19058  Biso   1.000  C
  C550     1.0000 0.86917  0.25000  0.25000  Biso   1.000  C
  H659     1.0000 0.90129  0.32349  0.28821  Biso   1.000  H
  H660     1.0000 0.91340  0.26879  0.32470  Biso   1.000  H
  C551     1.0000 0.86959  0.29781  0.27639  Biso   1.000  C
  H661     1.0000 0.92509  0.28591  0.34491  Biso   1.000  H
  H662     1.0000 0.93169  0.34700  0.31681  Biso   1.000  H
  H663     1.0000 0.90129  0.17651  0.21179  Biso   1.000  H
  H664     1.0000 0.91340  0.23121  0.17530  Biso   1.000  H
  C552     1.0000 0.86959  0.20219  0.22361  Biso   1.000  C
  H665     1.0000 0.92509  0.21409  0.15509  Biso   1.000  H
  H666     1.0000 0.93169  0.15300  0.18319  Biso   1.000  H
  H667     1.0000 0.84537  0.22528  0.27309  Biso   1.000  H
  H668     1.0000 0.84537  0.27468  0.22691  Biso   1.000  H
  H669     1.0000 0.83769  0.29898  0.30270  Biso   1.000  H
  H670     1.0000 0.86479  0.32850  0.24908  Biso   1.000  H
  H671     1.0000 0.83769  0.20102  0.19730  Biso   1.000  H
  H672     1.0000 0.86479  0.17150  0.25092  Biso   1.000  H
  Ne1      1.0000 0.25000  0.25000  0.25000  Biso   1.000  Ne
  He1      1.0000 0.18062  0.18061  0.31938  Biso   1.000  He
  He2      1.0000 0.31887  0.31887  0.31887  Biso   1.000  He
  He3      1.0000 0.31528  0.18473  0.18471  Biso   1.000  He
  He4      1.0000 0.18096  0.31903  0.18097  Biso   1.000  He
  Ar1      1.0000 0.24999  0.24999  0.24999  Biso   1.000  Ar
  Ne2      1.0000 0.50000  0.50000  0.50000  Biso   1.000  Ne
  He5      1.0000 0.42971  0.57029  0.57028  Biso   1.000  He
  He6      1.0000 0.56623  0.43376  0.56624  Biso   1.000  He
  He7      1.0000 0.43177  0.43177  0.43177  Biso   1.000  He
  He8      1.0000 0.56605  0.56604  0.43395  Biso   1.000  He
  Ar2      1.0000 0.50000  0.50000  0.50000  Biso   1.000  Ar
  Ne3      1.0000 0.74999  0.25000  0.74999  Biso   1.000  Ne
  He9      1.0000 0.68061  0.18059  0.81936  Biso   1.000  He
  He10     1.0000 0.81884  0.31887  0.81884  Biso   1.000  He
  He11     1.0000 0.81524  0.18473  0.68472  Biso   1.000  He
  He12     1.0000 0.68096  0.31903  0.68097  Biso   1.000  He
  Ar3      1.0000 0.74999  0.24999  0.74999  Biso   1.000  Ar
  Ne4      1.0000 0.74999  0.74999  0.25000  Biso   1.000  Ne
  He13     1.0000 0.68062  0.68061  0.31938  Biso   1.000  He
  He14     1.0000 0.81886  0.81886  0.31889  Biso   1.000  He
  He15     1.0000 0.81524  0.68473  0.18472  Biso   1.000  He
  He16     1.0000 0.68095  0.81901  0.18097  Biso   1.000  He
  Ar4      1.0000 0.74999  0.74999  0.24999  Biso   1.000  Ar
  Ne5      1.0000 0.25000  0.74999  0.74999  Biso   1.000  Ne
  He17     1.0000 0.18061  0.68059  0.81936  Biso   1.000  He
  He18     1.0000 0.31887  0.81884  0.81884  Biso   1.000  He
  He19     1.0000 0.31528  0.68473  0.68471  Biso   1.000  He
  He20     1.0000 0.18095  0.81901  0.68097  Biso   1.000  He
  Ar5      1.0000 0.24999  0.74999  0.74999  Biso   1.000  Ar
  Ne6      1.0000 1.00000  0.50000  1.00000  Biso   1.000  Ne
  He21     1.0000 0.92969  0.57030  0.07030  Biso   1.000  He
  He22     1.0000 0.06625  0.43375  0.06625  Biso   1.000  He
  He23     1.0000 0.93177  0.43177  0.93177  Biso   1.000  He
  He24     1.0000 0.06606  0.56605  0.93396  Biso   1.000  He
  Ar6      1.0000 0.00000  0.49998  1.00000  Biso   1.000  Ar
  Ne7      1.0000 1.00000  1.00000  0.50000  Biso   1.000  Ne
  He25     1.0000 0.92972  0.07029  0.57029  Biso   1.000  He
  He26     1.0000 0.06625  0.93374  0.56625  Biso   1.000  He
  He27     1.0000 0.93177  0.93177  0.43177  Biso   1.000  He
  He28     1.0000 0.06605  0.06605  0.43395  Biso   1.000  He
  Ar7      1.0000 1.00000  0.00000  0.49998  Biso   1.000  Ar
  Ne8      1.0000 0.50000  1.00000  1.00000  Biso   1.000  Ne
  He29     1.0000 0.42970  0.07030  0.07030  Biso   1.000  He
  He30     1.0000 0.56623  0.93377  0.06625  Biso   1.000  He
  He31     1.0000 0.43177  0.93177  0.93177  Biso   1.000  He
  He32     1.0000 0.56605  0.06604  0.93395  Biso   1.000  He
  Ar8      1.0000 0.49998  0.00000  0.00000  Biso   1.000  Ar
