data_image0
_cell_length_a       23.579
_cell_length_b       23.579
_cell_length_c       23.579
_cell_angle_alpha    90
_cell_angle_beta     90
_cell_angle_gamma    90

_symmetry_space_group_name_H-M    "P 1"
_symmetry_int_tables_number       1

loop_
  _symmetry_equiv_pos_as_xyz
  'x, y, z'

loop_
  _atom_site_label
  _atom_site_occupancy
  _atom_site_fract_x
  _atom_site_fract_y
  _atom_site_fract_z
  _atom_site_thermal_displace_type
  _atom_site_B_iso_or_equiv
  _atom_site_type_symbol
  C1       1.0000 0.55486  0.38259  0.36605  Biso   1.000  C
  C2       1.0000 0.56987  0.35027  0.41278  Biso   1.000  C
  C3       1.0000 0.58726  0.43013  0.35027  Biso   1.000  C
  H1       1.0000 0.52241  0.37249  0.34450  Biso   1.000  H
  C4       1.0000 0.53738  0.29853  0.42576  Biso   1.000  C
  C5       1.0000 0.61741  0.36605  0.44514  Biso   1.000  C
  C6       1.0000 0.63395  0.44514  0.38259  Biso   1.000  C
  C7       1.0000 0.57424  0.46266  0.29853  Biso   1.000  C
  N1       1.0000 0.55066  0.26460  0.46529  Biso   1.000  N
  H2       1.0000 0.50490  0.29022  0.40349  Biso   1.000  H
  C8       1.0000 0.64973  0.41278  0.43013  Biso   1.000  C
  H3       1.0000 0.62751  0.34450  0.47763  Biso   1.000  H
  H4       1.0000 0.65550  0.47763  0.37249  Biso   1.000  H
  N2       1.0000 0.53471  0.44934  0.26460  Biso   1.000  N
  H5       1.0000 0.59651  0.49510  0.29022  Biso   1.000  H
  C9       1.0000 0.51474  0.21477  0.47152  Biso   1.000  C
  C10      1.0000 0.70147  0.42576  0.46266  Biso   1.000  C
  C11      1.0000 0.52848  0.48530  0.21477  Biso   1.000  C
  C12      1.0000 0.48530  0.21477  0.52848  Biso   1.000  C
  H6       1.0000 0.53811  0.18012  0.46792  Biso   1.000  H
  H7       1.0000 0.48603  0.21430  0.44090  Biso   1.000  H
  N3       1.0000 0.73544  0.46529  0.44934  Biso   1.000  N
  H8       1.0000 0.70983  0.40349  0.49510  Biso   1.000  H
  C13      1.0000 0.47152  0.51474  0.21477  Biso   1.000  C
  H9       1.0000 0.53213  0.46189  0.18012  Biso   1.000  H
  H10      1.0000 0.55910  0.51402  0.21430  Biso   1.000  H
  N4       1.0000 0.44934  0.26460  0.53471  Biso   1.000  N
  H11      1.0000 0.46189  0.18012  0.53213  Biso   1.000  H
  H12      1.0000 0.51402  0.21430  0.55910  Biso   1.000  H
  C14      1.0000 0.78528  0.47152  0.48530  Biso   1.000  C
  N5       1.0000 0.46529  0.55066  0.26460  Biso   1.000  N
  H13      1.0000 0.46792  0.53811  0.18012  Biso   1.000  H
  H14      1.0000 0.44090  0.48603  0.21430  Biso   1.000  H
  C15      1.0000 0.46266  0.29853  0.57424  Biso   1.000  C
  C16      1.0000 0.78528  0.52848  0.51474  Biso   1.000  C
  H15      1.0000 0.81992  0.46792  0.46189  Biso   1.000  H
  H16      1.0000 0.78570  0.44090  0.51402  Biso   1.000  H
  C17      1.0000 0.42576  0.53738  0.29853  Biso   1.000  C
  H17      1.0000 0.49510  0.29022  0.59651  Biso   1.000  H
  C18      1.0000 0.43013  0.35027  0.58726  Biso   1.000  C
  N6       1.0000 0.73544  0.53471  0.55066  Biso   1.000  N
  H18      1.0000 0.81992  0.53213  0.53811  Biso   1.000  H
  H19      1.0000 0.78570  0.55910  0.48603  Biso   1.000  H
  H20      1.0000 0.40349  0.50490  0.29022  Biso   1.000  H
  C19      1.0000 0.41278  0.56987  0.35027  Biso   1.000  C
  C20      1.0000 0.38259  0.36605  0.55486  Biso   1.000  C
  C21      1.0000 0.44514  0.38259  0.63395  Biso   1.000  C
  C22      1.0000 0.70147  0.57424  0.53738  Biso   1.000  C
  C23      1.0000 0.44514  0.61741  0.36605  Biso   1.000  C
  C24      1.0000 0.36605  0.55486  0.38259  Biso   1.000  C
  C25      1.0000 0.35027  0.41278  0.56987  Biso   1.000  C
  H21      1.0000 0.37249  0.34450  0.52241  Biso   1.000  H
  C26      1.0000 0.41278  0.43013  0.64973  Biso   1.000  C
  H22      1.0000 0.47763  0.37249  0.65550  Biso   1.000  H
  H23      1.0000 0.70983  0.59651  0.50490  Biso   1.000  H
  C27      1.0000 0.64973  0.58726  0.56987  Biso   1.000  C
  C28      1.0000 0.43013  0.64973  0.41278  Biso   1.000  C
  H24      1.0000 0.47763  0.62751  0.34450  Biso   1.000  H
  C29      1.0000 0.35027  0.58726  0.43013  Biso   1.000  C
  H25      1.0000 0.34450  0.52241  0.37249  Biso   1.000  H
  C30      1.0000 0.29853  0.42576  0.53738  Biso   1.000  C
  C31      1.0000 0.36605  0.44514  0.61741  Biso   1.000  C
  C32      1.0000 0.42576  0.46266  0.70147  Biso   1.000  C
  C33      1.0000 0.61741  0.63395  0.55486  Biso   1.000  C
  C34      1.0000 0.63395  0.55486  0.61741  Biso   1.000  C
  C35      1.0000 0.46266  0.70147  0.42576  Biso   1.000  C
  C36      1.0000 0.38259  0.63395  0.44514  Biso   1.000  C
  C37      1.0000 0.29853  0.57424  0.46266  Biso   1.000  C
  N7       1.0000 0.26460  0.46529  0.55066  Biso   1.000  N
  H26      1.0000 0.29022  0.40349  0.50490  Biso   1.000  H
  H27      1.0000 0.34450  0.47763  0.62751  Biso   1.000  H
  N8       1.0000 0.46529  0.44934  0.73544  Biso   1.000  N
  H28      1.0000 0.40349  0.49510  0.70983  Biso   1.000  H
  C38      1.0000 0.56987  0.64973  0.58726  Biso   1.000  C
  H29      1.0000 0.62751  0.65550  0.52241  Biso   1.000  H
  C39      1.0000 0.58726  0.56987  0.64973  Biso   1.000  C
  H30      1.0000 0.65550  0.52241  0.62751  Biso   1.000  H
  N9       1.0000 0.44934  0.73544  0.46529  Biso   1.000  N
  H31      1.0000 0.49510  0.70983  0.40349  Biso   1.000  H
  H32      1.0000 0.37249  0.65550  0.47763  Biso   1.000  H
  N10      1.0000 0.26460  0.53471  0.44934  Biso   1.000  N
  H33      1.0000 0.29022  0.59651  0.49510  Biso   1.000  H
  C40      1.0000 0.21477  0.47152  0.51474  Biso   1.000  C
  C41      1.0000 0.47152  0.48530  0.78528  Biso   1.000  C
  C42      1.0000 0.53738  0.70147  0.57424  Biso   1.000  C
  C43      1.0000 0.55486  0.61741  0.63395  Biso   1.000  C
  C44      1.0000 0.57424  0.53738  0.70147  Biso   1.000  C
  C45      1.0000 0.48530  0.78528  0.47152  Biso   1.000  C
  C46      1.0000 0.21477  0.52848  0.48530  Biso   1.000  C
  H34      1.0000 0.18012  0.46792  0.53811  Biso   1.000  H
  H35      1.0000 0.21430  0.44090  0.48603  Biso   1.000  H
  C47      1.0000 0.52848  0.51474  0.78528  Biso   1.000  C
  H36      1.0000 0.46792  0.46189  0.81992  Biso   1.000  H
  H37      1.0000 0.44090  0.51402  0.78570  Biso   1.000  H
  N11      1.0000 0.55066  0.73544  0.53471  Biso   1.000  N
  H38      1.0000 0.50490  0.70983  0.59651  Biso   1.000  H
  H39      1.0000 0.52241  0.62751  0.65550  Biso   1.000  H
  N12      1.0000 0.53471  0.55066  0.73544  Biso   1.000  N
  H40      1.0000 0.59651  0.50490  0.70983  Biso   1.000  H
  C48      1.0000 0.51474  0.78528  0.52848  Biso   1.000  C
  H41      1.0000 0.46189  0.81992  0.46792  Biso   1.000  H
  H42      1.0000 0.51402  0.78570  0.44090  Biso   1.000  H
  H43      1.0000 0.18012  0.53213  0.46189  Biso   1.000  H
  H44      1.0000 0.21430  0.55910  0.51402  Biso   1.000  H
  H45      1.0000 0.53213  0.53811  0.81992  Biso   1.000  H
  H46      1.0000 0.55910  0.48603  0.78570  Biso   1.000  H
  H47      1.0000 0.53811  0.81992  0.53213  Biso   1.000  H
  H48      1.0000 0.48603  0.78570  0.55910  Biso   1.000  H
  C49      1.0000 0.45256  0.32754  0.21235  Biso   1.000  C
  N13      1.0000 0.48802  0.28928  0.19912  Biso   1.000  N
  H49      1.0000 0.45871  0.34862  0.24619  Biso   1.000  H
  C50      1.0000 0.40248  0.34085  0.17783  Biso   1.000  C
  C51      1.0000 0.53450  0.28008  0.23826  Biso   1.000  C
  C52      1.0000 0.36940  0.38763  0.19182  Biso   1.000  C
  C53      1.0000 0.38763  0.30816  0.13062  Biso   1.000  C
  C54      1.0000 0.53450  0.21994  0.26176  Biso   1.000  C
  H50      1.0000 0.53162  0.30769  0.27033  Biso   1.000  H
  C55      1.0000 0.59311  0.28483  0.21104  Biso   1.000  C
  C56      1.0000 0.32215  0.40248  0.15917  Biso   1.000  C
  H51      1.0000 0.37902  0.40981  0.22410  Biso   1.000  H
  C57      1.0000 0.34085  0.32215  0.09754  Biso   1.000  C
  H52      1.0000 0.40981  0.27592  0.12100  Biso   1.000  H
  N14      1.0000 0.48802  0.21074  0.30086  Biso   1.000  N
  H53      1.0000 0.53162  0.19229  0.22970  Biso   1.000  H
  C58      1.0000 0.59311  0.21519  0.28899  Biso   1.000  C
  C59      1.0000 0.63141  0.26256  0.25981  Biso   1.000  C
  C60      1.0000 0.63141  0.23746  0.24021  Biso   1.000  C
  H54      1.0000 0.60333  0.32389  0.19950  Biso   1.000  H
  H55      1.0000 0.59540  0.26201  0.17592  Biso   1.000  H
  H56      1.0000 0.60931  0.32300  0.21769  Biso   1.000  H
  H57      1.0000 0.59070  0.27830  0.16960  Biso   1.000  H
  C61      1.0000 0.28763  0.45256  0.17248  Biso   1.000  C
  C62      1.0000 0.30816  0.36940  0.11239  Biso   1.000  C
  C63      1.0000 0.32754  0.28763  0.04742  Biso   1.000  C
  C64      1.0000 0.45256  0.17248  0.28763  Biso   1.000  C
  H58      1.0000 0.60333  0.17609  0.30052  Biso   1.000  H
  H59      1.0000 0.59540  0.23801  0.32410  Biso   1.000  H
  H60      1.0000 0.60931  0.17702  0.28229  Biso   1.000  H
  H61      1.0000 0.59070  0.22172  0.33042  Biso   1.000  H
  H62      1.0000 0.64082  0.29323  0.28691  Biso   1.000  H
  H63      1.0000 0.66703  0.24611  0.24479  Biso   1.000  H
  H64      1.0000 0.66703  0.25391  0.25518  Biso   1.000  H
  H65      1.0000 0.64082  0.20679  0.21311  Biso   1.000  H
  N15      1.0000 0.30086  0.48802  0.21074  Biso   1.000  N
  H66      1.0000 0.25379  0.45871  0.15141  Biso   1.000  H
  H67      1.0000 0.27592  0.37902  0.09021  Biso   1.000  H
  N16      1.0000 0.28928  0.30086  0.01200  Biso   1.000  N
  H68      1.0000 0.34862  0.25379  0.04131  Biso   1.000  H
  C65      1.0000 0.40248  0.15917  0.32215  Biso   1.000  C
  H69      1.0000 0.45871  0.15141  0.25379  Biso   1.000  H
  C66      1.0000 0.26176  0.53450  0.21994  Biso   1.000  C
  C67      1.0000 0.28008  0.26176  0.96556  Biso   1.000  C
  C68      1.0000 0.38763  0.19182  0.36940  Biso   1.000  C
  C69      1.0000 0.36940  0.11239  0.30816  Biso   1.000  C
  C70      1.0000 0.23826  0.53450  0.28008  Biso   1.000  C
  H70      1.0000 0.22970  0.53162  0.19229  Biso   1.000  H
  C71      1.0000 0.28899  0.59311  0.21519  Biso   1.000  C
  C72      1.0000 0.21994  0.23826  0.96556  Biso   1.000  C
  H71      1.0000 0.30769  0.22970  0.96840  Biso   1.000  H
  C73      1.0000 0.28483  0.28899  0.90691  Biso   1.000  C
  C74      1.0000 0.34085  0.17783  0.40248  Biso   1.000  C
  H72      1.0000 0.40981  0.22410  0.37902  Biso   1.000  H
  C75      1.0000 0.32215  0.09754  0.34085  Biso   1.000  C
  H73      1.0000 0.37902  0.09021  0.27592  Biso   1.000  H
  N17      1.0000 0.19912  0.48802  0.28928  Biso   1.000  N
  H74      1.0000 0.27033  0.53162  0.30769  Biso   1.000  H
  C76      1.0000 0.21104  0.59311  0.28483  Biso   1.000  C
  H75      1.0000 0.30052  0.60333  0.17609  Biso   1.000  H
  H76      1.0000 0.32410  0.59540  0.23801  Biso   1.000  H
  C77      1.0000 0.25981  0.63141  0.26256  Biso   1.000  C
  C78      1.0000 0.24021  0.63141  0.23746  Biso   1.000  C
  H77      1.0000 0.28229  0.60931  0.17702  Biso   1.000  H
  H78      1.0000 0.33042  0.59070  0.22172  Biso   1.000  H
  N18      1.0000 0.21074  0.19912  0.01200  Biso   1.000  N
  H79      1.0000 0.19229  0.27033  0.96840  Biso   1.000  H
  C79      1.0000 0.21519  0.21104  0.90691  Biso   1.000  C
  H80      1.0000 0.32389  0.30052  0.89673  Biso   1.000  H
  H81      1.0000 0.26201  0.32410  0.90462  Biso   1.000  H
  C80      1.0000 0.26256  0.24021  0.86865  Biso   1.000  C
  C81      1.0000 0.23746  0.25981  0.86865  Biso   1.000  C
  H82      1.0000 0.32300  0.28229  0.89071  Biso   1.000  H
  H83      1.0000 0.27830  0.33042  0.90933  Biso   1.000  H
  C82      1.0000 0.32754  0.21235  0.45256  Biso   1.000  C
  C83      1.0000 0.30816  0.13062  0.38763  Biso   1.000  C
  C84      1.0000 0.28763  0.04742  0.32754  Biso   1.000  C
  C85      1.0000 0.21235  0.45256  0.32754  Biso   1.000  C
  H84      1.0000 0.19950  0.60333  0.32389  Biso   1.000  H
  H85      1.0000 0.17592  0.59540  0.26201  Biso   1.000  H
  H86      1.0000 0.21769  0.60931  0.32300  Biso   1.000  H
  H87      1.0000 0.16960  0.59070  0.27830  Biso   1.000  H
  H88      1.0000 0.28691  0.64082  0.29323  Biso   1.000  H
  H89      1.0000 0.24479  0.66703  0.24611  Biso   1.000  H
  H90      1.0000 0.25518  0.66703  0.25391  Biso   1.000  H
  H91      1.0000 0.21311  0.64082  0.20679  Biso   1.000  H
  C86      1.0000 0.17248  0.21235  0.04742  Biso   1.000  C
  H92      1.0000 0.17609  0.19950  0.89673  Biso   1.000  H
  H93      1.0000 0.23801  0.17592  0.90462  Biso   1.000  H
  H94      1.0000 0.17702  0.21769  0.89071  Biso   1.000  H
  H95      1.0000 0.22172  0.16960  0.90933  Biso   1.000  H
  H96      1.0000 0.29323  0.21311  0.85924  Biso   1.000  H
  H97      1.0000 0.24611  0.25518  0.83303  Biso   1.000  H
  H98      1.0000 0.25391  0.24479  0.83303  Biso   1.000  H
  H99      1.0000 0.20679  0.28691  0.85924  Biso   1.000  H
  N19      1.0000 0.28928  0.19912  0.48802  Biso   1.000  N
  H100     1.0000 0.34862  0.24619  0.45871  Biso   1.000  H
  H101     1.0000 0.27592  0.12100  0.40981  Biso   1.000  H
  N20      1.0000 0.30086  0.01200  0.28928  Biso   1.000  N
  H102     1.0000 0.25379  0.04131  0.34862  Biso   1.000  H
  C87      1.0000 0.17783  0.40248  0.34085  Biso   1.000  C
  H103     1.0000 0.24619  0.45871  0.34862  Biso   1.000  H
  C88      1.0000 0.15917  0.17783  0.09754  Biso   1.000  C
  H104     1.0000 0.15141  0.24619  0.04131  Biso   1.000  H
  C89      1.0000 0.28008  0.23826  0.53450  Biso   1.000  C
  C90      1.0000 0.26176  0.96556  0.28008  Biso   1.000  C
  C91      1.0000 0.19182  0.36940  0.38763  Biso   1.000  C
  C92      1.0000 0.13062  0.38763  0.30816  Biso   1.000  C
  C93      1.0000 0.19182  0.13062  0.11239  Biso   1.000  C
  C94      1.0000 0.11239  0.19182  0.13062  Biso   1.000  C
  C95      1.0000 0.21994  0.26176  0.53450  Biso   1.000  C
  H105     1.0000 0.30769  0.27033  0.53162  Biso   1.000  H
  C96      1.0000 0.28483  0.21104  0.59311  Biso   1.000  C
  C97      1.0000 0.23826  0.96556  0.21994  Biso   1.000  C
  H106     1.0000 0.22970  0.96840  0.30769  Biso   1.000  H
  C98      1.0000 0.28899  0.90691  0.28483  Biso   1.000  C
  C99      1.0000 0.15917  0.32215  0.40248  Biso   1.000  C
  H107     1.0000 0.22410  0.37902  0.40981  Biso   1.000  H
  C100     1.0000 0.09754  0.34085  0.32215  Biso   1.000  C
  H108     1.0000 0.12100  0.40981  0.27592  Biso   1.000  H
  C101     1.0000 0.17783  0.09754  0.15917  Biso   1.000  C
  H109     1.0000 0.22410  0.12100  0.09021  Biso   1.000  H
  C102     1.0000 0.09754  0.15917  0.17783  Biso   1.000  C
  H110     1.0000 0.09021  0.22410  0.12100  Biso   1.000  H
  N21      1.0000 0.21074  0.30086  0.48802  Biso   1.000  N
  H111     1.0000 0.19229  0.22970  0.53162  Biso   1.000  H
  C103     1.0000 0.21519  0.28899  0.59311  Biso   1.000  C
  H112     1.0000 0.32389  0.19950  0.60333  Biso   1.000  H
  H113     1.0000 0.26201  0.17592  0.59540  Biso   1.000  H
  C104     1.0000 0.26256  0.25981  0.63141  Biso   1.000  C
  C105     1.0000 0.23746  0.24021  0.63141  Biso   1.000  C
  H114     1.0000 0.32300  0.21769  0.60931  Biso   1.000  H
  H115     1.0000 0.27830  0.16960  0.59070  Biso   1.000  H
  N22      1.0000 0.19912  0.01200  0.21074  Biso   1.000  N
  H116     1.0000 0.27033  0.96840  0.19229  Biso   1.000  H
  C106     1.0000 0.21104  0.90691  0.21519  Biso   1.000  C
  H117     1.0000 0.30052  0.89673  0.32389  Biso   1.000  H
  H118     1.0000 0.32410  0.90462  0.26201  Biso   1.000  H
  C107     1.0000 0.25981  0.86865  0.23746  Biso   1.000  C
  C108     1.0000 0.24021  0.86865  0.26256  Biso   1.000  C
  H119     1.0000 0.28229  0.89071  0.32300  Biso   1.000  H
  H120     1.0000 0.33042  0.90933  0.27830  Biso   1.000  H
  C109     1.0000 0.17248  0.28763  0.45256  Biso   1.000  C
  C110     1.0000 0.11239  0.30816  0.36940  Biso   1.000  C
  C111     1.0000 0.04742  0.32754  0.28763  Biso   1.000  C
  C112     1.0000 0.21235  0.04742  0.17248  Biso   1.000  C
  C113     1.0000 0.13062  0.11239  0.19182  Biso   1.000  C
  C114     1.0000 0.04742  0.17248  0.21235  Biso   1.000  C
  H121     1.0000 0.17609  0.30052  0.60333  Biso   1.000  H
  H122     1.0000 0.23801  0.32410  0.59540  Biso   1.000  H
  H123     1.0000 0.17702  0.28229  0.60931  Biso   1.000  H
  H124     1.0000 0.22172  0.33042  0.59070  Biso   1.000  H
  H125     1.0000 0.29323  0.28691  0.64082  Biso   1.000  H
  H126     1.0000 0.24611  0.24479  0.66703  Biso   1.000  H
  H127     1.0000 0.25391  0.25518  0.66703  Biso   1.000  H
  H128     1.0000 0.20679  0.21311  0.64082  Biso   1.000  H
  H129     1.0000 0.19950  0.89673  0.17609  Biso   1.000  H
  H130     1.0000 0.17592  0.90462  0.23801  Biso   1.000  H
  H131     1.0000 0.21769  0.89071  0.17702  Biso   1.000  H
  H132     1.0000 0.16960  0.90933  0.22172  Biso   1.000  H
  H133     1.0000 0.28691  0.85924  0.20679  Biso   1.000  H
  H134     1.0000 0.24479  0.83303  0.25391  Biso   1.000  H
  H135     1.0000 0.25518  0.83303  0.24611  Biso   1.000  H
  H136     1.0000 0.21311  0.85924  0.29323  Biso   1.000  H
  H137     1.0000 0.15141  0.25379  0.45871  Biso   1.000  H
  H138     1.0000 0.09021  0.27592  0.37902  Biso   1.000  H
  N23      1.0000 0.01200  0.28928  0.30086  Biso   1.000  N
  H139     1.0000 0.04131  0.34862  0.25379  Biso   1.000  H
  H140     1.0000 0.24619  0.04131  0.15141  Biso   1.000  H
  H141     1.0000 0.12100  0.09021  0.22410  Biso   1.000  H
  N24      1.0000 0.01200  0.21074  0.19912  Biso   1.000  N
  H142     1.0000 0.04131  0.15141  0.24619  Biso   1.000  H
  C115     1.0000 0.96556  0.28008  0.26176  Biso   1.000  C
  C116     1.0000 0.96556  0.21994  0.23826  Biso   1.000  C
  H143     1.0000 0.96840  0.30769  0.22970  Biso   1.000  H
  C117     1.0000 0.90691  0.28483  0.28899  Biso   1.000  C
  H144     1.0000 0.96840  0.19229  0.27033  Biso   1.000  H
  C118     1.0000 0.90691  0.21519  0.21104  Biso   1.000  C
  H145     1.0000 0.89673  0.32389  0.30052  Biso   1.000  H
  H146     1.0000 0.90462  0.26201  0.32410  Biso   1.000  H
  C119     1.0000 0.86865  0.26256  0.24021  Biso   1.000  C
  C120     1.0000 0.86865  0.23746  0.25981  Biso   1.000  C
  H147     1.0000 0.89071  0.32300  0.28229  Biso   1.000  H
  H148     1.0000 0.90933  0.27830  0.33042  Biso   1.000  H
  H149     1.0000 0.89673  0.17609  0.19950  Biso   1.000  H
  H150     1.0000 0.90462  0.23801  0.17592  Biso   1.000  H
  H151     1.0000 0.89071  0.17702  0.21769  Biso   1.000  H
  H152     1.0000 0.90933  0.22172  0.16960  Biso   1.000  H
  H153     1.0000 0.85924  0.29323  0.21311  Biso   1.000  H
  H154     1.0000 0.83303  0.24611  0.25518  Biso   1.000  H
  H155     1.0000 0.83303  0.25391  0.24479  Biso   1.000  H
  H156     1.0000 0.85924  0.20679  0.28691  Biso   1.000  H
  C121     1.0000 0.71106  0.40689  0.21519  Biso   1.000  C
  C122     1.0000 0.73824  0.46554  0.21994  Biso   1.000  C
  H157     1.0000 0.69952  0.39671  0.17609  Biso   1.000  H
  H158     1.0000 0.67590  0.40460  0.23801  Biso   1.000  H
  C123     1.0000 0.74023  0.36863  0.26256  Biso   1.000  C
  C124     1.0000 0.75983  0.36863  0.23746  Biso   1.000  C
  H159     1.0000 0.71771  0.39073  0.17702  Biso   1.000  H
  H160     1.0000 0.66962  0.40930  0.22172  Biso   1.000  H
  N25      1.0000 0.69914  0.51202  0.21074  Biso   1.000  N
  C125     1.0000 0.76178  0.46554  0.28008  Biso   1.000  C
  H161     1.0000 0.77030  0.46843  0.19229  Biso   1.000  H
  C126     1.0000 0.78896  0.40689  0.28483  Biso   1.000  C
  H162     1.0000 0.71313  0.35922  0.29323  Biso   1.000  H
  H163     1.0000 0.75521  0.33301  0.24611  Biso   1.000  H
  H164     1.0000 0.74482  0.33301  0.25391  Biso   1.000  H
  H165     1.0000 0.78693  0.35922  0.20679  Biso   1.000  H
  C127     1.0000 0.71237  0.54744  0.17248  Biso   1.000  C
  N26      1.0000 0.80088  0.51202  0.28928  Biso   1.000  N
  H166     1.0000 0.72972  0.46843  0.30769  Biso   1.000  H
  H167     1.0000 0.80050  0.39671  0.32389  Biso   1.000  H
  H168     1.0000 0.82412  0.40460  0.26201  Biso   1.000  H
  H169     1.0000 0.78231  0.39073  0.32300  Biso   1.000  H
  H170     1.0000 0.83040  0.40930  0.27830  Biso   1.000  H
  H171     1.0000 0.74621  0.54133  0.15141  Biso   1.000  H
  C128     1.0000 0.67785  0.59752  0.15917  Biso   1.000  C
  C129     1.0000 0.78765  0.54744  0.32754  Biso   1.000  C
  C130     1.0000 0.63065  0.61241  0.19182  Biso   1.000  C
  C131     1.0000 0.69184  0.63065  0.11239  Biso   1.000  C
  H172     1.0000 0.75381  0.54133  0.34862  Biso   1.000  H
  C132     1.0000 0.82217  0.59752  0.34085  Biso   1.000  C
  C133     1.0000 0.59752  0.65915  0.17783  Biso   1.000  C
  H173     1.0000 0.62102  0.59023  0.22410  Biso   1.000  H
  C134     1.0000 0.65915  0.67785  0.09754  Biso   1.000  C
  H174     1.0000 0.72412  0.62102  0.09021  Biso   1.000  H
  C135     1.0000 0.80818  0.63065  0.38763  Biso   1.000  C
  C136     1.0000 0.86938  0.61241  0.30816  Biso   1.000  C
  C137     1.0000 0.54744  0.67246  0.21235  Biso   1.000  C
  C138     1.0000 0.61241  0.69184  0.13062  Biso   1.000  C
  C139     1.0000 0.67246  0.71237  0.04742  Biso   1.000  C
  C140     1.0000 0.84088  0.67785  0.40248  Biso   1.000  C
  H175     1.0000 0.77590  0.62102  0.40981  Biso   1.000  H
  C141     1.0000 0.90250  0.65915  0.32215  Biso   1.000  C
  H176     1.0000 0.87900  0.59023  0.27592  Biso   1.000  H
  N27      1.0000 0.51202  0.71076  0.19912  Biso   1.000  N
  H177     1.0000 0.54133  0.65143  0.24619  Biso   1.000  H
  H178     1.0000 0.59023  0.72412  0.12100  Biso   1.000  H
  N28      1.0000 0.71076  0.69914  0.01200  Biso   1.000  N
  H179     1.0000 0.65143  0.74621  0.04131  Biso   1.000  H
  C142     1.0000 0.82756  0.71237  0.45256  Biso   1.000  C
  C143     1.0000 0.88761  0.69184  0.36940  Biso   1.000  C
  C144     1.0000 0.95258  0.67246  0.28763  Biso   1.000  C
  C145     1.0000 0.46554  0.71996  0.23826  Biso   1.000  C
  C146     1.0000 0.71996  0.73824  0.96556  Biso   1.000  C
  N29      1.0000 0.78930  0.69914  0.48802  Biso   1.000  N
  H180     1.0000 0.84864  0.74621  0.45871  Biso   1.000  H
  H181     1.0000 0.90984  0.72412  0.37902  Biso   1.000  H
  N30      1.0000 0.98800  0.71076  0.30086  Biso   1.000  N
  H182     1.0000 0.95873  0.65143  0.25379  Biso   1.000  H
  C147     1.0000 0.46554  0.78006  0.26176  Biso   1.000  C
  H183     1.0000 0.46843  0.69231  0.27033  Biso   1.000  H
  C148     1.0000 0.40689  0.71521  0.21104  Biso   1.000  C
  C149     1.0000 0.78006  0.76178  0.96556  Biso   1.000  C
  H184     1.0000 0.69231  0.77030  0.96840  Biso   1.000  H
  C150     1.0000 0.71521  0.71106  0.90691  Biso   1.000  C
  C151     1.0000 0.78006  0.73824  0.53450  Biso   1.000  C
  C152     1.0000 0.03448  0.71996  0.26176  Biso   1.000  C
  N31      1.0000 0.51202  0.78930  0.30086  Biso   1.000  N
  H185     1.0000 0.46843  0.80771  0.22970  Biso   1.000  H
  C153     1.0000 0.40689  0.78481  0.28899  Biso   1.000  C
  H186     1.0000 0.39671  0.67611  0.19950  Biso   1.000  H
  H187     1.0000 0.40460  0.73803  0.17592  Biso   1.000  H
  C154     1.0000 0.36863  0.73744  0.25981  Biso   1.000  C
  C155     1.0000 0.36863  0.76259  0.24021  Biso   1.000  C
  H188     1.0000 0.39073  0.67700  0.21769  Biso   1.000  H
  H189     1.0000 0.40930  0.72170  0.16960  Biso   1.000  H
  N32      1.0000 0.78930  0.80088  0.01200  Biso   1.000  N
  H190     1.0000 0.80771  0.72972  0.96840  Biso   1.000  H
  C156     1.0000 0.78481  0.78896  0.90691  Biso   1.000  C
  H191     1.0000 0.67611  0.69952  0.89673  Biso   1.000  H
  H192     1.0000 0.73803  0.67590  0.90462  Biso   1.000  H
  C157     1.0000 0.73744  0.75983  0.86865  Biso   1.000  C
  C158     1.0000 0.76259  0.74023  0.86865  Biso   1.000  C
  H193     1.0000 0.67700  0.71771  0.89071  Biso   1.000  H
  H194     1.0000 0.72170  0.66962  0.90933  Biso   1.000  H
  C159     1.0000 0.71996  0.76178  0.53450  Biso   1.000  C
  H195     1.0000 0.80771  0.77030  0.53162  Biso   1.000  H
  C160     1.0000 0.78481  0.71106  0.59311  Biso   1.000  C
  C161     1.0000 0.03448  0.78006  0.23826  Biso   1.000  C
  H196     1.0000 0.03160  0.69231  0.22970  Biso   1.000  H
  C162     1.0000 0.09313  0.71521  0.28899  Biso   1.000  C
  C163     1.0000 0.54744  0.82756  0.28763  Biso   1.000  C
  H197     1.0000 0.39671  0.82391  0.30052  Biso   1.000  H
  H198     1.0000 0.40460  0.76203  0.32410  Biso   1.000  H
  H199     1.0000 0.39073  0.82302  0.28229  Biso   1.000  H
  H200     1.0000 0.40930  0.77832  0.33042  Biso   1.000  H
  H201     1.0000 0.35922  0.70682  0.28691  Biso   1.000  H
  H202     1.0000 0.33301  0.75393  0.24479  Biso   1.000  H
  H203     1.0000 0.33301  0.74613  0.25518  Biso   1.000  H
  H204     1.0000 0.35922  0.79321  0.21311  Biso   1.000  H
  C164     1.0000 0.82756  0.78765  0.04742  Biso   1.000  C
  H205     1.0000 0.82391  0.80050  0.89673  Biso   1.000  H
  H206     1.0000 0.76203  0.82412  0.90462  Biso   1.000  H
  H207     1.0000 0.82302  0.78231  0.89071  Biso   1.000  H
  H208     1.0000 0.77832  0.83040  0.90933  Biso   1.000  H
  H209     1.0000 0.70682  0.78693  0.85924  Biso   1.000  H
  H210     1.0000 0.75393  0.74482  0.83303  Biso   1.000  H
  H211     1.0000 0.74613  0.75521  0.83303  Biso   1.000  H
  H212     1.0000 0.79321  0.71313  0.85924  Biso   1.000  H
  N33      1.0000 0.71076  0.80088  0.48802  Biso   1.000  N
  H213     1.0000 0.69231  0.72972  0.53162  Biso   1.000  H
  C165     1.0000 0.71521  0.78896  0.59311  Biso   1.000  C
  H214     1.0000 0.82391  0.69952  0.60333  Biso   1.000  H
  H215     1.0000 0.76203  0.67590  0.59540  Biso   1.000  H
  C166     1.0000 0.73744  0.74023  0.63141  Biso   1.000  C
  C167     1.0000 0.76259  0.75983  0.63141  Biso   1.000  C
  H216     1.0000 0.82302  0.71771  0.60931  Biso   1.000  H
  H217     1.0000 0.77832  0.66962  0.59070  Biso   1.000  H
  N34      1.0000 0.98800  0.78930  0.19912  Biso   1.000  N
  H218     1.0000 0.03160  0.80771  0.27033  Biso   1.000  H
  C168     1.0000 0.09313  0.78481  0.21104  Biso   1.000  C
  H219     1.0000 0.10331  0.67611  0.30052  Biso   1.000  H
  H220     1.0000 0.09538  0.73803  0.32410  Biso   1.000  H
  C169     1.0000 0.13139  0.73744  0.24021  Biso   1.000  C
  C170     1.0000 0.13139  0.76259  0.25981  Biso   1.000  C
  H221     1.0000 0.10929  0.67700  0.28229  Biso   1.000  H
  H222     1.0000 0.09072  0.72170  0.33042  Biso   1.000  H
  H223     1.0000 0.54133  0.84864  0.25379  Biso   1.000  H
  C171     1.0000 0.59752  0.84088  0.32215  Biso   1.000  C
  H224     1.0000 0.84864  0.75381  0.04131  Biso   1.000  H
  C172     1.0000 0.84088  0.82217  0.09754  Biso   1.000  C
  C173     1.0000 0.67246  0.78765  0.45256  Biso   1.000  C
  H225     1.0000 0.67611  0.80050  0.60333  Biso   1.000  H
  H226     1.0000 0.73803  0.82412  0.59540  Biso   1.000  H
  H227     1.0000 0.67700  0.78231  0.60931  Biso   1.000  H
  H228     1.0000 0.72170  0.83040  0.59070  Biso   1.000  H
  H229     1.0000 0.70682  0.71313  0.64082  Biso   1.000  H
  H230     1.0000 0.75393  0.75521  0.66703  Biso   1.000  H
  H231     1.0000 0.74613  0.74482  0.66703  Biso   1.000  H
  H232     1.0000 0.79321  0.78693  0.64082  Biso   1.000  H
  C174     1.0000 0.95258  0.82756  0.21235  Biso   1.000  C
  H233     1.0000 0.10331  0.82391  0.19950  Biso   1.000  H
  H234     1.0000 0.09538  0.76203  0.17592  Biso   1.000  H
  H235     1.0000 0.10929  0.82302  0.21769  Biso   1.000  H
  H236     1.0000 0.09072  0.77832  0.16960  Biso   1.000  H
  H237     1.0000 0.14080  0.70682  0.21311  Biso   1.000  H
  H238     1.0000 0.16701  0.75393  0.25518  Biso   1.000  H
  H239     1.0000 0.16701  0.74613  0.24479  Biso   1.000  H
  H240     1.0000 0.14080  0.79321  0.28691  Biso   1.000  H
  C175     1.0000 0.61241  0.80818  0.36940  Biso   1.000  C
  C176     1.0000 0.63065  0.88761  0.30816  Biso   1.000  C
  C177     1.0000 0.80818  0.86938  0.11239  Biso   1.000  C
  C178     1.0000 0.88761  0.80818  0.13062  Biso   1.000  C
  H241     1.0000 0.65143  0.75381  0.45871  Biso   1.000  H
  C179     1.0000 0.65915  0.82217  0.40248  Biso   1.000  C
  H242     1.0000 0.95873  0.84864  0.24619  Biso   1.000  H
  C180     1.0000 0.90250  0.84088  0.17783  Biso   1.000  C
  H243     1.0000 0.59023  0.77590  0.37902  Biso   1.000  H
  C181     1.0000 0.67785  0.90250  0.34085  Biso   1.000  C
  H244     1.0000 0.62102  0.90984  0.27592  Biso   1.000  H
  C182     1.0000 0.82217  0.90250  0.15917  Biso   1.000  C
  H245     1.0000 0.77590  0.87900  0.09021  Biso   1.000  H
  H246     1.0000 0.90984  0.77590  0.12100  Biso   1.000  H
  C183     1.0000 0.69184  0.86938  0.38763  Biso   1.000  C
  C184     1.0000 0.86938  0.88761  0.19182  Biso   1.000  C
  C185     1.0000 0.71237  0.95258  0.32754  Biso   1.000  C
  C186     1.0000 0.78765  0.95258  0.17248  Biso   1.000  C
  H247     1.0000 0.72412  0.87900  0.40981  Biso   1.000  H
  H248     1.0000 0.87900  0.90984  0.22410  Biso   1.000  H
  N35      1.0000 0.69914  0.98800  0.28928  Biso   1.000  N
  H249     1.0000 0.74621  0.95873  0.34862  Biso   1.000  H
  N36      1.0000 0.80088  0.98800  0.21074  Biso   1.000  N
  H250     1.0000 0.75381  0.95873  0.15141  Biso   1.000  H
  C187     1.0000 0.73824  0.03448  0.28008  Biso   1.000  C
  C188     1.0000 0.76178  0.03448  0.21994  Biso   1.000  C
  H251     1.0000 0.77030  0.03160  0.30769  Biso   1.000  H
  C189     1.0000 0.71106  0.09313  0.28483  Biso   1.000  C
  H252     1.0000 0.72972  0.03160  0.19229  Biso   1.000  H
  C190     1.0000 0.78896  0.09313  0.21519  Biso   1.000  C
  H253     1.0000 0.69952  0.10331  0.32389  Biso   1.000  H
  H254     1.0000 0.67590  0.09538  0.26201  Biso   1.000  H
  C191     1.0000 0.74023  0.13139  0.23746  Biso   1.000  C
  C192     1.0000 0.75983  0.13139  0.26256  Biso   1.000  C
  H255     1.0000 0.71771  0.10929  0.32300  Biso   1.000  H
  H256     1.0000 0.66962  0.09072  0.27830  Biso   1.000  H
  H257     1.0000 0.80050  0.10331  0.17609  Biso   1.000  H
  H258     1.0000 0.82412  0.09538  0.23801  Biso   1.000  H
  H259     1.0000 0.78231  0.10929  0.17702  Biso   1.000  H
  H260     1.0000 0.83040  0.09072  0.22172  Biso   1.000  H
  H261     1.0000 0.71313  0.14080  0.20679  Biso   1.000  H
  H262     1.0000 0.75521  0.16701  0.25391  Biso   1.000  H
  H263     1.0000 0.74482  0.16701  0.24611  Biso   1.000  H
  H264     1.0000 0.78693  0.14080  0.29323  Biso   1.000  H
  C193     1.0000 0.67246  0.21235  0.54744  Biso   1.000  C
  N37      1.0000 0.71076  0.19912  0.51202  Biso   1.000  N
  H265     1.0000 0.65143  0.24619  0.54133  Biso   1.000  H
  C194     1.0000 0.65915  0.17783  0.59752  Biso   1.000  C
  C195     1.0000 0.71996  0.23826  0.46554  Biso   1.000  C
  C196     1.0000 0.61241  0.19182  0.63065  Biso   1.000  C
  C197     1.0000 0.69184  0.13062  0.61241  Biso   1.000  C
  C198     1.0000 0.71521  0.21104  0.40689  Biso   1.000  C
  C199     1.0000 0.78006  0.26176  0.46554  Biso   1.000  C
  H266     1.0000 0.69231  0.27033  0.46843  Biso   1.000  H
  C200     1.0000 0.59752  0.15917  0.67785  Biso   1.000  C
  H267     1.0000 0.59023  0.22410  0.62102  Biso   1.000  H
  C201     1.0000 0.67785  0.09754  0.65915  Biso   1.000  C
  H268     1.0000 0.72412  0.12100  0.59023  Biso   1.000  H
  H269     1.0000 0.67611  0.19950  0.39671  Biso   1.000  H
  H270     1.0000 0.73803  0.17592  0.40460  Biso   1.000  H
  C202     1.0000 0.73744  0.25981  0.36863  Biso   1.000  C
  C203     1.0000 0.76259  0.24021  0.36863  Biso   1.000  C
  H271     1.0000 0.67700  0.21769  0.39073  Biso   1.000  H
  H272     1.0000 0.72170  0.16960  0.40930  Biso   1.000  H
  C204     1.0000 0.78481  0.28899  0.40689  Biso   1.000  C
  N38      1.0000 0.78930  0.30086  0.51202  Biso   1.000  N
  H273     1.0000 0.80771  0.22970  0.46843  Biso   1.000  H
  C205     1.0000 0.54744  0.17248  0.71237  Biso   1.000  C
  C206     1.0000 0.63065  0.11239  0.69184  Biso   1.000  C
  C207     1.0000 0.71237  0.04742  0.67246  Biso   1.000  C
  H274     1.0000 0.70682  0.28691  0.35922  Biso   1.000  H
  H275     1.0000 0.75393  0.24479  0.33301  Biso   1.000  H
  H276     1.0000 0.74613  0.25518  0.33301  Biso   1.000  H
  H277     1.0000 0.79321  0.21311  0.35922  Biso   1.000  H
  H278     1.0000 0.82391  0.30052  0.39671  Biso   1.000  H
  H279     1.0000 0.76203  0.32410  0.40460  Biso   1.000  H
  H280     1.0000 0.82302  0.28229  0.39073  Biso   1.000  H
  H281     1.0000 0.77832  0.33042  0.40930  Biso   1.000  H
  C208     1.0000 0.82756  0.28763  0.54744  Biso   1.000  C
  N39      1.0000 0.51202  0.21074  0.69914  Biso   1.000  N
  H282     1.0000 0.54133  0.15141  0.74621  Biso   1.000  H
  H283     1.0000 0.62102  0.09021  0.72412  Biso   1.000  H
  N40      1.0000 0.69914  0.01200  0.71076  Biso   1.000  N
  H284     1.0000 0.74621  0.04131  0.65143  Biso   1.000  H
  H285     1.0000 0.84864  0.25379  0.54133  Biso   1.000  H
  C209     1.0000 0.84088  0.32215  0.59752  Biso   1.000  C
  C210     1.0000 0.46554  0.21994  0.73824  Biso   1.000  C
  C211     1.0000 0.73824  0.96556  0.71996  Biso   1.000  C
  C212     1.0000 0.80818  0.36940  0.61241  Biso   1.000  C
  C213     1.0000 0.88761  0.30816  0.63065  Biso   1.000  C
  C214     1.0000 0.46554  0.28008  0.76178  Biso   1.000  C
  H286     1.0000 0.46843  0.19229  0.77030  Biso   1.000  H
  C215     1.0000 0.40689  0.21519  0.71106  Biso   1.000  C
  C216     1.0000 0.76178  0.96556  0.78006  Biso   1.000  C
  H287     1.0000 0.77030  0.96840  0.69231  Biso   1.000  H
  C217     1.0000 0.71106  0.90691  0.71521  Biso   1.000  C
  C218     1.0000 0.82217  0.40248  0.65915  Biso   1.000  C
  H288     1.0000 0.77590  0.37902  0.59023  Biso   1.000  H
  C219     1.0000 0.90250  0.34085  0.67785  Biso   1.000  C
  H289     1.0000 0.90984  0.27592  0.62102  Biso   1.000  H
  N41      1.0000 0.51202  0.28928  0.80088  Biso   1.000  N
  H290     1.0000 0.46843  0.30769  0.72972  Biso   1.000  H
  C220     1.0000 0.40689  0.28483  0.78896  Biso   1.000  C
  H291     1.0000 0.39671  0.17609  0.69952  Biso   1.000  H
  H292     1.0000 0.40460  0.23801  0.67590  Biso   1.000  H
  C221     1.0000 0.36863  0.26256  0.74023  Biso   1.000  C
  C222     1.0000 0.36863  0.23746  0.75983  Biso   1.000  C
  H293     1.0000 0.39073  0.17702  0.71771  Biso   1.000  H
  H294     1.0000 0.40930  0.22172  0.66962  Biso   1.000  H
  N42      1.0000 0.80088  0.01200  0.78930  Biso   1.000  N
  H295     1.0000 0.72972  0.96840  0.80771  Biso   1.000  H
  C223     1.0000 0.78896  0.90691  0.78481  Biso   1.000  C
  H296     1.0000 0.69952  0.89673  0.67611  Biso   1.000  H
  H297     1.0000 0.67590  0.90462  0.73803  Biso   1.000  H
  C224     1.0000 0.74023  0.86865  0.76259  Biso   1.000  C
  C225     1.0000 0.75983  0.86865  0.73744  Biso   1.000  C
  H298     1.0000 0.71771  0.89071  0.67700  Biso   1.000  H
  H299     1.0000 0.66962  0.90933  0.72170  Biso   1.000  H
  C226     1.0000 0.78765  0.45256  0.67246  Biso   1.000  C
  C227     1.0000 0.86938  0.38763  0.69184  Biso   1.000  C
  C228     1.0000 0.95258  0.32754  0.71237  Biso   1.000  C
  C229     1.0000 0.54744  0.32754  0.78765  Biso   1.000  C
  H300     1.0000 0.39671  0.32389  0.80050  Biso   1.000  H
  H301     1.0000 0.40460  0.26201  0.82412  Biso   1.000  H
  H302     1.0000 0.39073  0.32300  0.78231  Biso   1.000  H
  H303     1.0000 0.40930  0.27830  0.83040  Biso   1.000  H
  H304     1.0000 0.35922  0.29323  0.71313  Biso   1.000  H
  H305     1.0000 0.33301  0.24611  0.75521  Biso   1.000  H
  H306     1.0000 0.33301  0.25391  0.74482  Biso   1.000  H
  H307     1.0000 0.35922  0.20679  0.78693  Biso   1.000  H
  C230     1.0000 0.78765  0.04742  0.82756  Biso   1.000  C
  H308     1.0000 0.80050  0.89673  0.82391  Biso   1.000  H
  H309     1.0000 0.82412  0.90462  0.76203  Biso   1.000  H
  H310     1.0000 0.78231  0.89071  0.82302  Biso   1.000  H
  H311     1.0000 0.83040  0.90933  0.77832  Biso   1.000  H
  H312     1.0000 0.71313  0.85924  0.79321  Biso   1.000  H
  H313     1.0000 0.75521  0.83303  0.74613  Biso   1.000  H
  H314     1.0000 0.74482  0.83303  0.75393  Biso   1.000  H
  H315     1.0000 0.78693  0.85924  0.70682  Biso   1.000  H
  N43      1.0000 0.80088  0.48802  0.71076  Biso   1.000  N
  H316     1.0000 0.75381  0.45871  0.65143  Biso   1.000  H
  H317     1.0000 0.87900  0.40981  0.72412  Biso   1.000  H
  N44      1.0000 0.98800  0.28928  0.69914  Biso   1.000  N
  H318     1.0000 0.95873  0.34862  0.74621  Biso   1.000  H
  H319     1.0000 0.54133  0.34862  0.75381  Biso   1.000  H
  C231     1.0000 0.59752  0.34085  0.82217  Biso   1.000  C
  H320     1.0000 0.75381  0.04131  0.84864  Biso   1.000  H
  C232     1.0000 0.82217  0.09754  0.84088  Biso   1.000  C
  C233     1.0000 0.76178  0.53450  0.71996  Biso   1.000  C
  C234     1.0000 0.03448  0.28008  0.73824  Biso   1.000  C
  C235     1.0000 0.63065  0.38763  0.80818  Biso   1.000  C
  C236     1.0000 0.61241  0.30816  0.86938  Biso   1.000  C
  C237     1.0000 0.80818  0.13062  0.88761  Biso   1.000  C
  C238     1.0000 0.86938  0.11239  0.80818  Biso   1.000  C
  C239     1.0000 0.73824  0.53450  0.78006  Biso   1.000  C
  H321     1.0000 0.72972  0.53162  0.69231  Biso   1.000  H
  C240     1.0000 0.78896  0.59311  0.71521  Biso   1.000  C
  C241     1.0000 0.03448  0.21994  0.76178  Biso   1.000  C
  H322     1.0000 0.03160  0.30769  0.77030  Biso   1.000  H
  C242     1.0000 0.09313  0.28483  0.71106  Biso   1.000  C
  C243     1.0000 0.67785  0.40248  0.84088  Biso   1.000  C
  H323     1.0000 0.62102  0.40981  0.77590  Biso   1.000  H
  C244     1.0000 0.65915  0.32215  0.90250  Biso   1.000  C
  H324     1.0000 0.59023  0.27592  0.87900  Biso   1.000  H
  C245     1.0000 0.84088  0.17783  0.90250  Biso   1.000  C
  H325     1.0000 0.77590  0.12100  0.90984  Biso   1.000  H
  C246     1.0000 0.90250  0.15917  0.82217  Biso   1.000  C
  H326     1.0000 0.87900  0.09021  0.77590  Biso   1.000  H
  N45      1.0000 0.69914  0.48802  0.78930  Biso   1.000  N
  H327     1.0000 0.77030  0.53162  0.80771  Biso   1.000  H
  C247     1.0000 0.71106  0.59311  0.78481  Biso   1.000  C
  H328     1.0000 0.80050  0.60333  0.67611  Biso   1.000  H
  H329     1.0000 0.82412  0.59540  0.73803  Biso   1.000  H
  C248     1.0000 0.74023  0.63141  0.73744  Biso   1.000  C
  C249     1.0000 0.75983  0.63141  0.76259  Biso   1.000  C
  H330     1.0000 0.78231  0.60931  0.67700  Biso   1.000  H
  H331     1.0000 0.83040  0.59070  0.72170  Biso   1.000  H
  N46      1.0000 0.98800  0.21074  0.80088  Biso   1.000  N
  H332     1.0000 0.03160  0.19229  0.72972  Biso   1.000  H
  C250     1.0000 0.09313  0.21519  0.78896  Biso   1.000  C
  H333     1.0000 0.10331  0.32389  0.69952  Biso   1.000  H
  H334     1.0000 0.09538  0.26201  0.67590  Biso   1.000  H
  C251     1.0000 0.13139  0.26256  0.75983  Biso   1.000  C
  C252     1.0000 0.13139  0.23746  0.74023  Biso   1.000  C
  H335     1.0000 0.10929  0.32300  0.71771  Biso   1.000  H
  H336     1.0000 0.09072  0.27830  0.66962  Biso   1.000  H
  C253     1.0000 0.71237  0.45256  0.82756  Biso   1.000  C
  C254     1.0000 0.69184  0.36940  0.88761  Biso   1.000  C
  C255     1.0000 0.67246  0.28763  0.95258  Biso   1.000  C
  C256     1.0000 0.88761  0.19182  0.86938  Biso   1.000  C
  C257     1.0000 0.82756  0.21235  0.95258  Biso   1.000  C
  C258     1.0000 0.95258  0.17248  0.78765  Biso   1.000  C
  H337     1.0000 0.69952  0.60333  0.82391  Biso   1.000  H
  H338     1.0000 0.67590  0.59540  0.76203  Biso   1.000  H
  H339     1.0000 0.71771  0.60931  0.82302  Biso   1.000  H
  H340     1.0000 0.66962  0.59070  0.77832  Biso   1.000  H
  H341     1.0000 0.71313  0.64082  0.70682  Biso   1.000  H
  H342     1.0000 0.75521  0.66703  0.75393  Biso   1.000  H
  H343     1.0000 0.74482  0.66703  0.74613  Biso   1.000  H
  H344     1.0000 0.78693  0.64082  0.79321  Biso   1.000  H
  H345     1.0000 0.10331  0.17609  0.80050  Biso   1.000  H
  H346     1.0000 0.09538  0.23801  0.82412  Biso   1.000  H
  H347     1.0000 0.10929  0.17702  0.78231  Biso   1.000  H
  H348     1.0000 0.09072  0.22172  0.83040  Biso   1.000  H
  H349     1.0000 0.14080  0.29323  0.78693  Biso   1.000  H
  H350     1.0000 0.16701  0.24611  0.74482  Biso   1.000  H
  H351     1.0000 0.16701  0.25391  0.75521  Biso   1.000  H
  H352     1.0000 0.14080  0.20679  0.71313  Biso   1.000  H
  H353     1.0000 0.74621  0.45871  0.84864  Biso   1.000  H
  H354     1.0000 0.72412  0.37902  0.90984  Biso   1.000  H
  N47      1.0000 0.71076  0.30086  0.98800  Biso   1.000  N
  H355     1.0000 0.65143  0.25379  0.95873  Biso   1.000  H
  H356     1.0000 0.90984  0.22410  0.87900  Biso   1.000  H
  N48      1.0000 0.78930  0.19912  0.98800  Biso   1.000  N
  H357     1.0000 0.84864  0.24619  0.95873  Biso   1.000  H
  H358     1.0000 0.95873  0.15141  0.75381  Biso   1.000  H
  C259     1.0000 0.71996  0.26176  0.03448  Biso   1.000  C
  C260     1.0000 0.78006  0.23826  0.03448  Biso   1.000  C
  H359     1.0000 0.69231  0.22970  0.03160  Biso   1.000  H
  C261     1.0000 0.71521  0.28899  0.09313  Biso   1.000  C
  H360     1.0000 0.80771  0.27033  0.03160  Biso   1.000  H
  C262     1.0000 0.78481  0.21104  0.09313  Biso   1.000  C
  H361     1.0000 0.67611  0.30052  0.10331  Biso   1.000  H
  H362     1.0000 0.73803  0.32410  0.09538  Biso   1.000  H
  C263     1.0000 0.73744  0.24021  0.13139  Biso   1.000  C
  C264     1.0000 0.76259  0.25981  0.13139  Biso   1.000  C
  H363     1.0000 0.67700  0.28229  0.10929  Biso   1.000  H
  H364     1.0000 0.72170  0.33042  0.09072  Biso   1.000  H
  H365     1.0000 0.82391  0.19950  0.10331  Biso   1.000  H
  H366     1.0000 0.76203  0.17592  0.09538  Biso   1.000  H
  H367     1.0000 0.82302  0.21769  0.10929  Biso   1.000  H
  H368     1.0000 0.77832  0.16960  0.09072  Biso   1.000  H
  H369     1.0000 0.70682  0.21311  0.14080  Biso   1.000  H
  H370     1.0000 0.75393  0.25518  0.16701  Biso   1.000  H
  H371     1.0000 0.74613  0.24479  0.16701  Biso   1.000  H
  H372     1.0000 0.79321  0.28691  0.14080  Biso   1.000  H
  C265     1.0000 0.21519  0.71106  0.40689  Biso   1.000  C
  C266     1.0000 0.21994  0.73824  0.46554  Biso   1.000  C
  H373     1.0000 0.17609  0.69952  0.39671  Biso   1.000  H
  H374     1.0000 0.23801  0.67590  0.40460  Biso   1.000  H
  C267     1.0000 0.26256  0.74023  0.36863  Biso   1.000  C
  C268     1.0000 0.23746  0.75983  0.36863  Biso   1.000  C
  H375     1.0000 0.17702  0.71771  0.39073  Biso   1.000  H
  H376     1.0000 0.22172  0.66962  0.40930  Biso   1.000  H
  N49      1.0000 0.21074  0.69914  0.51202  Biso   1.000  N
  C269     1.0000 0.28008  0.76178  0.46554  Biso   1.000  C
  H377     1.0000 0.19229  0.77030  0.46843  Biso   1.000  H
  C270     1.0000 0.28483  0.78896  0.40689  Biso   1.000  C
  H378     1.0000 0.29323  0.71313  0.35922  Biso   1.000  H
  H379     1.0000 0.24611  0.75521  0.33301  Biso   1.000  H
  H380     1.0000 0.25391  0.74482  0.33301  Biso   1.000  H
  H381     1.0000 0.20679  0.78693  0.35922  Biso   1.000  H
  C271     1.0000 0.17248  0.71237  0.54744  Biso   1.000  C
  N50      1.0000 0.28928  0.80088  0.51202  Biso   1.000  N
  H382     1.0000 0.30769  0.72972  0.46843  Biso   1.000  H
  H383     1.0000 0.32389  0.80050  0.39671  Biso   1.000  H
  H384     1.0000 0.26201  0.82412  0.40460  Biso   1.000  H
  H385     1.0000 0.32300  0.78231  0.39073  Biso   1.000  H
  H386     1.0000 0.27830  0.83040  0.40930  Biso   1.000  H
  H387     1.0000 0.15141  0.74621  0.54133  Biso   1.000  H
  C272     1.0000 0.15917  0.67785  0.59752  Biso   1.000  C
  C273     1.0000 0.32754  0.78765  0.54744  Biso   1.000  C
  C274     1.0000 0.19182  0.63065  0.61241  Biso   1.000  C
  C275     1.0000 0.11239  0.69184  0.63065  Biso   1.000  C
  H388     1.0000 0.34862  0.75381  0.54133  Biso   1.000  H
  C276     1.0000 0.34085  0.82217  0.59752  Biso   1.000  C
  C277     1.0000 0.17783  0.59752  0.65915  Biso   1.000  C
  H389     1.0000 0.22410  0.62102  0.59023  Biso   1.000  H
  C278     1.0000 0.09754  0.65915  0.67785  Biso   1.000  C
  H390     1.0000 0.09021  0.72412  0.62102  Biso   1.000  H
  C279     1.0000 0.38763  0.80818  0.63065  Biso   1.000  C
  C280     1.0000 0.30816  0.86938  0.61241  Biso   1.000  C
  C281     1.0000 0.21235  0.54744  0.67246  Biso   1.000  C
  C282     1.0000 0.13062  0.61241  0.69184  Biso   1.000  C
  C283     1.0000 0.04742  0.67246  0.71237  Biso   1.000  C
  C284     1.0000 0.40248  0.84088  0.67785  Biso   1.000  C
  H391     1.0000 0.40981  0.77590  0.62102  Biso   1.000  H
  C285     1.0000 0.32215  0.90250  0.65915  Biso   1.000  C
  H392     1.0000 0.27592  0.87900  0.59023  Biso   1.000  H
  N51      1.0000 0.19912  0.51202  0.71076  Biso   1.000  N
  H393     1.0000 0.24619  0.54133  0.65143  Biso   1.000  H
  H394     1.0000 0.12100  0.59023  0.72412  Biso   1.000  H
  N52      1.0000 0.01200  0.71076  0.69914  Biso   1.000  N
  H395     1.0000 0.04131  0.65143  0.74621  Biso   1.000  H
  C286     1.0000 0.45256  0.82756  0.71237  Biso   1.000  C
  C287     1.0000 0.36940  0.88761  0.69184  Biso   1.000  C
  C288     1.0000 0.28763  0.95258  0.67246  Biso   1.000  C
  C289     1.0000 0.23826  0.46554  0.71996  Biso   1.000  C
  C290     1.0000 0.96556  0.71996  0.73824  Biso   1.000  C
  N53      1.0000 0.48802  0.78930  0.69914  Biso   1.000  N
  H396     1.0000 0.45871  0.84864  0.74621  Biso   1.000  H
  H397     1.0000 0.37902  0.90984  0.72412  Biso   1.000  H
  N54      1.0000 0.30086  0.98800  0.71076  Biso   1.000  N
  H398     1.0000 0.25379  0.95873  0.65143  Biso   1.000  H
  C291     1.0000 0.26176  0.46554  0.78006  Biso   1.000  C
  H399     1.0000 0.27033  0.46843  0.69231  Biso   1.000  H
  C292     1.0000 0.21104  0.40689  0.71521  Biso   1.000  C
  C293     1.0000 0.96556  0.78006  0.76178  Biso   1.000  C
  H400     1.0000 0.96840  0.69231  0.77030  Biso   1.000  H
  C294     1.0000 0.90691  0.71521  0.71106  Biso   1.000  C
  C295     1.0000 0.53450  0.78006  0.73824  Biso   1.000  C
  C296     1.0000 0.26176  0.03448  0.71996  Biso   1.000  C
  N55      1.0000 0.30086  0.51202  0.78930  Biso   1.000  N
  H401     1.0000 0.22970  0.46843  0.80771  Biso   1.000  H
  C297     1.0000 0.28899  0.40689  0.78481  Biso   1.000  C
  H402     1.0000 0.19950  0.39671  0.67611  Biso   1.000  H
  H403     1.0000 0.17592  0.40460  0.73803  Biso   1.000  H
  C298     1.0000 0.25981  0.36863  0.73744  Biso   1.000  C
  C299     1.0000 0.24021  0.36863  0.76259  Biso   1.000  C
  H404     1.0000 0.21769  0.39073  0.67700  Biso   1.000  H
  H405     1.0000 0.16960  0.40930  0.72170  Biso   1.000  H
  N56      1.0000 0.01200  0.78930  0.80088  Biso   1.000  N
  H406     1.0000 0.96840  0.80771  0.72972  Biso   1.000  H
  C300     1.0000 0.90691  0.78481  0.78896  Biso   1.000  C
  H407     1.0000 0.89673  0.67611  0.69952  Biso   1.000  H
  H408     1.0000 0.90462  0.73803  0.67590  Biso   1.000  H
  C301     1.0000 0.86865  0.73744  0.75983  Biso   1.000  C
  C302     1.0000 0.86865  0.76259  0.74023  Biso   1.000  C
  H409     1.0000 0.89071  0.67700  0.71771  Biso   1.000  H
  H410     1.0000 0.90933  0.72170  0.66962  Biso   1.000  H
  C303     1.0000 0.53450  0.71996  0.76178  Biso   1.000  C
  H411     1.0000 0.53162  0.80771  0.77030  Biso   1.000  H
  C304     1.0000 0.59311  0.78481  0.71106  Biso   1.000  C
  C305     1.0000 0.23826  0.03448  0.78006  Biso   1.000  C
  H412     1.0000 0.22970  0.03160  0.69231  Biso   1.000  H
  C306     1.0000 0.28899  0.09313  0.71521  Biso   1.000  C
  C307     1.0000 0.28763  0.54744  0.82756  Biso   1.000  C
  H413     1.0000 0.30052  0.39671  0.82391  Biso   1.000  H
  H414     1.0000 0.32410  0.40460  0.76203  Biso   1.000  H
  H415     1.0000 0.28229  0.39073  0.82302  Biso   1.000  H
  H416     1.0000 0.33042  0.40930  0.77832  Biso   1.000  H
  H417     1.0000 0.28691  0.35922  0.70682  Biso   1.000  H
  H418     1.0000 0.24479  0.33301  0.75393  Biso   1.000  H
  H419     1.0000 0.25518  0.33301  0.74613  Biso   1.000  H
  H420     1.0000 0.21311  0.35922  0.79321  Biso   1.000  H
  C308     1.0000 0.04742  0.82756  0.78765  Biso   1.000  C
  H421     1.0000 0.89673  0.82391  0.80050  Biso   1.000  H
  H422     1.0000 0.90462  0.76203  0.82412  Biso   1.000  H
  H423     1.0000 0.89071  0.82302  0.78231  Biso   1.000  H
  H424     1.0000 0.90933  0.77832  0.83040  Biso   1.000  H
  H425     1.0000 0.85924  0.70682  0.78693  Biso   1.000  H
  H426     1.0000 0.83303  0.75393  0.74482  Biso   1.000  H
  H427     1.0000 0.83303  0.74613  0.75521  Biso   1.000  H
  H428     1.0000 0.85924  0.79321  0.71313  Biso   1.000  H
  N57      1.0000 0.48802  0.71076  0.80088  Biso   1.000  N
  H429     1.0000 0.53162  0.69231  0.72972  Biso   1.000  H
  C309     1.0000 0.59311  0.71521  0.78896  Biso   1.000  C
  H430     1.0000 0.60333  0.82391  0.69952  Biso   1.000  H
  H431     1.0000 0.59540  0.76203  0.67590  Biso   1.000  H
  C310     1.0000 0.63141  0.73744  0.74023  Biso   1.000  C
  C311     1.0000 0.63141  0.76259  0.75983  Biso   1.000  C
  H432     1.0000 0.60931  0.82302  0.71771  Biso   1.000  H
  H433     1.0000 0.59070  0.77832  0.66962  Biso   1.000  H
  N58      1.0000 0.19912  0.98800  0.78930  Biso   1.000  N
  H434     1.0000 0.27033  0.03160  0.80771  Biso   1.000  H
  C312     1.0000 0.21104  0.09313  0.78481  Biso   1.000  C
  H435     1.0000 0.30052  0.10331  0.67611  Biso   1.000  H
  H436     1.0000 0.32410  0.09538  0.73803  Biso   1.000  H
  C313     1.0000 0.25981  0.13139  0.76259  Biso   1.000  C
  C314     1.0000 0.24021  0.13139  0.73744  Biso   1.000  C
  H437     1.0000 0.28229  0.10929  0.67700  Biso   1.000  H
  H438     1.0000 0.33042  0.09072  0.72170  Biso   1.000  H
  H439     1.0000 0.25379  0.54133  0.84864  Biso   1.000  H
  C315     1.0000 0.32215  0.59752  0.84088  Biso   1.000  C
  H440     1.0000 0.04131  0.84864  0.75381  Biso   1.000  H
  C316     1.0000 0.09754  0.84088  0.82217  Biso   1.000  C
  C317     1.0000 0.45256  0.67246  0.78765  Biso   1.000  C
  H441     1.0000 0.60333  0.67611  0.80050  Biso   1.000  H
  H442     1.0000 0.59540  0.73803  0.82412  Biso   1.000  H
  H443     1.0000 0.60931  0.67700  0.78231  Biso   1.000  H
  H444     1.0000 0.59070  0.72170  0.83040  Biso   1.000  H
  H445     1.0000 0.64082  0.70682  0.71313  Biso   1.000  H
  H446     1.0000 0.66703  0.75393  0.75521  Biso   1.000  H
  H447     1.0000 0.66703  0.74613  0.74482  Biso   1.000  H
  H448     1.0000 0.64082  0.79321  0.78693  Biso   1.000  H
  C318     1.0000 0.21235  0.95258  0.82756  Biso   1.000  C
  H449     1.0000 0.19950  0.10331  0.82391  Biso   1.000  H
  H450     1.0000 0.17592  0.09538  0.76203  Biso   1.000  H
  H451     1.0000 0.21769  0.10929  0.82302  Biso   1.000  H
  H452     1.0000 0.16960  0.09072  0.77832  Biso   1.000  H
  H453     1.0000 0.28691  0.14080  0.79321  Biso   1.000  H
  H454     1.0000 0.24479  0.16701  0.74613  Biso   1.000  H
  H455     1.0000 0.25518  0.16701  0.75393  Biso   1.000  H
  H456     1.0000 0.21311  0.14080  0.70682  Biso   1.000  H
  C319     1.0000 0.36940  0.61241  0.80818  Biso   1.000  C
  C320     1.0000 0.30816  0.63065  0.88761  Biso   1.000  C
  C321     1.0000 0.11239  0.80818  0.86938  Biso   1.000  C
  C322     1.0000 0.13062  0.88761  0.80818  Biso   1.000  C
  H457     1.0000 0.45871  0.65143  0.75381  Biso   1.000  H
  C323     1.0000 0.40248  0.65915  0.82217  Biso   1.000  C
  H458     1.0000 0.24619  0.95873  0.84864  Biso   1.000  H
  C324     1.0000 0.17783  0.90250  0.84088  Biso   1.000  C
  H459     1.0000 0.37902  0.59023  0.77590  Biso   1.000  H
  C325     1.0000 0.34085  0.67785  0.90250  Biso   1.000  C
  H460     1.0000 0.27592  0.62102  0.90984  Biso   1.000  H
  C326     1.0000 0.15917  0.82217  0.90250  Biso   1.000  C
  H461     1.0000 0.09021  0.77590  0.87900  Biso   1.000  H
  H462     1.0000 0.12100  0.90984  0.77590  Biso   1.000  H
  C327     1.0000 0.38763  0.69184  0.86938  Biso   1.000  C
  C328     1.0000 0.19182  0.86938  0.88761  Biso   1.000  C
  C329     1.0000 0.32754  0.71237  0.95258  Biso   1.000  C
  C330     1.0000 0.17248  0.78765  0.95258  Biso   1.000  C
  H463     1.0000 0.40981  0.72412  0.87900  Biso   1.000  H
  H464     1.0000 0.22410  0.87900  0.90984  Biso   1.000  H
  N59      1.0000 0.28928  0.69914  0.98800  Biso   1.000  N
  H465     1.0000 0.34862  0.74621  0.95873  Biso   1.000  H
  N60      1.0000 0.21074  0.80088  0.98800  Biso   1.000  N
  H466     1.0000 0.15141  0.75381  0.95873  Biso   1.000  H
  C331     1.0000 0.28008  0.73824  0.03448  Biso   1.000  C
  C332     1.0000 0.21994  0.76178  0.03448  Biso   1.000  C
  H467     1.0000 0.30769  0.77030  0.03160  Biso   1.000  H
  C333     1.0000 0.28483  0.71106  0.09313  Biso   1.000  C
  H468     1.0000 0.19229  0.72972  0.03160  Biso   1.000  H
  C334     1.0000 0.21519  0.78896  0.09313  Biso   1.000  C
  H469     1.0000 0.32389  0.69952  0.10331  Biso   1.000  H
  H470     1.0000 0.26201  0.67590  0.09538  Biso   1.000  H
  C335     1.0000 0.26256  0.75983  0.13139  Biso   1.000  C
  C336     1.0000 0.23746  0.74023  0.13139  Biso   1.000  C
  H471     1.0000 0.32300  0.71771  0.10929  Biso   1.000  H
  H472     1.0000 0.27830  0.66962  0.09072  Biso   1.000  H
  H473     1.0000 0.17609  0.80050  0.10331  Biso   1.000  H
  H474     1.0000 0.23801  0.82412  0.09538  Biso   1.000  H
  H475     1.0000 0.17702  0.78231  0.10929  Biso   1.000  H
  H476     1.0000 0.22172  0.83040  0.09072  Biso   1.000  H
  H477     1.0000 0.29323  0.78693  0.14080  Biso   1.000  H
  H478     1.0000 0.24611  0.74482  0.16701  Biso   1.000  H
  H479     1.0000 0.25391  0.75521  0.16701  Biso   1.000  H
  H480     1.0000 0.20679  0.71313  0.14080  Biso   1.000  H
  C337     1.0000 0.51474  0.28525  0.02850  Biso   1.000  C
  N61      1.0000 0.55066  0.23542  0.03469  Biso   1.000  N
  H481     1.0000 0.53811  0.31990  0.03210  Biso   1.000  H
  H482     1.0000 0.48603  0.28572  0.05912  Biso   1.000  H
  C338     1.0000 0.48530  0.28525  0.97154  Biso   1.000  C
  C339     1.0000 0.53738  0.20145  0.07422  Biso   1.000  C
  N62      1.0000 0.44934  0.23542  0.96531  Biso   1.000  N
  H483     1.0000 0.46189  0.31990  0.96794  Biso   1.000  H
  H484     1.0000 0.51402  0.28572  0.94092  Biso   1.000  H
  H485     1.0000 0.50490  0.20981  0.09648  Biso   1.000  H
  C340     1.0000 0.56987  0.14971  0.08724  Biso   1.000  C
  C341     1.0000 0.46266  0.20145  0.92578  Biso   1.000  C
  C342     1.0000 0.61741  0.13393  0.05484  Biso   1.000  C
  C343     1.0000 0.55486  0.11739  0.13393  Biso   1.000  C
  H486     1.0000 0.49510  0.20981  0.90352  Biso   1.000  H
  C344     1.0000 0.43013  0.14971  0.91276  Biso   1.000  C
  C345     1.0000 0.64973  0.08724  0.06989  Biso   1.000  C
  H487     1.0000 0.62751  0.15552  0.02239  Biso   1.000  H
  C346     1.0000 0.58726  0.06989  0.14971  Biso   1.000  C
  H488     1.0000 0.52241  0.12749  0.15552  Biso   1.000  H
  C347     1.0000 0.38259  0.13393  0.94516  Biso   1.000  C
  C348     1.0000 0.44514  0.11739  0.86607  Biso   1.000  C
  C349     1.0000 0.70147  0.07422  0.03736  Biso   1.000  C
  C350     1.0000 0.63395  0.05484  0.11739  Biso   1.000  C
  C351     1.0000 0.57424  0.03736  0.20145  Biso   1.000  C
  C352     1.0000 0.35027  0.08724  0.93015  Biso   1.000  C
  H489     1.0000 0.37249  0.15552  0.97761  Biso   1.000  H
  C353     1.0000 0.41278  0.06989  0.85029  Biso   1.000  C
  H490     1.0000 0.47763  0.12749  0.84452  Biso   1.000  H
  N63      1.0000 0.73544  0.03469  0.05068  Biso   1.000  N
  H491     1.0000 0.70983  0.09648  0.00492  Biso   1.000  H
  H492     1.0000 0.65550  0.02239  0.12749  Biso   1.000  H
  N64      1.0000 0.53471  0.05068  0.23542  Biso   1.000  N
  H493     1.0000 0.59651  0.00492  0.20981  Biso   1.000  H
  C354     1.0000 0.29853  0.07422  0.96264  Biso   1.000  C
  C355     1.0000 0.36605  0.05484  0.88261  Biso   1.000  C
  C356     1.0000 0.42576  0.03736  0.79855  Biso   1.000  C
  C357     1.0000 0.78528  0.02850  0.01472  Biso   1.000  C
  C358     1.0000 0.52848  0.01472  0.28525  Biso   1.000  C
  N65      1.0000 0.26460  0.03469  0.94936  Biso   1.000  N
  H494     1.0000 0.29022  0.09648  0.99512  Biso   1.000  H
  H495     1.0000 0.34450  0.02239  0.87251  Biso   1.000  H
  N66      1.0000 0.46529  0.05068  0.76462  Biso   1.000  N
  H496     1.0000 0.40349  0.00492  0.79024  Biso   1.000  H
  H497     1.0000 0.81992  0.03210  0.03808  Biso   1.000  H
  C359     1.0000 0.78528  0.97154  0.98528  Biso   1.000  C
  H498     1.0000 0.78570  0.05912  0.98600  Biso   1.000  H
  H499     1.0000 0.53213  0.03808  0.31990  Biso   1.000  H
  C360     1.0000 0.47152  0.98528  0.28525  Biso   1.000  C
  H500     1.0000 0.55910  0.98600  0.28572  Biso   1.000  H
  C361     1.0000 0.21477  0.02850  0.98528  Biso   1.000  C
  C362     1.0000 0.47152  0.01472  0.71475  Biso   1.000  C
  N67      1.0000 0.73544  0.96531  0.94936  Biso   1.000  N
  H501     1.0000 0.81992  0.96794  0.96192  Biso   1.000  H
  H502     1.0000 0.78570  0.94092  0.01400  Biso   1.000  H
  H503     1.0000 0.44090  0.01400  0.28572  Biso   1.000  H
  N68      1.0000 0.46529  0.94936  0.23542  Biso   1.000  N
  H504     1.0000 0.46792  0.96192  0.31990  Biso   1.000  H
  H505     1.0000 0.21430  0.05912  0.01400  Biso   1.000  H
  C363     1.0000 0.21477  0.97154  0.01472  Biso   1.000  C
  H506     1.0000 0.18012  0.03210  0.96192  Biso   1.000  H
  C364     1.0000 0.52848  0.98528  0.71475  Biso   1.000  C
  H507     1.0000 0.44090  0.98600  0.71432  Biso   1.000  H
  H508     1.0000 0.46792  0.03808  0.68010  Biso   1.000  H
  C365     1.0000 0.70147  0.92578  0.96264  Biso   1.000  C
  C366     1.0000 0.42576  0.96264  0.20145  Biso   1.000  C
  H509     1.0000 0.21430  0.94092  0.98600  Biso   1.000  H
  N69      1.0000 0.26460  0.96531  0.05068  Biso   1.000  N
  H510     1.0000 0.18012  0.96794  0.03808  Biso   1.000  H
  N70      1.0000 0.53471  0.94936  0.76462  Biso   1.000  N
  H511     1.0000 0.53213  0.96192  0.68010  Biso   1.000  H
  H512     1.0000 0.55910  0.01400  0.71432  Biso   1.000  H
  H513     1.0000 0.70983  0.90352  0.99512  Biso   1.000  H
  C367     1.0000 0.64973  0.91276  0.93015  Biso   1.000  C
  H514     1.0000 0.40349  0.99512  0.20981  Biso   1.000  H
  C368     1.0000 0.41278  0.93015  0.14971  Biso   1.000  C
  C369     1.0000 0.29853  0.92578  0.03736  Biso   1.000  C
  C370     1.0000 0.57424  0.96264  0.79855  Biso   1.000  C
  C371     1.0000 0.61741  0.86607  0.94516  Biso   1.000  C
  C372     1.0000 0.63395  0.94516  0.88261  Biso   1.000  C
  C373     1.0000 0.36605  0.94516  0.11739  Biso   1.000  C
  C374     1.0000 0.44514  0.88261  0.13393  Biso   1.000  C
  C375     1.0000 0.35027  0.91276  0.06989  Biso   1.000  C
  H515     1.0000 0.29022  0.90352  0.00492  Biso   1.000  H
  C376     1.0000 0.58726  0.93015  0.85029  Biso   1.000  C
  H516     1.0000 0.59651  0.99512  0.79024  Biso   1.000  H
  C377     1.0000 0.56987  0.85029  0.91276  Biso   1.000  C
  H517     1.0000 0.62751  0.84452  0.97761  Biso   1.000  H
  H518     1.0000 0.65550  0.97761  0.87251  Biso   1.000  H
  H519     1.0000 0.34450  0.97761  0.12749  Biso   1.000  H
  C378     1.0000 0.43013  0.85029  0.08724  Biso   1.000  C
  H520     1.0000 0.47763  0.87251  0.15552  Biso   1.000  H
  C379     1.0000 0.38259  0.86607  0.05484  Biso   1.000  C
  C380     1.0000 0.55486  0.88261  0.86607  Biso   1.000  C
  C381     1.0000 0.53738  0.79855  0.92578  Biso   1.000  C
  C382     1.0000 0.46266  0.79855  0.07422  Biso   1.000  C
  H521     1.0000 0.37249  0.84452  0.02239  Biso   1.000  H
  H522     1.0000 0.52241  0.87251  0.84452  Biso   1.000  H
  N71      1.0000 0.55066  0.76462  0.96531  Biso   1.000  N
  H523     1.0000 0.50490  0.79024  0.90352  Biso   1.000  H
  N72      1.0000 0.44934  0.76462  0.03469  Biso   1.000  N
  H524     1.0000 0.49510  0.79024  0.09648  Biso   1.000  H
  C383     1.0000 0.51474  0.71475  0.97154  Biso   1.000  C
  C384     1.0000 0.48530  0.71475  0.02850  Biso   1.000  C
  H525     1.0000 0.53811  0.68010  0.96794  Biso   1.000  H
  H526     1.0000 0.48603  0.71432  0.94092  Biso   1.000  H
  H527     1.0000 0.46189  0.68010  0.03210  Biso   1.000  H
  H528     1.0000 0.51402  0.71432  0.05912  Biso   1.000  H
  C385     1.0000 0.28525  0.02850  0.51474  Biso   1.000  C
  N73      1.0000 0.23542  0.03469  0.55066  Biso   1.000  N
  H529     1.0000 0.31990  0.03210  0.53811  Biso   1.000  H
  H530     1.0000 0.28572  0.05912  0.48603  Biso   1.000  H
  C386     1.0000 0.28525  0.97154  0.48530  Biso   1.000  C
  C387     1.0000 0.20145  0.07422  0.53738  Biso   1.000  C
  N74      1.0000 0.23542  0.96531  0.44934  Biso   1.000  N
  H531     1.0000 0.31990  0.96794  0.46189  Biso   1.000  H
  H532     1.0000 0.28572  0.94092  0.51402  Biso   1.000  H
  H533     1.0000 0.20981  0.09648  0.50490  Biso   1.000  H
  C388     1.0000 0.14971  0.08724  0.56987  Biso   1.000  C
  C389     1.0000 0.20145  0.92578  0.46266  Biso   1.000  C
  C390     1.0000 0.13393  0.05484  0.61741  Biso   1.000  C
  C391     1.0000 0.11739  0.13393  0.55486  Biso   1.000  C
  H534     1.0000 0.20981  0.90352  0.49510  Biso   1.000  H
  C392     1.0000 0.14971  0.91276  0.43013  Biso   1.000  C
  C393     1.0000 0.08724  0.06989  0.64973  Biso   1.000  C
  H535     1.0000 0.15552  0.02239  0.62751  Biso   1.000  H
  C394     1.0000 0.06989  0.14971  0.58726  Biso   1.000  C
  H536     1.0000 0.12749  0.15552  0.52241  Biso   1.000  H
  C395     1.0000 0.13393  0.94516  0.38259  Biso   1.000  C
  C396     1.0000 0.11739  0.86607  0.44514  Biso   1.000  C
  C397     1.0000 0.07422  0.03736  0.70147  Biso   1.000  C
  C398     1.0000 0.05484  0.11739  0.63395  Biso   1.000  C
  C399     1.0000 0.03736  0.20145  0.57424  Biso   1.000  C
  C400     1.0000 0.08724  0.93015  0.35027  Biso   1.000  C
  H537     1.0000 0.15552  0.97761  0.37249  Biso   1.000  H
  C401     1.0000 0.06989  0.85029  0.41278  Biso   1.000  C
  H538     1.0000 0.12749  0.84452  0.47763  Biso   1.000  H
  N75      1.0000 0.03469  0.05068  0.73544  Biso   1.000  N
  H539     1.0000 0.09648  0.00492  0.70983  Biso   1.000  H
  H540     1.0000 0.02239  0.12749  0.65550  Biso   1.000  H
  N76      1.0000 0.05068  0.23542  0.53471  Biso   1.000  N
  H541     1.0000 0.00492  0.20981  0.59651  Biso   1.000  H
  C402     1.0000 0.07422  0.96264  0.29853  Biso   1.000  C
  C403     1.0000 0.05484  0.88261  0.36605  Biso   1.000  C
  C404     1.0000 0.03736  0.79855  0.42576  Biso   1.000  C
  C405     1.0000 0.02850  0.01472  0.78528  Biso   1.000  C
  C406     1.0000 0.01472  0.28525  0.52848  Biso   1.000  C
  N77      1.0000 0.03469  0.94936  0.26460  Biso   1.000  N
  H542     1.0000 0.09648  0.99512  0.29022  Biso   1.000  H
  H543     1.0000 0.02239  0.87251  0.34450  Biso   1.000  H
  N78      1.0000 0.05068  0.76462  0.46529  Biso   1.000  N
  H544     1.0000 0.00492  0.79024  0.40349  Biso   1.000  H
  H545     1.0000 0.03210  0.03808  0.81992  Biso   1.000  H
  C407     1.0000 0.97154  0.98528  0.78528  Biso   1.000  C
  H546     1.0000 0.05912  0.98600  0.78570  Biso   1.000  H
  H547     1.0000 0.03808  0.31990  0.53213  Biso   1.000  H
  C408     1.0000 0.98528  0.28525  0.47152  Biso   1.000  C
  H548     1.0000 0.98600  0.28572  0.55910  Biso   1.000  H
  C409     1.0000 0.02850  0.98528  0.21477  Biso   1.000  C
  C410     1.0000 0.01472  0.71475  0.47152  Biso   1.000  C
  N79      1.0000 0.96531  0.94936  0.73544  Biso   1.000  N
  H549     1.0000 0.96794  0.96192  0.81992  Biso   1.000  H
  H550     1.0000 0.94092  0.01400  0.78570  Biso   1.000  H
  H551     1.0000 0.01400  0.28572  0.44090  Biso   1.000  H
  N80      1.0000 0.94936  0.23542  0.46529  Biso   1.000  N
  H552     1.0000 0.96192  0.31990  0.46792  Biso   1.000  H
  H553     1.0000 0.05912  0.01400  0.21430  Biso   1.000  H
  C411     1.0000 0.97154  0.01472  0.21477  Biso   1.000  C
  H554     1.0000 0.03210  0.96192  0.18012  Biso   1.000  H
  C412     1.0000 0.98528  0.71475  0.52848  Biso   1.000  C
  H555     1.0000 0.98600  0.71432  0.44090  Biso   1.000  H
  H556     1.0000 0.03808  0.68010  0.46792  Biso   1.000  H
  C413     1.0000 0.92578  0.96264  0.70147  Biso   1.000  C
  C414     1.0000 0.96264  0.20145  0.42576  Biso   1.000  C
  H557     1.0000 0.94092  0.98600  0.21430  Biso   1.000  H
  N81      1.0000 0.96531  0.05068  0.26460  Biso   1.000  N
  H558     1.0000 0.96794  0.03808  0.18012  Biso   1.000  H
  N82      1.0000 0.94936  0.76462  0.53471  Biso   1.000  N
  H559     1.0000 0.96192  0.68010  0.53213  Biso   1.000  H
  H560     1.0000 0.01400  0.71432  0.55910  Biso   1.000  H
  H561     1.0000 0.90352  0.99512  0.70983  Biso   1.000  H
  C415     1.0000 0.91276  0.93015  0.64973  Biso   1.000  C
  H562     1.0000 0.99512  0.20981  0.40349  Biso   1.000  H
  C416     1.0000 0.93015  0.14971  0.41278  Biso   1.000  C
  C417     1.0000 0.92578  0.03736  0.29853  Biso   1.000  C
  C418     1.0000 0.96264  0.79855  0.57424  Biso   1.000  C
  C419     1.0000 0.86607  0.94516  0.61741  Biso   1.000  C
  C420     1.0000 0.94516  0.88261  0.63395  Biso   1.000  C
  C421     1.0000 0.94516  0.11739  0.36605  Biso   1.000  C
  C422     1.0000 0.88261  0.13393  0.44514  Biso   1.000  C
  C423     1.0000 0.91276  0.06989  0.35027  Biso   1.000  C
  H563     1.0000 0.90352  0.00492  0.29022  Biso   1.000  H
  C424     1.0000 0.93015  0.85029  0.58726  Biso   1.000  C
  H564     1.0000 0.99512  0.79024  0.59651  Biso   1.000  H
  C425     1.0000 0.85029  0.91276  0.56987  Biso   1.000  C
  H565     1.0000 0.84452  0.97761  0.62751  Biso   1.000  H
  H566     1.0000 0.97761  0.87251  0.65550  Biso   1.000  H
  H567     1.0000 0.97761  0.12749  0.34450  Biso   1.000  H
  C426     1.0000 0.85029  0.08724  0.43013  Biso   1.000  C
  H568     1.0000 0.87251  0.15552  0.47763  Biso   1.000  H
  C427     1.0000 0.86607  0.05484  0.38259  Biso   1.000  C
  C428     1.0000 0.88261  0.86607  0.55486  Biso   1.000  C
  C429     1.0000 0.79855  0.92578  0.53738  Biso   1.000  C
  C430     1.0000 0.79855  0.07422  0.46266  Biso   1.000  C
  H569     1.0000 0.84452  0.02239  0.37249  Biso   1.000  H
  H570     1.0000 0.87251  0.84452  0.52241  Biso   1.000  H
  N83      1.0000 0.76462  0.96531  0.55066  Biso   1.000  N
  H571     1.0000 0.79024  0.90352  0.50490  Biso   1.000  H
  N84      1.0000 0.76462  0.03469  0.44934  Biso   1.000  N
  H572     1.0000 0.79024  0.09648  0.49510  Biso   1.000  H
  C431     1.0000 0.71475  0.97154  0.51474  Biso   1.000  C
  C432     1.0000 0.71475  0.02850  0.48530  Biso   1.000  C
  H573     1.0000 0.68010  0.96794  0.53811  Biso   1.000  H
  H574     1.0000 0.71432  0.94092  0.48603  Biso   1.000  H
  H575     1.0000 0.68010  0.03210  0.46189  Biso   1.000  H
  H576     1.0000 0.71432  0.05912  0.51402  Biso   1.000  H
  C433     1.0000 0.02850  0.51474  0.28525  Biso   1.000  C
  N85      1.0000 0.03469  0.55066  0.23542  Biso   1.000  N
  H577     1.0000 0.03210  0.53811  0.31990  Biso   1.000  H
  H578     1.0000 0.05912  0.48603  0.28572  Biso   1.000  H
  C434     1.0000 0.97154  0.48530  0.28525  Biso   1.000  C
  C435     1.0000 0.07422  0.53738  0.20145  Biso   1.000  C
  N86      1.0000 0.96531  0.44934  0.23542  Biso   1.000  N
  H579     1.0000 0.96794  0.46189  0.31990  Biso   1.000  H
  H580     1.0000 0.94092  0.51402  0.28572  Biso   1.000  H
  H581     1.0000 0.09648  0.50490  0.20981  Biso   1.000  H
  C436     1.0000 0.08724  0.56987  0.14971  Biso   1.000  C
  C437     1.0000 0.92578  0.46266  0.20145  Biso   1.000  C
  C438     1.0000 0.05484  0.61741  0.13393  Biso   1.000  C
  C439     1.0000 0.13393  0.55486  0.11739  Biso   1.000  C
  H582     1.0000 0.90352  0.49510  0.20981  Biso   1.000  H
  C440     1.0000 0.91276  0.43013  0.14971  Biso   1.000  C
  C441     1.0000 0.06989  0.64973  0.08724  Biso   1.000  C
  H583     1.0000 0.02239  0.62751  0.15552  Biso   1.000  H
  C442     1.0000 0.14971  0.58726  0.06989  Biso   1.000  C
  H584     1.0000 0.15552  0.52241  0.12749  Biso   1.000  H
  C443     1.0000 0.94516  0.38259  0.13393  Biso   1.000  C
  C444     1.0000 0.86607  0.44514  0.11739  Biso   1.000  C
  C445     1.0000 0.03736  0.70147  0.07422  Biso   1.000  C
  C446     1.0000 0.11739  0.63395  0.05484  Biso   1.000  C
  C447     1.0000 0.20145  0.57424  0.03736  Biso   1.000  C
  C448     1.0000 0.93015  0.35027  0.08724  Biso   1.000  C
  H585     1.0000 0.97761  0.37249  0.15552  Biso   1.000  H
  C449     1.0000 0.85029  0.41278  0.06989  Biso   1.000  C
  H586     1.0000 0.84452  0.47763  0.12749  Biso   1.000  H
  N87      1.0000 0.05068  0.73544  0.03469  Biso   1.000  N
  H587     1.0000 0.00492  0.70983  0.09648  Biso   1.000  H
  H588     1.0000 0.12749  0.65550  0.02239  Biso   1.000  H
  N88      1.0000 0.23542  0.53471  0.05068  Biso   1.000  N
  H589     1.0000 0.20981  0.59651  0.00492  Biso   1.000  H
  C450     1.0000 0.96264  0.29853  0.07422  Biso   1.000  C
  C451     1.0000 0.88261  0.36605  0.05484  Biso   1.000  C
  C452     1.0000 0.79855  0.42576  0.03736  Biso   1.000  C
  C453     1.0000 0.01472  0.78528  0.02850  Biso   1.000  C
  C454     1.0000 0.28525  0.52848  0.01472  Biso   1.000  C
  N89      1.0000 0.94936  0.26460  0.03469  Biso   1.000  N
  H590     1.0000 0.99512  0.29022  0.09648  Biso   1.000  H
  H591     1.0000 0.87251  0.34450  0.02239  Biso   1.000  H
  N90      1.0000 0.76462  0.46529  0.05068  Biso   1.000  N
  H592     1.0000 0.79024  0.40349  0.00492  Biso   1.000  H
  H593     1.0000 0.03808  0.81992  0.03210  Biso   1.000  H
  C455     1.0000 0.98528  0.78528  0.97154  Biso   1.000  C
  H594     1.0000 0.98600  0.78570  0.05912  Biso   1.000  H
  H595     1.0000 0.31990  0.53213  0.03808  Biso   1.000  H
  C456     1.0000 0.28525  0.47152  0.98528  Biso   1.000  C
  H596     1.0000 0.28572  0.55910  0.98600  Biso   1.000  H
  C457     1.0000 0.98528  0.21477  0.02850  Biso   1.000  C
  C458     1.0000 0.71475  0.47152  0.01472  Biso   1.000  C
  N91      1.0000 0.94936  0.73544  0.96531  Biso   1.000  N
  H597     1.0000 0.96192  0.81992  0.96794  Biso   1.000  H
  H598     1.0000 0.01400  0.78570  0.94092  Biso   1.000  H
  H599     1.0000 0.28572  0.44090  0.01400  Biso   1.000  H
  N92      1.0000 0.23542  0.46529  0.94936  Biso   1.000  N
  H600     1.0000 0.31990  0.46792  0.96192  Biso   1.000  H
  H601     1.0000 0.01400  0.21430  0.05912  Biso   1.000  H
  H602     1.0000 0.96192  0.18012  0.03210  Biso   1.000  H
  C459     1.0000 0.01472  0.21477  0.97154  Biso   1.000  C
  C460     1.0000 0.71475  0.52848  0.98528  Biso   1.000  C
  H603     1.0000 0.71432  0.44090  0.98600  Biso   1.000  H
  H604     1.0000 0.68010  0.46792  0.03808  Biso   1.000  H
  C461     1.0000 0.96264  0.70147  0.92578  Biso   1.000  C
  C462     1.0000 0.20145  0.42576  0.96264  Biso   1.000  C
  H605     1.0000 0.98600  0.21430  0.94092  Biso   1.000  H
  N93      1.0000 0.05068  0.26460  0.96531  Biso   1.000  N
  H606     1.0000 0.03808  0.18012  0.96794  Biso   1.000  H
  N94      1.0000 0.76462  0.53471  0.94936  Biso   1.000  N
  H607     1.0000 0.68010  0.53213  0.96192  Biso   1.000  H
  H608     1.0000 0.71432  0.55910  0.01400  Biso   1.000  H
  H609     1.0000 0.99512  0.70983  0.90352  Biso   1.000  H
  C463     1.0000 0.93015  0.64973  0.91276  Biso   1.000  C
  H610     1.0000 0.20981  0.40349  0.99512  Biso   1.000  H
  C464     1.0000 0.14971  0.41278  0.93015  Biso   1.000  C
  C465     1.0000 0.03736  0.29853  0.92578  Biso   1.000  C
  C466     1.0000 0.79855  0.57424  0.96264  Biso   1.000  C
  C467     1.0000 0.94516  0.61741  0.86607  Biso   1.000  C
  C468     1.0000 0.88261  0.63395  0.94516  Biso   1.000  C
  C469     1.0000 0.13393  0.44514  0.88261  Biso   1.000  C
  C470     1.0000 0.11739  0.36605  0.94516  Biso   1.000  C
  C471     1.0000 0.06989  0.35027  0.91276  Biso   1.000  C
  H611     1.0000 0.00492  0.29022  0.90352  Biso   1.000  H
  C472     1.0000 0.85029  0.58726  0.93015  Biso   1.000  C
  H612     1.0000 0.79024  0.59651  0.99512  Biso   1.000  H
  C473     1.0000 0.91276  0.56987  0.85029  Biso   1.000  C
  H613     1.0000 0.97761  0.62751  0.84452  Biso   1.000  H
  H614     1.0000 0.87251  0.65550  0.97761  Biso   1.000  H
  C474     1.0000 0.08724  0.43013  0.85029  Biso   1.000  C
  H615     1.0000 0.15552  0.47763  0.87251  Biso   1.000  H
  H616     1.0000 0.12749  0.34450  0.97761  Biso   1.000  H
  C475     1.0000 0.05484  0.38259  0.86607  Biso   1.000  C
  C476     1.0000 0.86607  0.55486  0.88261  Biso   1.000  C
  C477     1.0000 0.92578  0.53738  0.79855  Biso   1.000  C
  C478     1.0000 0.07422  0.46266  0.79855  Biso   1.000  C
  H617     1.0000 0.02239  0.37249  0.84452  Biso   1.000  H
  H618     1.0000 0.84452  0.52241  0.87251  Biso   1.000  H
  N95      1.0000 0.96531  0.55066  0.76462  Biso   1.000  N
  H619     1.0000 0.90352  0.50490  0.79024  Biso   1.000  H
  N96      1.0000 0.03469  0.44934  0.76462  Biso   1.000  N
  H620     1.0000 0.09648  0.49510  0.79024  Biso   1.000  H
  C479     1.0000 0.97154  0.51474  0.71475  Biso   1.000  C
  C480     1.0000 0.02850  0.48530  0.71475  Biso   1.000  C
  H621     1.0000 0.96794  0.53811  0.68010  Biso   1.000  H
  H622     1.0000 0.94092  0.48603  0.71432  Biso   1.000  H
  H623     1.0000 0.03210  0.46189  0.68010  Biso   1.000  H
  H624     1.0000 0.05912  0.51402  0.71432  Biso   1.000  H
