data_image0
_cell_length_a       29.677
_cell_length_b       20.087
_cell_length_c       30.613
_cell_angle_alpha    90
_cell_angle_beta     90
_cell_angle_gamma    90

_symmetry_space_group_name_H-M    "P 1"
_symmetry_int_tables_number       1

loop_
  _symmetry_equiv_pos_as_xyz
  'x, y, z'

loop_
  _atom_site_label
  _atom_site_occupancy
  _atom_site_fract_x
  _atom_site_fract_y
  _atom_site_fract_z
  _atom_site_thermal_displace_type
  _atom_site_B_iso_or_equiv
  _atom_site_type_symbol
  I1       1.0000 0.54197  0.37885  0.54353  Biso   1.000  I
  C1       1.0000 0.51737  0.28382  0.54650  Biso   1.000  C
  C2       1.0000 0.50019  0.23080  0.55000  Biso   1.000  C
  C3       1.0000 0.47731  0.16862  0.55587  Biso   1.000  C
  C4       1.0000 0.45975  0.13322  0.52001  Biso   1.000  C
  C5       1.0000 0.47249  0.14168  0.59811  Biso   1.000  C
  C6       1.0000 0.43610  0.07358  0.52572  Biso   1.000  C
  O1       1.0000 0.46854  0.15542  0.47839  Biso   1.000  O
  C7       1.0000 0.44941  0.08130  0.60471  Biso   1.000  C
  O2       1.0000 0.49378  0.17180  0.63284  Biso   1.000  O
  C8       1.0000 0.41699  0.03609  0.48662  Biso   1.000  C
  C9       1.0000 0.43124  0.04948  0.56845  Biso   1.000  C
  C10      1.0000 0.44408  0.21312  0.46359  Biso   1.000  C
  C11      1.0000 0.44509  0.05222  0.65054  Biso   1.000  C
  C12      1.0000 0.47279  0.23090  0.65028  Biso   1.000  C
  C13      1.0000 0.36661  0.04859  0.48267  Biso   1.000  C
  H1       1.0000 0.43202  0.05108  0.46020  Biso   1.000  H
  C14      1.0000 0.42882  0.96112  0.48822  Biso   1.000  C
  H2       1.0000 0.41510  0.01040  0.57270  Biso   1.000  H
  C15      1.0000 0.39401  0.20381  0.46666  Biso   1.000  C
  H3       1.0000 0.45281  0.25131  0.48100  Biso   1.000  H
  H4       1.0000 0.45210  0.22218  0.43338  Biso   1.000  H
  H5       1.0000 0.46622  0.07672  0.66919  Biso   1.000  H
  C16      1.0000 0.39812  0.06392  0.66887  Biso   1.000  C
  C17      1.0000 0.45897  0.97790  0.65234  Biso   1.000  C
  H6       1.0000 0.48991  0.24598  0.67540  Biso   1.000  H
  H7       1.0000 0.47380  0.26569  0.62839  Biso   1.000  H
  C18      1.0000 0.42460  0.21989  0.66380  Biso   1.000  C
  C19      1.0000 0.35125  0.10549  0.46078  Biso   1.000  C
  C20      1.0000 0.33403  0.00622  0.50047  Biso   1.000  C
  H8       1.0000 0.41490  0.94160  0.51390  Biso   1.000  H
  H9       1.0000 0.46120  0.95629  0.49120  Biso   1.000  H
  C21      1.0000 0.41345  0.92229  0.44795  Biso   1.000  C
  O3       1.0000 0.38161  0.14706  0.44076  Biso   1.000  O
  H10      1.0000 0.37871  0.24329  0.45598  Biso   1.000  H
  H11      1.0000 0.38532  0.19679  0.49688  Biso   1.000  H
  C22      1.0000 0.36311  0.01742  0.66468  Biso   1.000  C
  C23      1.0000 0.38835  0.12331  0.69085  Biso   1.000  C
  H12      1.0000 0.43869  0.95241  0.63398  Biso   1.000  H
  H13      1.0000 0.45561  0.96202  0.68210  Biso   1.000  H
  C24      1.0000 0.50787  0.96560  0.63718  Biso   1.000  C
  O4       1.0000 0.42262  0.16976  0.69673  Biso   1.000  O
  H14      1.0000 0.40691  0.20630  0.63868  Biso   1.000  H
  H15      1.0000 0.41200  0.26121  0.67488  Biso   1.000  H
  C25      1.0000 0.30495  0.12048  0.45722  Biso   1.000  C
  C26      1.0000 0.28770  0.01792  0.49701  Biso   1.000  C
  H16      1.0000 0.34360  0.96829  0.51530  Biso   1.000  H
  H17      1.0000 0.43869  0.91721  0.42809  Biso   1.000  H
  H18      1.0000 0.39030  0.94748  0.43289  Biso   1.000  H
  C27      1.0000 0.39502  0.85359  0.45948  Biso   1.000  C
  C28      1.0000 0.32035  0.02838  0.68203  Biso   1.000  C
  H19      1.0000 0.36870  0.97790  0.64979  Biso   1.000  H
  C29      1.0000 0.34596  0.13661  0.70803  Biso   1.000  C
  C30      1.0000 0.54372  0.00602  0.66109  Biso   1.000  C
  H20      1.0000 0.50979  0.97551  0.60618  Biso   1.000  H
  H21      1.0000 0.51461  0.91870  0.64090  Biso   1.000  H
  C31      1.0000 0.29043  0.18081  0.43632  Biso   1.000  C
  C32      1.0000 0.27408  0.07622  0.47558  Biso   1.000  C
  C33      1.0000 0.25225  0.97038  0.51521  Biso   1.000  C
  H22      1.0000 0.41760  0.82999  0.47640  Biso   1.000  H
  H23      1.0000 0.36870  0.85931  0.47800  Biso   1.000  H
  C34      1.0000 0.38178  0.81042  0.42038  Biso   1.000  C
  C35      1.0000 0.28194  0.97760  0.67778  Biso   1.000  C
  C36      1.0000 0.31223  0.08782  0.70369  Biso   1.000  C
  C37      1.0000 0.33538  0.19789  0.72995  Biso   1.000  C
  H24      1.0000 0.53921  0.05272  0.65430  Biso   1.000  H
  H25      1.0000 0.57300  0.99348  0.64979  Biso   1.000  H
  C38      1.0000 0.54439  0.99821  0.70970  Biso   1.000  C
  C39      1.0000 0.27880  0.23129  0.41992  Biso   1.000  C
  O5       1.0000 0.22853  0.08921  0.47107  Biso   1.000  O
  C40      1.0000 0.23766  0.99298  0.56045  Biso   1.000  C
  H26      1.0000 0.22630  0.97018  0.49600  Biso   1.000  H
  C41      1.0000 0.26748  0.89760  0.51426  Biso   1.000  C
  H27      1.0000 0.40860  0.79892  0.40398  Biso   1.000  H
  H28      1.0000 0.36210  0.83581  0.40130  Biso   1.000  H
  C42      1.0000 0.35799  0.74730  0.43429  Biso   1.000  C
  C43      1.0000 0.25178  0.99602  0.63927  Biso   1.000  C
  H29      1.0000 0.26421  0.97770  0.70437  Biso   1.000  H
  C44      1.0000 0.29730  0.90491  0.67524  Biso   1.000  C
  O6       1.0000 0.27105  0.09912  0.72257  Biso   1.000  O
  C45      1.0000 0.32203  0.24752  0.74775  Biso   1.000  C
  H30      1.0000 0.51461  0.00772  0.72110  Biso   1.000  H
  C46      1.0000 0.57900  0.04431  0.73260  Biso   1.000  C
  H31      1.0000 0.55140  0.95231  0.71669  Biso   1.000  H
  I2       1.0000 0.26071  0.32160  0.39451  Biso   1.000  I
  C47      1.0000 0.21067  0.12998  0.50528  Biso   1.000  C
  C48      1.0000 0.19608  0.02410  0.56744  Biso   1.000  C
  C49      1.0000 0.26489  0.98118  0.59661  Biso   1.000  C
  H32      1.0000 0.28089  0.88849  0.48600  Biso   1.000  H
  H33      1.0000 0.29070  0.89152  0.53618  Biso   1.000  H
  C50      1.0000 0.22987  0.84652  0.52249  Biso   1.000  C
  H34      1.0000 0.37632  0.72520  0.45618  Biso   1.000  H
  H35      1.0000 0.32962  0.75920  0.44788  Biso   1.000  H
  C51      1.0000 0.34869  0.69851  0.39748  Biso   1.000  C
  C52      1.0000 0.20976  0.02629  0.64541  Biso   1.000  C
  H36      1.0000 0.31661  0.89959  0.64989  Biso   1.000  H
  H37      1.0000 0.27102  0.87689  0.67089  Biso   1.000  H
  C53      1.0000 0.32240  0.88042  0.71528  Biso   1.000  C
  C54      1.0000 0.24056  0.13850  0.69673  Biso   1.000  C
  I3       1.0000 0.29794  0.32932  0.78032  Biso   1.000  I
  H38      1.0000 0.60892  0.03440  0.72139  Biso   1.000  H
  H39      1.0000 0.57910  0.03460  0.76360  Biso   1.000  H
  C55      1.0000 0.56970  0.11639  0.72619  Biso   1.000  C
  C56      1.0000 0.16521  0.10380  0.51873  Biso   1.000  C
  H40      1.0000 0.23089  0.12959  0.53010  Biso   1.000  H
  H41      1.0000 0.20780  0.17549  0.49508  Biso   1.000  H
  O7       1.0000 0.16730  0.03535  0.53285  Biso   1.000  O
  C57      1.0000 0.18155  0.04062  0.60974  Biso   1.000  C
  H42      1.0000 0.29319  0.96251  0.59220  Biso   1.000  H
  H43      1.0000 0.20420  0.85871  0.50459  Biso   1.000  H
  H44      1.0000 0.24039  0.80350  0.51240  Biso   1.000  H
  C58      1.0000 0.21309  0.83840  0.57038  Biso   1.000  C
  H45      1.0000 0.33329  0.66028  0.40878  Biso   1.000  H
  H46      1.0000 0.33019  0.71972  0.37569  Biso   1.000  H
  H47      1.0000 0.37669  0.68492  0.38451  Biso   1.000  H
  O8       1.0000 0.19433  0.03848  0.68722  Biso   1.000  O
  H48      1.0000 0.34852  0.90860  0.72018  Biso   1.000  H
  H49      1.0000 0.30289  0.88410  0.74060  Biso   1.000  H
  C59      1.0000 0.33780  0.80868  0.71058  Biso   1.000  C
  C60      1.0000 0.19449  0.10708  0.70019  Biso   1.000  C
  H50      1.0000 0.23971  0.18390  0.70748  Biso   1.000  H
  H51      1.0000 0.25029  0.13929  0.66648  Biso   1.000  H
  H52      1.0000 0.54372  0.12879  0.74299  Biso   1.000  H
  H53      1.0000 0.59521  0.14188  0.73560  Biso   1.000  H
  H54      1.0000 0.56401  0.12491  0.69578  Biso   1.000  H
  H55      1.0000 0.14459  0.10738  0.49430  Biso   1.000  H
  H56      1.0000 0.15349  0.13098  0.54238  Biso   1.000  H
  C61      1.0000 0.13846  0.07010  0.61729  Biso   1.000  C
  H57      1.0000 0.19739  0.87868  0.57900  Biso   1.000  H
  H58      1.0000 0.23901  0.83333  0.58939  Biso   1.000  H
  C62      1.0000 0.18159  0.77901  0.57721  Biso   1.000  C
  H59      1.0000 0.36109  0.80719  0.68840  Biso   1.000  H
  H60      1.0000 0.31260  0.78270  0.69980  Biso   1.000  H
  C63      1.0000 0.35539  0.77573  0.75060  Biso   1.000  C
  H61      1.0000 0.17360  0.13158  0.68200  Biso   1.000  H
  H62      1.0000 0.18412  0.11042  0.73018  Biso   1.000  H
  C64      1.0000 0.10304  0.09598  0.62480  Biso   1.000  C
  H63      1.0000 0.15591  0.78409  0.55800  Biso   1.000  H
  H64      1.0000 0.17060  0.78011  0.60700  Biso   1.000  H
  C65      1.0000 0.20201  0.71270  0.56910  Biso   1.000  C
  H65      1.0000 0.33120  0.77299  0.77180  Biso   1.000  H
  H66      1.0000 0.36412  0.73062  0.74318  Biso   1.000  H
  C66      1.0000 0.39502  0.80988  0.77170  Biso   1.000  C
  I4       1.0000 0.04761  0.14880  0.63979  Biso   1.000  I
  I5       1.0000 0.03424  0.11510  0.62238  Biso   1.000  I
  H67      1.0000 0.20841  0.70872  0.53810  Biso   1.000  H
  H68      1.0000 0.23062  0.71051  0.58449  Biso   1.000  H
  C67      1.0000 0.17249  0.65211  0.58338  Biso   1.000  C
  H69      1.0000 0.38629  0.85399  0.78130  Biso   1.000  H
  H70      1.0000 0.40469  0.78469  0.79708  Biso   1.000  H
  C68      1.0000 0.43370  0.81510  0.73890  Biso   1.000  C
  H71      1.0000 0.16862  0.65281  0.61458  Biso   1.000  H
  H72      1.0000 0.14361  0.65470  0.56950  Biso   1.000  H
  H73      1.0000 0.18722  0.61139  0.57508  Biso   1.000  H
  H74      1.0000 0.46029  0.83049  0.75360  Biso   1.000  H
  H75      1.0000 0.43940  0.77209  0.72639  Biso   1.000  H
  H76      1.0000 0.42572  0.84592  0.71630  Biso   1.000  H
  I6       1.0000 0.45803  0.62115  0.45647  Biso   1.000  I
  C69      1.0000 0.48266  0.71618  0.45350  Biso   1.000  C
  C70      1.0000 0.49985  0.76920  0.44997  Biso   1.000  C
  C71      1.0000 0.52273  0.83138  0.44409  Biso   1.000  C
  C72      1.0000 0.52751  0.85832  0.40189  Biso   1.000  C
  C73      1.0000 0.54025  0.86678  0.47996  Biso   1.000  C
  O9       1.0000 0.50625  0.82820  0.36713  Biso   1.000  O
  C74      1.0000 0.55063  0.91870  0.39529  Biso   1.000  C
  O10      1.0000 0.53146  0.84458  0.52158  Biso   1.000  O
  C75      1.0000 0.56390  0.92642  0.47428  Biso   1.000  C
  C76      1.0000 0.52721  0.76910  0.34969  Biso   1.000  C
  C77      1.0000 0.56879  0.95052  0.43155  Biso   1.000  C
  C78      1.0000 0.55491  0.94778  0.34946  Biso   1.000  C
  C79      1.0000 0.55592  0.78688  0.53641  Biso   1.000  C
  C80      1.0000 0.58301  0.96391  0.51334  Biso   1.000  C
  H77      1.0000 0.51009  0.75402  0.32460  Biso   1.000  H
  H78      1.0000 0.52620  0.73431  0.37161  Biso   1.000  H
  C81      1.0000 0.57540  0.78011  0.33620  Biso   1.000  C
  H79      1.0000 0.58490  0.98960  0.42730  Biso   1.000  H
  H80      1.0000 0.53381  0.92328  0.33081  Biso   1.000  H
  C82      1.0000 0.60191  0.93608  0.33110  Biso   1.000  C
  C83      1.0000 0.54103  0.02210  0.34763  Biso   1.000  C
  C84      1.0000 0.60599  0.79619  0.53334  Biso   1.000  C
  H81      1.0000 0.54719  0.74869  0.51900  Biso   1.000  H
  H82      1.0000 0.54790  0.77782  0.56659  Biso   1.000  H
  C85      1.0000 0.63339  0.95141  0.51733  Biso   1.000  C
  H83      1.0000 0.56802  0.94892  0.53980  Biso   1.000  H
  C86      1.0000 0.57122  0.03888  0.51178  Biso   1.000  C
  O11      1.0000 0.57738  0.83024  0.30324  Biso   1.000  O
  H84      1.0000 0.59312  0.79370  0.36128  Biso   1.000  H
  H85      1.0000 0.58800  0.73879  0.32509  Biso   1.000  H
  C87      1.0000 0.61169  0.87669  0.30912  Biso   1.000  C
  C88      1.0000 0.63689  0.98263  0.33532  Biso   1.000  C
  H86      1.0000 0.56131  0.04759  0.36599  Biso   1.000  H
  H87      1.0000 0.54439  0.03798  0.31790  Biso   1.000  H
  C89      1.0000 0.49217  0.03440  0.36279  Biso   1.000  C
  O12      1.0000 0.61843  0.85294  0.55924  Biso   1.000  O
  H88      1.0000 0.62132  0.75671  0.54398  Biso   1.000  H
  H89      1.0000 0.61472  0.80321  0.50309  Biso   1.000  H
  C90      1.0000 0.64875  0.89451  0.53918  Biso   1.000  C
  C91      1.0000 0.66597  0.99378  0.49949  Biso   1.000  C
  H90      1.0000 0.58510  0.05840  0.48610  Biso   1.000  H
  H91      1.0000 0.53880  0.04371  0.50880  Biso   1.000  H
  C92      1.0000 0.58655  0.07771  0.55205  Biso   1.000  C
  C93      1.0000 0.65404  0.86339  0.29197  Biso   1.000  C
  C94      1.0000 0.67965  0.97162  0.31797  Biso   1.000  C
  H92      1.0000 0.63130  0.02210  0.35018  Biso   1.000  H
  C95      1.0000 0.45631  0.99398  0.33891  Biso   1.000  C
  H93      1.0000 0.49021  0.02449  0.39379  Biso   1.000  H
  H94      1.0000 0.48539  0.08130  0.35910  Biso   1.000  H
  C96      1.0000 0.69505  0.87952  0.54274  Biso   1.000  C
  C97      1.0000 0.71234  0.98208  0.50296  Biso   1.000  C
  H95      1.0000 0.65640  0.03171  0.48470  Biso   1.000  H
  H96      1.0000 0.56131  0.08279  0.57188  Biso   1.000  H
  H97      1.0000 0.60970  0.05252  0.56708  Biso   1.000  H
  C98      1.0000 0.60501  0.14641  0.54052  Biso   1.000  C
  C99      1.0000 0.68777  0.91218  0.29628  Biso   1.000  C
  C100     1.0000 0.66462  0.80211  0.27002  Biso   1.000  C
  C101     1.0000 0.71806  0.02240  0.32218  Biso   1.000  C
  H98      1.0000 0.46079  0.94728  0.34570  Biso   1.000  H
  H99      1.0000 0.42700  0.00652  0.35018  Biso   1.000  H
  C102     1.0000 0.45561  0.00179  0.29030  Biso   1.000  C
  C103     1.0000 0.72595  0.92378  0.52439  Biso   1.000  C
  C104     1.0000 0.70957  0.81919  0.56368  Biso   1.000  C
  C105     1.0000 0.74775  0.02962  0.48476  Biso   1.000  C
  H100     1.0000 0.58240  0.17001  0.52360  Biso   1.000  H
  H101     1.0000 0.63130  0.14069  0.52200  Biso   1.000  H
  C106     1.0000 0.61822  0.18958  0.57962  Biso   1.000  C
  O13      1.0000 0.72895  0.90088  0.27740  Biso   1.000  O
  C107     1.0000 0.67797  0.75248  0.25221  Biso   1.000  C
  H102     1.0000 0.73582  0.02230  0.29559  Biso   1.000  H
  C108     1.0000 0.74822  0.00398  0.36070  Biso   1.000  C
  C109     1.0000 0.70273  0.09509  0.32473  Biso   1.000  C
  H103     1.0000 0.48539  0.99228  0.27890  Biso   1.000  H
  C110     1.0000 0.42100  0.95569  0.26740  Biso   1.000  C
  H104     1.0000 0.44860  0.04769  0.28331  Biso   1.000  H
  O14      1.0000 0.77147  0.91079  0.52893  Biso   1.000  O
  C111     1.0000 0.72120  0.76871  0.58005  Biso   1.000  C
  C112     1.0000 0.76234  0.00702  0.43955  Biso   1.000  C
  H105     1.0000 0.77370  0.02982  0.50400  Biso   1.000  H
  C113     1.0000 0.73252  0.10240  0.48571  Biso   1.000  C
  H106     1.0000 0.59140  0.20108  0.59599  Biso   1.000  H
  H107     1.0000 0.63790  0.16419  0.59870  Biso   1.000  H
  C114     1.0000 0.64201  0.25270  0.56567  Biso   1.000  C
  C115     1.0000 0.75944  0.86150  0.30327  Biso   1.000  C
  I7       1.0000 0.70206  0.67068  0.21968  Biso   1.000  I
  C116     1.0000 0.79024  0.97371  0.35459  Biso   1.000  C
  C117     1.0000 0.73511  0.01882  0.40336  Biso   1.000  C
  H108     1.0000 0.68339  0.10041  0.35008  Biso   1.000  H
  H109     1.0000 0.72902  0.12311  0.32911  Biso   1.000  H
  C118     1.0000 0.67760  0.11958  0.28472  Biso   1.000  C
  H110     1.0000 0.39111  0.96560  0.27861  Biso   1.000  H
  H111     1.0000 0.42090  0.96540  0.23640  Biso   1.000  H
  C119     1.0000 0.43030  0.88361  0.27381  Biso   1.000  C
  C120     1.0000 0.78937  0.87002  0.49472  Biso   1.000  C
  I8       1.0000 0.73933  0.67840  0.60546  Biso   1.000  I
  C121     1.0000 0.80392  0.97590  0.43253  Biso   1.000  C
  H112     1.0000 0.71911  0.11151  0.51400  Biso   1.000  H
  H113     1.0000 0.70930  0.10848  0.46379  Biso   1.000  H
  C122     1.0000 0.77016  0.15348  0.47748  Biso   1.000  C
  H114     1.0000 0.62372  0.27480  0.54379  Biso   1.000  H
  H115     1.0000 0.67042  0.24080  0.55209  Biso   1.000  H
  C123     1.0000 0.65131  0.30149  0.60249  Biso   1.000  C
  H116     1.0000 0.76032  0.81610  0.29249  Biso   1.000  H
  H117     1.0000 0.74971  0.86071  0.33349  Biso   1.000  H
  C124     1.0000 0.80551  0.89292  0.29981  Biso   1.000  C
  O15      1.0000 0.80571  0.96152  0.31278  Biso   1.000  O
  C125     1.0000 0.81848  0.95938  0.39026  Biso   1.000  C
  H118     1.0000 0.70681  0.03749  0.40780  Biso   1.000  H
  H119     1.0000 0.65151  0.09140  0.27978  Biso   1.000  H
  H120     1.0000 0.69711  0.11590  0.25940  Biso   1.000  H
  C126     1.0000 0.66220  0.19132  0.28939  Biso   1.000  C
  H121     1.0000 0.45631  0.87121  0.25698  Biso   1.000  H
  H122     1.0000 0.40479  0.85812  0.26440  Biso   1.000  H
  H123     1.0000 0.43599  0.87509  0.30418  Biso   1.000  H
  C127     1.0000 0.83482  0.89620  0.48123  Biso   1.000  C
  H124     1.0000 0.76911  0.87041  0.46990  Biso   1.000  H
  H125     1.0000 0.79220  0.82451  0.50488  Biso   1.000  H
  O16      1.0000 0.83270  0.96465  0.46712  Biso   1.000  O
  H126     1.0000 0.79580  0.14129  0.49538  Biso   1.000  H
  H127     1.0000 0.75961  0.19650  0.48760  Biso   1.000  H
  C128     1.0000 0.78691  0.16160  0.42959  Biso   1.000  C
  H128     1.0000 0.66671  0.33972  0.59119  Biso   1.000  H
  H129     1.0000 0.66981  0.28028  0.62428  Biso   1.000  H
  H130     1.0000 0.62331  0.31508  0.61549  Biso   1.000  H
  H131     1.0000 0.82640  0.86842  0.31800  Biso   1.000  H
  H132     1.0000 0.81592  0.88958  0.26979  Biso   1.000  H
  C129     1.0000 0.86154  0.92990  0.38271  Biso   1.000  C
  H133     1.0000 0.63891  0.19281  0.31160  Biso   1.000  H
  H134     1.0000 0.68740  0.21730  0.30020  Biso   1.000  H
  C130     1.0000 0.64461  0.22432  0.24940  Biso   1.000  C
  H135     1.0000 0.85541  0.89262  0.50570  Biso   1.000  H
  H136     1.0000 0.84651  0.86902  0.45758  Biso   1.000  H
  H137     1.0000 0.80261  0.12132  0.42100  Biso   1.000  H
  H138     1.0000 0.76099  0.16672  0.41058  Biso   1.000  H
  C131     1.0000 0.81841  0.22099  0.42279  Biso   1.000  C
  C132     1.0000 0.89696  0.90402  0.37520  Biso   1.000  C
  H139     1.0000 0.66880  0.22701  0.22820  Biso   1.000  H
  H140     1.0000 0.63591  0.26938  0.25679  Biso   1.000  H
  C133     1.0000 0.60501  0.19012  0.22830  Biso   1.000  C
  H141     1.0000 0.84412  0.21591  0.44200  Biso   1.000  H
  H142     1.0000 0.82940  0.21989  0.39300  Biso   1.000  H
  C134     1.0000 0.79799  0.28730  0.43090  Biso   1.000  C
  I9       1.0000 0.95239  0.85120  0.36021  Biso   1.000  I
  I10      1.0000 0.96580  0.88490  0.37758  Biso   1.000  I
  H143     1.0000 0.61371  0.14601  0.21870  Biso   1.000  H
  H144     1.0000 0.59531  0.21531  0.20289  Biso   1.000  H
  C135     1.0000 0.56630  0.18490  0.26110  Biso   1.000  C
  H145     1.0000 0.79162  0.29128  0.46190  Biso   1.000  H
  H146     1.0000 0.76942  0.28949  0.41548  Biso   1.000  H
  C136     1.0000 0.82751  0.34789  0.41659  Biso   1.000  C
  H147     1.0000 0.53971  0.16951  0.24640  Biso   1.000  H
  H148     1.0000 0.56060  0.22791  0.27361  Biso   1.000  H
  H149     1.0000 0.57432  0.15408  0.28370  Biso   1.000  H
  H150     1.0000 0.83142  0.34719  0.38539  Biso   1.000  H
  H151     1.0000 0.85642  0.34530  0.43050  Biso   1.000  H
  H152     1.0000 0.81282  0.38861  0.42488  Biso   1.000  H
  I11      1.0000 0.53422  0.38488  0.37758  Biso   1.000  I
  C137     1.0000 0.60306  0.40399  0.37520  Biso   1.000  C
  I12      1.0000 0.54763  0.35117  0.36021  Biso   1.000  I
  C138     1.0000 0.63847  0.42988  0.38271  Biso   1.000  C
  C139     1.0000 0.68154  0.45940  0.39026  Biso   1.000  C
  C140     1.0000 0.70978  0.47369  0.35459  Biso   1.000  C
  C141     1.0000 0.69606  0.47588  0.43253  Biso   1.000  C
  O17      1.0000 0.69431  0.46154  0.31278  Biso   1.000  O
  C142     1.0000 0.75179  0.50401  0.36070  Biso   1.000  C
  O18      1.0000 0.66732  0.46468  0.46712  Biso   1.000  O
  C143     1.0000 0.73768  0.50699  0.43955  Biso   1.000  C
  C144     1.0000 0.69451  0.39289  0.29981  Biso   1.000  C
  C145     1.0000 0.78195  0.52238  0.32218  Biso   1.000  C
  C146     1.0000 0.76490  0.51879  0.40336  Biso   1.000  C
  C147     1.0000 0.66520  0.39618  0.48123  Biso   1.000  C
  C148     1.0000 0.75227  0.52960  0.48476  Biso   1.000  C
  C149     1.0000 0.74057  0.36148  0.30327  Biso   1.000  C
  H153     1.0000 0.67362  0.36840  0.31800  Biso   1.000  H
  H154     1.0000 0.68410  0.38961  0.26979  Biso   1.000  H
  C150     1.0000 0.82037  0.47160  0.31797  Biso   1.000  C
  H155     1.0000 0.76419  0.52228  0.29559  Biso   1.000  H
  C151     1.0000 0.79728  0.59511  0.32473  Biso   1.000  C
  H156     1.0000 0.79321  0.53751  0.40780  Biso   1.000  H
  H157     1.0000 0.64461  0.39259  0.50570  Biso   1.000  H
  H158     1.0000 0.65350  0.36899  0.45758  Biso   1.000  H
  C152     1.0000 0.71065  0.36999  0.49472  Biso   1.000  C
  H159     1.0000 0.72632  0.52980  0.50400  Biso   1.000  H
  C153     1.0000 0.78768  0.48210  0.50296  Biso   1.000  C
  C154     1.0000 0.76750  0.60238  0.48571  Biso   1.000  C
  O19      1.0000 0.77107  0.40086  0.27740  Biso   1.000  O
  H160     1.0000 0.73970  0.31612  0.29249  Biso   1.000  H
  H161     1.0000 0.75031  0.36068  0.33349  Biso   1.000  H
  C155     1.0000 0.81221  0.41221  0.29628  Biso   1.000  C
  C156     1.0000 0.86313  0.48260  0.33532  Biso   1.000  C
  H162     1.0000 0.81659  0.60039  0.35008  Biso   1.000  H
  H163     1.0000 0.77100  0.62309  0.32911  Biso   1.000  H
  C157     1.0000 0.82242  0.61960  0.28472  Biso   1.000  C
  O20      1.0000 0.72854  0.41076  0.52893  Biso   1.000  O
  H164     1.0000 0.73090  0.37039  0.46990  Biso   1.000  H
  H165     1.0000 0.70782  0.32449  0.50488  Biso   1.000  H
  C158     1.0000 0.77407  0.42381  0.52439  Biso   1.000  C
  C159     1.0000 0.83405  0.49380  0.49949  Biso   1.000  C
  H166     1.0000 0.78091  0.61149  0.51400  Biso   1.000  H
  H167     1.0000 0.79071  0.60850  0.46379  Biso   1.000  H
  C160     1.0000 0.72986  0.65351  0.47748  Biso   1.000  C
  C161     1.0000 0.84597  0.36342  0.29197  Biso   1.000  C
  C162     1.0000 0.89810  0.43610  0.33110  Biso   1.000  C
  H168     1.0000 0.86872  0.52208  0.35018  Biso   1.000  H
  H169     1.0000 0.84850  0.59138  0.27978  Biso   1.000  H
  H170     1.0000 0.80291  0.61592  0.25940  Biso   1.000  H
  C163     1.0000 0.83782  0.69129  0.28939  Biso   1.000  C
  C164     1.0000 0.80497  0.37950  0.54274  Biso   1.000  C
  C165     1.0000 0.86663  0.45139  0.51733  Biso   1.000  C
  H171     1.0000 0.84362  0.53169  0.48470  Biso   1.000  H
  H172     1.0000 0.70422  0.64131  0.49538  Biso   1.000  H
  H173     1.0000 0.74041  0.69652  0.48760  Biso   1.000  H
  C166     1.0000 0.71311  0.66162  0.42959  Biso   1.000  C
  C167     1.0000 0.88833  0.37671  0.30912  Biso   1.000  C
  C168     1.0000 0.83539  0.30209  0.27002  Biso   1.000  C
  C169     1.0000 0.94511  0.44780  0.34946  Biso   1.000  C
  H174     1.0000 0.86110  0.69279  0.31160  Biso   1.000  H
  H175     1.0000 0.81262  0.71728  0.30020  Biso   1.000  H
  C170     1.0000 0.85541  0.72430  0.24940  Biso   1.000  C
  C171     1.0000 0.85127  0.39448  0.53918  Biso   1.000  C
  C172     1.0000 0.79044  0.31921  0.56368  Biso   1.000  C
  C173     1.0000 0.91701  0.46388  0.51334  Biso   1.000  C
  H176     1.0000 0.69741  0.62130  0.42100  Biso   1.000  H
  H177     1.0000 0.73902  0.66670  0.41058  Biso   1.000  H
  C174     1.0000 0.68161  0.72101  0.42279  Biso   1.000  C
  O21      1.0000 0.92263  0.33021  0.30324  Biso   1.000  O
  C175     1.0000 0.82205  0.25250  0.25221  Biso   1.000  C
  C176     1.0000 0.94939  0.41868  0.39529  Biso   1.000  C
  H178     1.0000 0.96620  0.42331  0.33081  Biso   1.000  H
  C177     1.0000 0.95899  0.52208  0.34763  Biso   1.000  C
  H179     1.0000 0.83122  0.72699  0.22820  Biso   1.000  H
  H180     1.0000 0.86410  0.76940  0.25679  Biso   1.000  H
  C178     1.0000 0.89500  0.69010  0.22830  Biso   1.000  C
  O22      1.0000 0.88159  0.35291  0.55924  Biso   1.000  O
  C179     1.0000 0.77882  0.26868  0.58005  Biso   1.000  C
  C180     1.0000 0.93611  0.42640  0.47428  Biso   1.000  C
  H181     1.0000 0.93200  0.44890  0.53980  Biso   1.000  H
  C181     1.0000 0.92880  0.53891  0.51178  Biso   1.000  C
  H182     1.0000 0.65590  0.71589  0.44200  Biso   1.000  H
  H183     1.0000 0.67062  0.71992  0.39300  Biso   1.000  H
  C182     1.0000 0.70199  0.78733  0.43090  Biso   1.000  C
  C183     1.0000 0.92462  0.28008  0.33620  Biso   1.000  C
  I13      1.0000 0.79796  0.17071  0.21968  Biso   1.000  I
  C184     1.0000 0.97250  0.35829  0.40189  Biso   1.000  C
  C185     1.0000 0.93123  0.45049  0.43155  Biso   1.000  C
  H184     1.0000 0.93871  0.54762  0.36599  Biso   1.000  H
  H185     1.0000 0.95562  0.53801  0.31790  Biso   1.000  H
  C186     1.0000 0.00785  0.53443  0.36279  Biso   1.000  C
  H186     1.0000 0.88631  0.64599  0.21870  Biso   1.000  H
  H187     1.0000 0.90471  0.71529  0.20289  Biso   1.000  H
  C187     1.0000 0.93372  0.68492  0.26110  Biso   1.000  C
  C188     1.0000 0.89403  0.29621  0.53334  Biso   1.000  C
  I14      1.0000 0.76069  0.17842  0.60546  Biso   1.000  I
  C189     1.0000 0.95977  0.36680  0.47996  Biso   1.000  C
  H188     1.0000 0.91492  0.55842  0.48610  Biso   1.000  H
  H189     1.0000 0.96122  0.54368  0.50880  Biso   1.000  H
  C190     1.0000 0.91347  0.57769  0.55205  Biso   1.000  C
  H190     1.0000 0.70839  0.79131  0.46190  Biso   1.000  H
  H191     1.0000 0.73060  0.78952  0.41548  Biso   1.000  H
  C191     1.0000 0.67251  0.84791  0.41659  Biso   1.000  C
  C192     1.0000 0.97281  0.26908  0.34969  Biso   1.000  C
  H192     1.0000 0.90690  0.29372  0.36128  Biso   1.000  H
  H193     1.0000 0.91202  0.23881  0.32509  Biso   1.000  H
  O23      1.0000 0.99377  0.32817  0.36713  Biso   1.000  O
  C193     1.0000 0.97729  0.33141  0.44409  Biso   1.000  C
  H194     1.0000 0.91512  0.48962  0.42730  Biso   1.000  H
  H195     1.0000 0.00981  0.52452  0.39379  Biso   1.000  H
  H196     1.0000 0.01459  0.58132  0.35910  Biso   1.000  H
  C194     1.0000 0.04370  0.49400  0.33891  Biso   1.000  C
  H197     1.0000 0.96031  0.66949  0.24640  Biso   1.000  H
  H198     1.0000 0.93941  0.72788  0.27361  Biso   1.000  H
  H199     1.0000 0.92570  0.65410  0.28370  Biso   1.000  H
  H200     1.0000 0.87869  0.25668  0.54398  Biso   1.000  H
  H201     1.0000 0.88530  0.30318  0.50309  Biso   1.000  H
  C195     1.0000 0.94410  0.28690  0.53641  Biso   1.000  C
  O24      1.0000 0.96856  0.34455  0.52158  Biso   1.000  O
  H202     1.0000 0.93871  0.58281  0.57188  Biso   1.000  H
  H203     1.0000 0.89032  0.55250  0.56708  Biso   1.000  H
  C196     1.0000 0.89500  0.64639  0.54052  Biso   1.000  C
  H204     1.0000 0.66860  0.84721  0.38539  Biso   1.000  H
  H205     1.0000 0.64360  0.84532  0.43050  Biso   1.000  H
  H206     1.0000 0.68720  0.88858  0.42488  Biso   1.000  H
  H207     1.0000 0.98992  0.25400  0.32460  Biso   1.000  H
  H208     1.0000 0.97382  0.23428  0.37161  Biso   1.000  H
  C197     1.0000 0.00017  0.26918  0.44997  Biso   1.000  C
  H209     1.0000 0.03919  0.44730  0.34570  Biso   1.000  H
  H210     1.0000 0.07299  0.50650  0.35018  Biso   1.000  H
  C198     1.0000 0.04441  0.50182  0.29030  Biso   1.000  C
  H211     1.0000 0.95283  0.24872  0.51900  Biso   1.000  H
  H212     1.0000 0.95212  0.27779  0.56659  Biso   1.000  H
  H213     1.0000 0.91761  0.66999  0.52360  Biso   1.000  H
  H214     1.0000 0.86872  0.64071  0.52200  Biso   1.000  H
  C199     1.0000 0.88179  0.68960  0.57962  Biso   1.000  C
  C200     1.0000 0.01735  0.21621  0.45350  Biso   1.000  C
  H215     1.0000 0.01459  0.49231  0.27890  Biso   1.000  H
  H216     1.0000 0.05139  0.54772  0.28331  Biso   1.000  H
  C201     1.0000 0.07902  0.45572  0.26740  Biso   1.000  C
  H217     1.0000 0.90862  0.70110  0.59599  Biso   1.000  H
  H218     1.0000 0.86212  0.66421  0.59870  Biso   1.000  H
  C202     1.0000 0.85800  0.75268  0.56567  Biso   1.000  C
  I15      1.0000 0.04199  0.12117  0.45647  Biso   1.000  I
  H219     1.0000 0.10891  0.46562  0.27861  Biso   1.000  H
  H220     1.0000 0.07908  0.46538  0.23640  Biso   1.000  H
  C203     1.0000 0.06972  0.38358  0.27381  Biso   1.000  C
  H221     1.0000 0.87630  0.77478  0.54379  Biso   1.000  H
  H222     1.0000 0.82960  0.74078  0.55209  Biso   1.000  H
  C204     1.0000 0.84870  0.80151  0.60249  Biso   1.000  C
  H223     1.0000 0.04370  0.37119  0.25698  Biso   1.000  H
  H224     1.0000 0.09519  0.35809  0.26440  Biso   1.000  H
  H225     1.0000 0.06399  0.37512  0.30418  Biso   1.000  H
  H226     1.0000 0.83331  0.83970  0.59119  Biso   1.000  H
  H227     1.0000 0.83021  0.78031  0.62428  Biso   1.000  H
  H228     1.0000 0.87671  0.81510  0.61549  Biso   1.000  H
  I16      1.0000 0.46578  0.61512  0.62238  Biso   1.000  I
  C205     1.0000 0.39697  0.59601  0.62480  Biso   1.000  C
  C206     1.0000 0.36153  0.57012  0.61729  Biso   1.000  C
  I17      1.0000 0.45240  0.64883  0.63979  Biso   1.000  I
  C207     1.0000 0.31846  0.54060  0.60974  Biso   1.000  C
  C208     1.0000 0.30394  0.52412  0.56744  Biso   1.000  C
  C209     1.0000 0.29026  0.52631  0.64541  Biso   1.000  C
  C210     1.0000 0.26232  0.49301  0.56045  Biso   1.000  C
  O25      1.0000 0.33268  0.53532  0.53285  Biso   1.000  O
  C211     1.0000 0.24821  0.49599  0.63927  Biso   1.000  C
  O26      1.0000 0.30569  0.53846  0.68722  Biso   1.000  O
  C212     1.0000 0.24773  0.47040  0.51521  Biso   1.000  C
  C213     1.0000 0.23510  0.48121  0.59661  Biso   1.000  C
  C214     1.0000 0.33480  0.60382  0.51873  Biso   1.000  C
  C215     1.0000 0.21805  0.47762  0.67778  Biso   1.000  C
  C216     1.0000 0.30549  0.60711  0.70019  Biso   1.000  C
  C217     1.0000 0.21232  0.51790  0.49701  Biso   1.000  C
  H229     1.0000 0.27371  0.47020  0.49600  Biso   1.000  H
  C218     1.0000 0.23250  0.39762  0.51426  Biso   1.000  C
  H230     1.0000 0.20679  0.46249  0.59220  Biso   1.000  H
  C219     1.0000 0.28935  0.63001  0.50528  Biso   1.000  C
  H231     1.0000 0.35539  0.60741  0.49430  Biso   1.000  H
  H232     1.0000 0.34650  0.63101  0.54238  Biso   1.000  H
  C220     1.0000 0.17967  0.52840  0.68203  Biso   1.000  C
  H233     1.0000 0.23581  0.47772  0.70437  Biso   1.000  H
  C221     1.0000 0.20272  0.40489  0.67524  Biso   1.000  C
  C222     1.0000 0.25946  0.63852  0.69673  Biso   1.000  C
  H234     1.0000 0.32641  0.63160  0.68200  Biso   1.000  H
  H235     1.0000 0.31590  0.61039  0.73018  Biso   1.000  H
  C223     1.0000 0.16599  0.50620  0.50047  Biso   1.000  C
  C224     1.0000 0.22593  0.57619  0.47558  Biso   1.000  C
  H236     1.0000 0.21909  0.38851  0.48600  Biso   1.000  H
  H237     1.0000 0.20929  0.39150  0.53618  Biso   1.000  H
  C225     1.0000 0.27014  0.34649  0.52249  Biso   1.000  C
  O27      1.0000 0.27146  0.58924  0.47107  Biso   1.000  O
  H238     1.0000 0.26910  0.62961  0.53010  Biso   1.000  H
  H239     1.0000 0.29221  0.67551  0.49508  Biso   1.000  H
  C226     1.0000 0.13687  0.51740  0.66468  Biso   1.000  C
  C227     1.0000 0.18779  0.58779  0.70369  Biso   1.000  C
  H240     1.0000 0.18341  0.39961  0.64989  Biso   1.000  H
  H241     1.0000 0.22900  0.37691  0.67089  Biso   1.000  H
  C228     1.0000 0.17761  0.38040  0.71528  Biso   1.000  C
  O28      1.0000 0.22893  0.59914  0.72257  Biso   1.000  O
  H242     1.0000 0.26030  0.68392  0.70748  Biso   1.000  H
  H243     1.0000 0.24969  0.63932  0.66648  Biso   1.000  H
  C229     1.0000 0.13337  0.54861  0.48267  Biso   1.000  C
  H244     1.0000 0.15642  0.46831  0.51530  Biso   1.000  H
  C230     1.0000 0.19503  0.62050  0.45722  Biso   1.000  C
  H245     1.0000 0.29582  0.35869  0.50459  Biso   1.000  H
  H246     1.0000 0.25959  0.30348  0.51240  Biso   1.000  H
  C231     1.0000 0.28689  0.33838  0.57038  Biso   1.000  C
  C232     1.0000 0.10190  0.56390  0.66887  Biso   1.000  C
  H247     1.0000 0.13131  0.47792  0.64979  Biso   1.000  H
  C233     1.0000 0.15403  0.63658  0.70803  Biso   1.000  C
  H248     1.0000 0.15150  0.40862  0.72018  Biso   1.000  H
  H249     1.0000 0.19709  0.38408  0.74060  Biso   1.000  H
  C234     1.0000 0.16221  0.30871  0.71058  Biso   1.000  C
  C235     1.0000 0.08299  0.53612  0.48662  Biso   1.000  C
  C236     1.0000 0.14877  0.60552  0.46078  Biso   1.000  C
  C237     1.0000 0.20959  0.68079  0.43632  Biso   1.000  C
  H250     1.0000 0.30259  0.37870  0.57900  Biso   1.000  H
  H251     1.0000 0.26101  0.33330  0.58939  Biso   1.000  H
  C238     1.0000 0.31839  0.27899  0.57721  Biso   1.000  C
  C239     1.0000 0.05492  0.55220  0.65054  Biso   1.000  C
  C240     1.0000 0.11167  0.62329  0.69085  Biso   1.000  C
  C241     1.0000 0.16464  0.69791  0.72995  Biso   1.000  C
  H252     1.0000 0.13890  0.30721  0.68840  Biso   1.000  H
  H253     1.0000 0.18742  0.28272  0.69980  Biso   1.000  H
  C242     1.0000 0.14459  0.27570  0.75060  Biso   1.000  C
  C243     1.0000 0.07120  0.46109  0.48822  Biso   1.000  C
  C244     1.0000 0.06392  0.57360  0.52572  Biso   1.000  C
  H254     1.0000 0.06800  0.55110  0.46020  Biso   1.000  H
  O29      1.0000 0.11841  0.64709  0.44076  Biso   1.000  O
  C245     1.0000 0.22118  0.73132  0.41992  Biso   1.000  C
  H255     1.0000 0.34410  0.28411  0.55800  Biso   1.000  H
  H256     1.0000 0.32941  0.28008  0.60700  Biso   1.000  H
  C246     1.0000 0.29801  0.21272  0.56910  Biso   1.000  C
  C247     1.0000 0.05061  0.58132  0.60471  Biso   1.000  C
  H257     1.0000 0.03380  0.57669  0.66919  Biso   1.000  H
  C248     1.0000 0.04104  0.47792  0.65234  Biso   1.000  C
  O30      1.0000 0.07740  0.66979  0.69673  Biso   1.000  O
  C249     1.0000 0.17798  0.74750  0.74775  Biso   1.000  C
  H258     1.0000 0.16882  0.27301  0.77180  Biso   1.000  H
  H259     1.0000 0.13590  0.23060  0.74318  Biso   1.000  H
  C250     1.0000 0.10500  0.30990  0.77170  Biso   1.000  C
  C251     1.0000 0.08653  0.42231  0.44795  Biso   1.000  C
  H260     1.0000 0.08512  0.44158  0.51390  Biso   1.000  H
  H261     1.0000 0.03878  0.45632  0.49120  Biso   1.000  H
  C252     1.0000 0.06877  0.54951  0.56845  Biso   1.000  C
  C253     1.0000 0.04027  0.63320  0.52001  Biso   1.000  C
  C254     1.0000 0.10597  0.70379  0.46666  Biso   1.000  C
  I18      1.0000 0.23931  0.82158  0.39451  Biso   1.000  I
  H262     1.0000 0.29161  0.20869  0.53810  Biso   1.000  H
  H263     1.0000 0.26940  0.21048  0.58449  Biso   1.000  H
  C255     1.0000 0.32749  0.15209  0.58338  Biso   1.000  C
  C256     1.0000 0.02753  0.64171  0.59811  Biso   1.000  C
  H264     1.0000 0.06129  0.45238  0.63398  Biso   1.000  H
  H265     1.0000 0.04441  0.46199  0.68210  Biso   1.000  H
  C257     1.0000 0.99215  0.46562  0.63718  Biso   1.000  C
  C258     1.0000 0.07538  0.71992  0.66380  Biso   1.000  C
  I19      1.0000 0.20208  0.82929  0.78032  Biso   1.000  I
  H266     1.0000 0.11369  0.35401  0.78130  Biso   1.000  H
  H267     1.0000 0.09529  0.28471  0.79708  Biso   1.000  H
  C259     1.0000 0.06631  0.31508  0.73890  Biso   1.000  C
  C260     1.0000 0.10500  0.35361  0.45948  Biso   1.000  C
  H268     1.0000 0.06129  0.41719  0.42809  Biso   1.000  H
  H269     1.0000 0.10971  0.44750  0.43289  Biso   1.000  H
  H270     1.0000 0.08491  0.51038  0.57270  Biso   1.000  H
  O31      1.0000 0.03144  0.65545  0.47839  Biso   1.000  O
  C261     1.0000 0.02271  0.66859  0.55587  Biso   1.000  C
  C262     1.0000 0.05594  0.71310  0.46359  Biso   1.000  C
  H271     1.0000 0.12131  0.74332  0.45598  Biso   1.000  H
  H272     1.0000 0.11470  0.69682  0.49688  Biso   1.000  H
  H273     1.0000 0.33140  0.15279  0.61458  Biso   1.000  H
  H274     1.0000 0.35640  0.15468  0.56950  Biso   1.000  H
  H275     1.0000 0.31280  0.11142  0.57508  Biso   1.000  H
  O32      1.0000 0.00623  0.67183  0.63284  Biso   1.000  O
  H276     1.0000 0.99019  0.47548  0.60618  Biso   1.000  H
  H277     1.0000 0.98541  0.41868  0.64090  Biso   1.000  H
  C263     1.0000 0.95630  0.50600  0.66109  Biso   1.000  C
  C264     1.0000 0.02719  0.73092  0.65028  Biso   1.000  C
  H278     1.0000 0.09310  0.70628  0.63868  Biso   1.000  H
  H279     1.0000 0.08801  0.76119  0.67488  Biso   1.000  H
  H280     1.0000 0.03969  0.33051  0.75360  Biso   1.000  H
  H281     1.0000 0.06059  0.27212  0.72639  Biso   1.000  H
  H282     1.0000 0.07430  0.34590  0.71630  Biso   1.000  H
  C265     1.0000 0.11821  0.31040  0.42038  Biso   1.000  C
  H283     1.0000 0.08239  0.33001  0.47640  Biso   1.000  H
  H284     1.0000 0.13131  0.35929  0.47800  Biso   1.000  H
  C266     1.0000 0.99983  0.73082  0.55000  Biso   1.000  C
  H285     1.0000 0.04721  0.75128  0.48100  Biso   1.000  H
  H286     1.0000 0.04792  0.72221  0.43338  Biso   1.000  H
  H287     1.0000 0.96081  0.55270  0.65430  Biso   1.000  H
  H288     1.0000 0.92701  0.49350  0.64979  Biso   1.000  H
  C267     1.0000 0.95562  0.49818  0.70970  Biso   1.000  C
  H289     1.0000 0.01011  0.74600  0.67540  Biso   1.000  H
  H290     1.0000 0.02622  0.76572  0.62839  Biso   1.000  H
  C268     1.0000 0.14200  0.24732  0.43429  Biso   1.000  C
  H291     1.0000 0.09142  0.29890  0.40398  Biso   1.000  H
  H292     1.0000 0.13788  0.33579  0.40130  Biso   1.000  H
  C269     1.0000 0.98265  0.78379  0.54650  Biso   1.000  C
  H293     1.0000 0.98541  0.50769  0.72110  Biso   1.000  H
  H294     1.0000 0.94861  0.45228  0.71669  Biso   1.000  H
  C270     1.0000 0.92102  0.54428  0.73260  Biso   1.000  C
  C271     1.0000 0.15130  0.19849  0.39748  Biso   1.000  C
  H295     1.0000 0.12370  0.22522  0.45618  Biso   1.000  H
  H296     1.0000 0.17040  0.25922  0.44788  Biso   1.000  H
  I20      1.0000 0.95805  0.87883  0.54353  Biso   1.000  I
  H297     1.0000 0.89109  0.53443  0.72139  Biso   1.000  H
  H298     1.0000 0.92092  0.53462  0.76360  Biso   1.000  H
  C272     1.0000 0.93032  0.61642  0.72619  Biso   1.000  C
  H299     1.0000 0.16669  0.16030  0.40878  Biso   1.000  H
  H300     1.0000 0.16979  0.21969  0.37569  Biso   1.000  H
  H301     1.0000 0.12329  0.18490  0.38451  Biso   1.000  H
  H302     1.0000 0.95630  0.62881  0.74299  Biso   1.000  H
  H303     1.0000 0.90481  0.64191  0.73560  Biso   1.000  H
  H304     1.0000 0.93601  0.62488  0.69578  Biso   1.000  H
  C273     1.0000 0.60501  0.30990  0.72829  Biso   1.000  C
  C274     1.0000 0.64461  0.27570  0.74939  Biso   1.000  C
  H305     1.0000 0.61371  0.35401  0.71868  Biso   1.000  H
  H306     1.0000 0.59531  0.28471  0.70290  Biso   1.000  H
  C275     1.0000 0.56630  0.31508  0.76108  Biso   1.000  C
  C276     1.0000 0.66220  0.30871  0.78940  Biso   1.000  C
  H307     1.0000 0.66880  0.27301  0.72819  Biso   1.000  H
  H308     1.0000 0.63591  0.23060  0.75680  Biso   1.000  H
  H309     1.0000 0.53971  0.33051  0.74638  Biso   1.000  H
  H310     1.0000 0.56060  0.27212  0.77359  Biso   1.000  H
  H311     1.0000 0.57432  0.34590  0.78369  Biso   1.000  H
  C277     1.0000 0.67760  0.38040  0.78470  Biso   1.000  C
  H312     1.0000 0.63891  0.30721  0.81158  Biso   1.000  H
  H313     1.0000 0.68740  0.28272  0.80018  Biso   1.000  H
  C278     1.0000 0.70273  0.40489  0.82475  Biso   1.000  C
  H314     1.0000 0.65151  0.40862  0.77980  Biso   1.000  H
  H315     1.0000 0.69711  0.38408  0.75938  Biso   1.000  H
  C279     1.0000 0.71806  0.47762  0.82217  Biso   1.000  C
  H316     1.0000 0.68339  0.39961  0.85010  Biso   1.000  H
  H317     1.0000 0.72902  0.37691  0.82909  Biso   1.000  H
  C280     1.0000 0.67965  0.52840  0.81795  Biso   1.000  C
  H318     1.0000 0.73582  0.47772  0.79558  Biso   1.000  H
  C281     1.0000 0.74822  0.49599  0.86068  Biso   1.000  C
  C282     1.0000 0.63689  0.51740  0.83530  Biso   1.000  C
  C283     1.0000 0.68777  0.58779  0.79630  Biso   1.000  C
  C284     1.0000 0.79024  0.52631  0.85457  Biso   1.000  C
  C285     1.0000 0.73511  0.48121  0.90334  Biso   1.000  C
  C286     1.0000 0.60191  0.56390  0.83108  Biso   1.000  C
  H319     1.0000 0.63130  0.47792  0.85019  Biso   1.000  H
  C287     1.0000 0.65404  0.63658  0.79195  Biso   1.000  C
  O33      1.0000 0.72895  0.59914  0.77738  Biso   1.000  O
  O34      1.0000 0.80571  0.53846  0.81276  Biso   1.000  O
  C288     1.0000 0.81848  0.54060  0.89024  Biso   1.000  C
  C289     1.0000 0.76234  0.49301  0.93954  Biso   1.000  C
  H320     1.0000 0.70681  0.46249  0.90778  Biso   1.000  H
  C290     1.0000 0.55491  0.55220  0.84944  Biso   1.000  C
  C291     1.0000 0.61169  0.62329  0.80910  Biso   1.000  C
  C292     1.0000 0.66462  0.69791  0.77003  Biso   1.000  C
  C293     1.0000 0.75944  0.63852  0.80325  Biso   1.000  C
  C294     1.0000 0.80551  0.60711  0.79979  Biso   1.000  C
  C295     1.0000 0.80392  0.52412  0.93251  Biso   1.000  C
  C296     1.0000 0.86154  0.57012  0.88270  Biso   1.000  C
  C297     1.0000 0.74775  0.47040  0.98478  Biso   1.000  C
  C298     1.0000 0.54103  0.47792  0.84765  Biso   1.000  C
  C299     1.0000 0.55063  0.58132  0.89527  Biso   1.000  C
  H321     1.0000 0.53381  0.57669  0.83079  Biso   1.000  H
  O35      1.0000 0.57738  0.66979  0.80322  Biso   1.000  O
  C300     1.0000 0.67797  0.74750  0.75223  Biso   1.000  C
  H322     1.0000 0.76032  0.68392  0.79247  Biso   1.000  H
  H323     1.0000 0.74971  0.63932  0.83350  Biso   1.000  H
  H324     1.0000 0.82640  0.63160  0.81799  Biso   1.000  H
  H325     1.0000 0.81592  0.61039  0.76980  Biso   1.000  H
  O36      1.0000 0.83270  0.53532  0.96714  Biso   1.000  O
  C301     1.0000 0.89696  0.59601  0.87518  Biso   1.000  C
  C302     1.0000 0.71234  0.51790  0.00297  Biso   1.000  C
  C303     1.0000 0.73252  0.39762  0.98573  Biso   1.000  C
  H326     1.0000 0.77370  0.47020  0.00399  Biso   1.000  H
  C304     1.0000 0.49217  0.46562  0.86277  Biso   1.000  C
  H327     1.0000 0.56131  0.45238  0.86597  Biso   1.000  H
  H328     1.0000 0.54439  0.46199  0.81789  Biso   1.000  H
  C305     1.0000 0.52751  0.64171  0.90187  Biso   1.000  C
  C306     1.0000 0.56879  0.54951  0.93153  Biso   1.000  C
  C307     1.0000 0.57540  0.71992  0.83618  Biso   1.000  C
  I21      1.0000 0.70206  0.82929  0.71966  Biso   1.000  I
  C308     1.0000 0.83482  0.60382  0.98125  Biso   1.000  C
  I22      1.0000 0.95239  0.64883  0.86019  Biso   1.000  I
  I23      1.0000 0.96580  0.61512  0.87760  Biso   1.000  I
  C309     1.0000 0.66597  0.50620  0.99948  Biso   1.000  C
  C310     1.0000 0.72595  0.57619  0.02440  Biso   1.000  C
  H329     1.0000 0.70930  0.39150  0.96377  Biso   1.000  H
  C311     1.0000 0.77016  0.34649  0.97746  Biso   1.000  C
  H330     1.0000 0.71911  0.38851  0.01401  Biso   1.000  H
  C312     1.0000 0.45631  0.50600  0.83889  Biso   1.000  C
  H331     1.0000 0.49021  0.47548  0.89377  Biso   1.000  H
  H332     1.0000 0.48539  0.41868  0.85908  Biso   1.000  H
  O37      1.0000 0.50625  0.67183  0.86715  Biso   1.000  O
  C313     1.0000 0.52273  0.66859  0.94411  Biso   1.000  C
  H333     1.0000 0.58490  0.51038  0.92729  Biso   1.000  H
  C314     1.0000 0.56390  0.57360  0.97426  Biso   1.000  C
  C315     1.0000 0.52721  0.73092  0.84967  Biso   1.000  C
  H334     1.0000 0.59312  0.70628  0.86130  Biso   1.000  H
  H335     1.0000 0.58800  0.76119  0.82507  Biso   1.000  H
  C316     1.0000 0.78937  0.63001  0.99471  Biso   1.000  C
  H336     1.0000 0.84651  0.63101  0.95760  Biso   1.000  H
  H337     1.0000 0.85541  0.60741  0.00568  Biso   1.000  H
  C317     1.0000 0.63339  0.54861  0.01735  Biso   1.000  C
  H338     1.0000 0.65640  0.46831  0.98468  Biso   1.000  H
  C318     1.0000 0.69505  0.62050  0.04276  Biso   1.000  C
  O38      1.0000 0.77147  0.58924  0.02891  Biso   1.000  O
  H339     1.0000 0.79580  0.35869  0.99539  Biso   1.000  H
  H340     1.0000 0.75961  0.30348  0.98759  Biso   1.000  H
  C319     1.0000 0.78691  0.33838  0.92957  Biso   1.000  C
  C320     1.0000 0.45561  0.49818  0.79029  Biso   1.000  C
  H341     1.0000 0.46079  0.55270  0.84569  Biso   1.000  H
  H342     1.0000 0.42700  0.49350  0.85019  Biso   1.000  H
  C321     1.0000 0.54025  0.63320  0.97994  Biso   1.000  C
  C322     1.0000 0.49985  0.73082  0.94996  Biso   1.000  C
  C323     1.0000 0.58301  0.53612  0.01336  Biso   1.000  C
  H343     1.0000 0.51009  0.74600  0.82458  Biso   1.000  H
  H344     1.0000 0.52620  0.76572  0.87159  Biso   1.000  H
  H345     1.0000 0.76911  0.62961  0.96988  Biso   1.000  H
  H346     1.0000 0.79220  0.67551  0.00490  Biso   1.000  H
  C324     1.0000 0.64875  0.60552  0.03920  Biso   1.000  C
  C325     1.0000 0.70957  0.68079  0.06370  Biso   1.000  C
  H347     1.0000 0.80261  0.37870  0.92098  Biso   1.000  H
  H348     1.0000 0.76099  0.33330  0.91059  Biso   1.000  H
  C326     1.0000 0.81841  0.27899  0.92278  Biso   1.000  C
  C327     1.0000 0.42100  0.54428  0.76739  Biso   1.000  C
  H349     1.0000 0.48539  0.50769  0.77888  Biso   1.000  H
  H350     1.0000 0.44860  0.45228  0.78329  Biso   1.000  H
  O39      1.0000 0.53146  0.65545  0.02159  Biso   1.000  O
  C328     1.0000 0.48266  0.78379  0.95348  Biso   1.000  C
  H351     1.0000 0.56802  0.55110  0.03979  Biso   1.000  H
  C329     1.0000 0.57122  0.46109  0.01179  Biso   1.000  C
  O40      1.0000 0.61843  0.64709  0.05922  Biso   1.000  O
  C330     1.0000 0.72120  0.73132  0.08006  Biso   1.000  C
  H352     1.0000 0.84412  0.28411  0.94199  Biso   1.000  H
  H353     1.0000 0.82940  0.28008  0.89299  Biso   1.000  H
  C331     1.0000 0.79799  0.21272  0.93088  Biso   1.000  C
  H354     1.0000 0.39111  0.53443  0.77859  Biso   1.000  H
  H355     1.0000 0.42090  0.53462  0.73639  Biso   1.000  H
  C332     1.0000 0.43030  0.61642  0.77379  Biso   1.000  C
  C333     1.0000 0.55592  0.71310  0.03639  Biso   1.000  C
  I24      1.0000 0.45803  0.87883  0.95646  Biso   1.000  I
  H356     1.0000 0.58510  0.44158  0.98608  Biso   1.000  H
  H357     1.0000 0.53880  0.45632  0.00879  Biso   1.000  H
  C334     1.0000 0.58655  0.42231  0.05207  Biso   1.000  C
  C335     1.0000 0.60599  0.70379  0.03332  Biso   1.000  C
  I25      1.0000 0.73933  0.82158  0.10548  Biso   1.000  I
  H358     1.0000 0.79162  0.20869  0.96188  Biso   1.000  H
  H359     1.0000 0.76942  0.21048  0.91549  Biso   1.000  H
  C336     1.0000 0.82751  0.15209  0.91657  Biso   1.000  C
  H360     1.0000 0.45631  0.62881  0.75700  Biso   1.000  H
  H361     1.0000 0.40479  0.64191  0.76438  Biso   1.000  H
  H362     1.0000 0.43599  0.62488  0.80420  Biso   1.000  H
  H363     1.0000 0.54719  0.75128  0.01901  Biso   1.000  H
  H364     1.0000 0.54790  0.72221  0.06661  Biso   1.000  H
  H365     1.0000 0.56131  0.41719  0.07190  Biso   1.000  H
  H366     1.0000 0.60970  0.44750  0.06710  Biso   1.000  H
  C337     1.0000 0.60501  0.35361  0.04051  Biso   1.000  C
  H367     1.0000 0.62132  0.74332  0.04400  Biso   1.000  H
  H368     1.0000 0.61472  0.69682  0.00310  Biso   1.000  H
  H369     1.0000 0.83142  0.15279  0.88538  Biso   1.000  H
  H370     1.0000 0.85642  0.15468  0.93049  Biso   1.000  H
  H371     1.0000 0.81282  0.11142  0.92490  Biso   1.000  H
  H372     1.0000 0.58240  0.33001  0.02358  Biso   1.000  H
  H373     1.0000 0.63130  0.35929  0.02198  Biso   1.000  H
  C338     1.0000 0.61822  0.31040  0.07964  Biso   1.000  C
  H374     1.0000 0.59140  0.29890  0.09600  Biso   1.000  H
  H375     1.0000 0.63790  0.33579  0.09868  Biso   1.000  H
  C339     1.0000 0.64201  0.24732  0.06569  Biso   1.000  C
  H376     1.0000 0.62372  0.22522  0.04380  Biso   1.000  H
  H377     1.0000 0.67042  0.25922  0.05210  Biso   1.000  H
  C340     1.0000 0.65131  0.19849  0.10251  Biso   1.000  C
  H378     1.0000 0.66671  0.16030  0.09120  Biso   1.000  H
  H379     1.0000 0.66981  0.21969  0.12429  Biso   1.000  H
  H380     1.0000 0.62331  0.18490  0.11551  Biso   1.000  H
  C341     1.0000 0.39502  0.69010  0.27168  Biso   1.000  C
  C342     1.0000 0.35539  0.72430  0.25058  Biso   1.000  C
  H381     1.0000 0.38629  0.64599  0.28129  Biso   1.000  H
  H382     1.0000 0.40469  0.71529  0.29710  Biso   1.000  H
  C343     1.0000 0.43370  0.68492  0.23889  Biso   1.000  C
  C344     1.0000 0.33780  0.69129  0.21060  Biso   1.000  C
  H383     1.0000 0.33120  0.72699  0.27178  Biso   1.000  H
  H384     1.0000 0.36412  0.76940  0.24320  Biso   1.000  H
  H385     1.0000 0.46029  0.66949  0.25359  Biso   1.000  H
  H386     1.0000 0.43940  0.72788  0.22641  Biso   1.000  H
  H387     1.0000 0.42572  0.65410  0.21628  Biso   1.000  H
  C345     1.0000 0.32240  0.61960  0.21530  Biso   1.000  C
  H388     1.0000 0.36109  0.69279  0.18838  Biso   1.000  H
  H389     1.0000 0.31260  0.71728  0.19978  Biso   1.000  H
  C346     1.0000 0.29730  0.59511  0.17525  Biso   1.000  C
  H390     1.0000 0.34852  0.59138  0.22020  Biso   1.000  H
  H391     1.0000 0.30289  0.61592  0.24058  Biso   1.000  H
  C347     1.0000 0.28194  0.52238  0.17780  Biso   1.000  C
  H392     1.0000 0.31661  0.60039  0.14990  Biso   1.000  H
  H393     1.0000 0.27102  0.62309  0.17091  Biso   1.000  H
  C348     1.0000 0.32035  0.47160  0.18201  Biso   1.000  C
  H394     1.0000 0.26421  0.52228  0.20439  Biso   1.000  H
  C349     1.0000 0.25178  0.50401  0.13929  Biso   1.000  C
  C350     1.0000 0.31223  0.41221  0.20370  Biso   1.000  C
  C351     1.0000 0.36311  0.48260  0.16470  Biso   1.000  C
  C352     1.0000 0.20976  0.47369  0.14543  Biso   1.000  C
  C353     1.0000 0.26489  0.51879  0.09663  Biso   1.000  C
  C354     1.0000 0.34596  0.36342  0.20802  Biso   1.000  C
  O41      1.0000 0.27105  0.40086  0.22259  Biso   1.000  O
  C355     1.0000 0.39812  0.43610  0.16888  Biso   1.000  C
  H395     1.0000 0.36870  0.52208  0.14981  Biso   1.000  H
  O42      1.0000 0.19433  0.46154  0.18724  Biso   1.000  O
  C356     1.0000 0.18155  0.45940  0.10976  Biso   1.000  C
  C357     1.0000 0.23766  0.50699  0.06046  Biso   1.000  C
  H396     1.0000 0.29319  0.53751  0.09218  Biso   1.000  H
  C358     1.0000 0.33538  0.30209  0.22997  Biso   1.000  C
  C359     1.0000 0.38835  0.37671  0.19087  Biso   1.000  C
  C360     1.0000 0.24056  0.36148  0.19671  Biso   1.000  C
  C361     1.0000 0.44509  0.44780  0.15056  Biso   1.000  C
  C362     1.0000 0.19449  0.39289  0.20021  Biso   1.000  C
  C363     1.0000 0.19608  0.47588  0.06746  Biso   1.000  C
  C364     1.0000 0.13846  0.42988  0.11730  Biso   1.000  C
  C365     1.0000 0.25225  0.52960  0.01522  Biso   1.000  C
  C366     1.0000 0.32203  0.25250  0.24777  Biso   1.000  C
  O43      1.0000 0.42262  0.33021  0.19675  Biso   1.000  O
  H397     1.0000 0.23971  0.31612  0.20749  Biso   1.000  H
  H398     1.0000 0.25029  0.36068  0.16650  Biso   1.000  H
  C367     1.0000 0.44941  0.41868  0.10473  Biso   1.000  C
  H399     1.0000 0.46622  0.42331  0.16921  Biso   1.000  H
  C368     1.0000 0.45897  0.52208  0.15235  Biso   1.000  C
  H400     1.0000 0.17360  0.36840  0.18198  Biso   1.000  H
  H401     1.0000 0.18412  0.38961  0.23020  Biso   1.000  H
  O44      1.0000 0.16730  0.46468  0.03286  Biso   1.000  O
  C369     1.0000 0.10304  0.40399  0.12478  Biso   1.000  C
  C370     1.0000 0.26748  0.60238  0.01427  Biso   1.000  C
  H402     1.0000 0.22630  0.52980  0.99598  Biso   1.000  H
  C371     1.0000 0.28770  0.48210  0.99703  Biso   1.000  C
  I26      1.0000 0.29794  0.17071  0.28031  Biso   1.000  I
  C372     1.0000 0.42460  0.28008  0.16379  Biso   1.000  C
  C373     1.0000 0.47249  0.35829  0.09810  Biso   1.000  C
  C374     1.0000 0.43124  0.45049  0.06847  Biso   1.000  C
  H403     1.0000 0.43869  0.54762  0.13400  Biso   1.000  H
  H404     1.0000 0.45561  0.53801  0.18211  Biso   1.000  H
  C375     1.0000 0.50787  0.53443  0.13720  Biso   1.000  C
  C376     1.0000 0.16521  0.39618  0.01875  Biso   1.000  C
  I27      1.0000 0.04761  0.35117  0.13978  Biso   1.000  I
  I28      1.0000 0.03424  0.38488  0.12240  Biso   1.000  I
  H405     1.0000 0.29070  0.60850  0.03619  Biso   1.000  H
  C377     1.0000 0.22987  0.65351  0.02251  Biso   1.000  C
  H406     1.0000 0.28089  0.61149  0.98599  Biso   1.000  H
  C378     1.0000 0.33403  0.49380  0.00049  Biso   1.000  C
  C379     1.0000 0.27408  0.42381  0.97560  Biso   1.000  C
  C380     1.0000 0.47279  0.26908  0.15030  Biso   1.000  C
  H407     1.0000 0.40691  0.29372  0.13870  Biso   1.000  H
  H408     1.0000 0.41200  0.23881  0.17489  Biso   1.000  H
  O45      1.0000 0.49378  0.32817  0.13285  Biso   1.000  O
  C381     1.0000 0.47731  0.33141  0.05589  Biso   1.000  C
  H409     1.0000 0.41510  0.48962  0.07271  Biso   1.000  H
  C382     1.0000 0.43610  0.42640  0.02574  Biso   1.000  C
  H410     1.0000 0.50979  0.52452  0.10620  Biso   1.000  H
  H411     1.0000 0.51461  0.58132  0.14089  Biso   1.000  H
  C383     1.0000 0.54372  0.49400  0.16111  Biso   1.000  C
  H412     1.0000 0.15349  0.36899  0.04240  Biso   1.000  H
  C384     1.0000 0.21067  0.36999  0.00526  Biso   1.000  C
  H413     1.0000 0.14459  0.39259  0.99428  Biso   1.000  H
  H414     1.0000 0.20420  0.64131  0.00461  Biso   1.000  H
  H415     1.0000 0.24039  0.69652  0.01241  Biso   1.000  H
  C385     1.0000 0.21309  0.66162  0.07039  Biso   1.000  C
  C386     1.0000 0.36661  0.45139  0.98265  Biso   1.000  C
  H416     1.0000 0.34360  0.53169  0.01529  Biso   1.000  H
  C387     1.0000 0.30495  0.37950  0.95724  Biso   1.000  C
  O46      1.0000 0.22853  0.41076  0.97106  Biso   1.000  O
  H417     1.0000 0.48991  0.25400  0.17538  Biso   1.000  H
  H418     1.0000 0.47380  0.23428  0.12841  Biso   1.000  H
  C388     1.0000 0.45975  0.36680  0.02002  Biso   1.000  C
  C389     1.0000 0.50019  0.26918  0.05001  Biso   1.000  C
  C390     1.0000 0.41699  0.46388  0.98664  Biso   1.000  C
  H419     1.0000 0.53921  0.44730  0.15431  Biso   1.000  H
  H420     1.0000 0.57300  0.50650  0.14981  Biso   1.000  H
  C391     1.0000 0.54439  0.50182  0.20968  Biso   1.000  C
  H421     1.0000 0.23089  0.37039  0.03009  Biso   1.000  H
  H422     1.0000 0.20780  0.32449  0.99507  Biso   1.000  H
  H423     1.0000 0.19739  0.62130  0.07899  Biso   1.000  H
  H424     1.0000 0.23901  0.66670  0.08941  Biso   1.000  H
  C392     1.0000 0.18159  0.72101  0.07719  Biso   1.000  C
  C393     1.0000 0.35125  0.39448  0.96077  Biso   1.000  C
  C394     1.0000 0.29043  0.31921  0.93630  Biso   1.000  C
  O47      1.0000 0.46854  0.34455  0.97841  Biso   1.000  O
  C395     1.0000 0.51737  0.21621  0.04648  Biso   1.000  C
  H425     1.0000 0.43202  0.44890  0.96018  Biso   1.000  H
  C396     1.0000 0.42882  0.53891  0.98821  Biso   1.000  C
  H426     1.0000 0.51461  0.49231  0.22108  Biso   1.000  H
  H427     1.0000 0.55140  0.54772  0.21671  Biso   1.000  H
  C397     1.0000 0.57900  0.45572  0.23258  Biso   1.000  C
  H428     1.0000 0.15591  0.71589  0.05801  Biso   1.000  H
  H429     1.0000 0.17060  0.71992  0.10701  Biso   1.000  H
  C398     1.0000 0.20201  0.78733  0.06909  Biso   1.000  C
  O48      1.0000 0.38161  0.35291  0.94074  Biso   1.000  O
  C399     1.0000 0.27880  0.26868  0.91994  Biso   1.000  C
  C400     1.0000 0.44408  0.28690  0.96358  Biso   1.000  C
  I29      1.0000 0.54197  0.12117  0.04351  Biso   1.000  I
  H430     1.0000 0.41490  0.55842  0.01392  Biso   1.000  H
  H431     1.0000 0.46120  0.54368  0.99118  Biso   1.000  H
  C401     1.0000 0.41345  0.57769  0.94793  Biso   1.000  C
  H432     1.0000 0.60892  0.46562  0.22141  Biso   1.000  H
  H433     1.0000 0.57910  0.46538  0.26358  Biso   1.000  H
  C402     1.0000 0.56970  0.38358  0.22621  Biso   1.000  C
  H434     1.0000 0.20841  0.79131  0.03809  Biso   1.000  H
  H435     1.0000 0.23062  0.78952  0.08451  Biso   1.000  H
  C403     1.0000 0.17249  0.84791  0.08340  Biso   1.000  C
  C404     1.0000 0.39401  0.29621  0.96665  Biso   1.000  C
  I30      1.0000 0.26071  0.17842  0.89449  Biso   1.000  I
  H436     1.0000 0.45281  0.24872  0.98099  Biso   1.000  H
  H437     1.0000 0.45210  0.27779  0.93339  Biso   1.000  H
  H438     1.0000 0.43869  0.58281  0.92807  Biso   1.000  H
  H439     1.0000 0.39030  0.55250  0.93287  Biso   1.000  H
  C405     1.0000 0.39502  0.64639  0.95946  Biso   1.000  C
  H440     1.0000 0.54372  0.37119  0.24300  Biso   1.000  H
  H441     1.0000 0.59521  0.35809  0.23559  Biso   1.000  H
  H442     1.0000 0.56401  0.37512  0.19580  Biso   1.000  H
  H443     1.0000 0.16862  0.84721  0.11459  Biso   1.000  H
  H444     1.0000 0.14361  0.84532  0.06951  Biso   1.000  H
  H445     1.0000 0.18722  0.88858  0.07510  Biso   1.000  H
  H446     1.0000 0.37871  0.25668  0.95600  Biso   1.000  H
  H447     1.0000 0.38532  0.30318  0.99690  Biso   1.000  H
  H448     1.0000 0.41760  0.66999  0.97638  Biso   1.000  H
  H449     1.0000 0.36870  0.64071  0.97798  Biso   1.000  H
  C406     1.0000 0.38178  0.68960  0.92036  Biso   1.000  C
  H450     1.0000 0.40860  0.70110  0.90400  Biso   1.000  H
  H451     1.0000 0.36210  0.66421  0.90128  Biso   1.000  H
  C407     1.0000 0.35799  0.75268  0.93428  Biso   1.000  C
  H452     1.0000 0.37632  0.77478  0.95620  Biso   1.000  H
  H453     1.0000 0.32962  0.74078  0.94790  Biso   1.000  H
  C408     1.0000 0.34869  0.80151  0.89749  Biso   1.000  C
  H454     1.0000 0.33329  0.83970  0.90880  Biso   1.000  H
  H455     1.0000 0.33019  0.78031  0.87567  Biso   1.000  H
  H456     1.0000 0.37669  0.81510  0.88449  Biso   1.000  H
  I31      1.0000 0.79796  0.32932  0.71966  Biso   1.000  I
  C409     1.0000 0.82205  0.24752  0.75223  Biso   1.000  C
  C410     1.0000 0.83539  0.19789  0.77003  Biso   1.000  C
  C411     1.0000 0.84597  0.13661  0.79195  Biso   1.000  C
  C412     1.0000 0.81221  0.08782  0.79630  Biso   1.000  C
  C413     1.0000 0.88833  0.12331  0.80910  Biso   1.000  C
  C414     1.0000 0.82037  0.02838  0.81795  Biso   1.000  C
  O49      1.0000 0.77107  0.09912  0.77738  Biso   1.000  O
  C415     1.0000 0.89810  0.06392  0.83108  Biso   1.000  C
  O50      1.0000 0.92263  0.16976  0.80322  Biso   1.000  O
  C416     1.0000 0.78195  0.97760  0.82217  Biso   1.000  C
  C417     1.0000 0.86313  0.01742  0.83530  Biso   1.000  C
  C418     1.0000 0.74057  0.13850  0.80325  Biso   1.000  C
  C419     1.0000 0.94511  0.05222  0.84944  Biso   1.000  C
  C420     1.0000 0.92462  0.21989  0.83618  Biso   1.000  C
  C421     1.0000 0.75179  0.99602  0.86068  Biso   1.000  C
  H457     1.0000 0.76419  0.97770  0.79558  Biso   1.000  H
  C422     1.0000 0.79728  0.90491  0.82475  Biso   1.000  C
  H458     1.0000 0.86872  0.97790  0.85019  Biso   1.000  H
  C423     1.0000 0.69451  0.10708  0.79979  Biso   1.000  C
  H459     1.0000 0.73970  0.18390  0.79247  Biso   1.000  H
  H460     1.0000 0.75031  0.13929  0.83350  Biso   1.000  H
  C424     1.0000 0.94939  0.08130  0.89527  Biso   1.000  C
  H461     1.0000 0.96620  0.07672  0.83079  Biso   1.000  H
  C425     1.0000 0.95899  0.97790  0.84765  Biso   1.000  C
  C426     1.0000 0.97281  0.23090  0.84967  Biso   1.000  C
  H462     1.0000 0.90690  0.20630  0.86130  Biso   1.000  H
  H463     1.0000 0.91202  0.26121  0.82507  Biso   1.000  H
  C427     1.0000 0.70978  0.02629  0.85457  Biso   1.000  C
  C428     1.0000 0.76490  0.98118  0.90334  Biso   1.000  C
  H464     1.0000 0.81659  0.89959  0.85010  Biso   1.000  H
  H465     1.0000 0.77100  0.87689  0.82909  Biso   1.000  H
  C429     1.0000 0.82242  0.88042  0.78470  Biso   1.000  C
  O51      1.0000 0.69431  0.03848  0.81276  Biso   1.000  O
  H466     1.0000 0.67362  0.13158  0.81799  Biso   1.000  H
  H467     1.0000 0.68410  0.11042  0.76980  Biso   1.000  H
  C430     1.0000 0.97250  0.14168  0.90187  Biso   1.000  C
  C431     1.0000 0.93123  0.04948  0.93153  Biso   1.000  C
  H468     1.0000 0.93871  0.95241  0.86597  Biso   1.000  H
  H469     1.0000 0.95562  0.96202  0.81789  Biso   1.000  H
  C432     1.0000 0.00785  0.96560  0.86277  Biso   1.000  C
  O52      1.0000 0.99377  0.17180  0.86715  Biso   1.000  O
  H470     1.0000 0.98992  0.24598  0.82458  Biso   1.000  H
  H471     1.0000 0.97382  0.26569  0.87159  Biso   1.000  H
  C433     1.0000 0.68154  0.04062  0.89024  Biso   1.000  C
  C434     1.0000 0.73768  0.99298  0.93954  Biso   1.000  C
  H472     1.0000 0.79321  0.96251  0.90778  Biso   1.000  H
  H473     1.0000 0.84850  0.90860  0.77980  Biso   1.000  H
  H474     1.0000 0.80291  0.88410  0.75938  Biso   1.000  H
  C435     1.0000 0.83782  0.80868  0.78940  Biso   1.000  C
  C436     1.0000 0.97729  0.16862  0.94411  Biso   1.000  C
  C437     1.0000 0.93611  0.07358  0.97426  Biso   1.000  C
  H475     1.0000 0.91512  0.01040  0.92729  Biso   1.000  H
  H476     1.0000 0.00981  0.97551  0.89377  Biso   1.000  H
  H477     1.0000 0.01459  0.91870  0.85908  Biso   1.000  H
  C438     1.0000 0.04370  0.00602  0.83889  Biso   1.000  C
  C439     1.0000 0.63847  0.07010  0.88270  Biso   1.000  C
  C440     1.0000 0.69606  0.02410  0.93251  Biso   1.000  C
  C441     1.0000 0.75227  0.97038  0.98478  Biso   1.000  C
  H478     1.0000 0.86110  0.80719  0.81158  Biso   1.000  H
  H479     1.0000 0.81262  0.78270  0.80018  Biso   1.000  H
  C442     1.0000 0.85541  0.77573  0.74939  Biso   1.000  C
  C443     1.0000 0.95977  0.13322  0.97994  Biso   1.000  C
  C444     1.0000 0.00017  0.23080  0.94996  Biso   1.000  C
  C445     1.0000 0.91701  0.03609  0.01336  Biso   1.000  C
  H480     1.0000 0.07299  0.99348  0.85019  Biso   1.000  H
  C446     1.0000 0.04441  0.99821  0.79029  Biso   1.000  C
  H481     1.0000 0.03919  0.05272  0.84569  Biso   1.000  H
  C447     1.0000 0.60306  0.09598  0.87518  Biso   1.000  C
  O53      1.0000 0.66732  0.03535  0.96714  Biso   1.000  O
  C448     1.0000 0.76750  0.89760  0.98573  Biso   1.000  C
  H482     1.0000 0.72632  0.97018  0.00399  Biso   1.000  H
  C449     1.0000 0.78768  0.01792  0.00297  Biso   1.000  C
  H483     1.0000 0.83122  0.77299  0.72819  Biso   1.000  H
  H484     1.0000 0.86410  0.73062  0.75680  Biso   1.000  H
  C450     1.0000 0.89500  0.80988  0.72829  Biso   1.000  C
  O54      1.0000 0.96856  0.15542  0.02159  Biso   1.000  O
  C451     1.0000 0.01735  0.28382  0.95348  Biso   1.000  C
  C452     1.0000 0.86663  0.04859  0.01735  Biso   1.000  C
  C453     1.0000 0.92880  0.96112  0.01179  Biso   1.000  C
  H485     1.0000 0.93200  0.05108  0.03979  Biso   1.000  H
  H486     1.0000 0.05139  0.95231  0.78329  Biso   1.000  H
  H487     1.0000 0.01459  0.00772  0.77888  Biso   1.000  H
  C454     1.0000 0.07902  0.04431  0.76739  Biso   1.000  C
  I32      1.0000 0.54763  0.14880  0.86019  Biso   1.000  I
  I33      1.0000 0.53422  0.11510  0.87760  Biso   1.000  I
  C455     1.0000 0.66520  0.10380  0.98125  Biso   1.000  C
  H488     1.0000 0.79071  0.89152  0.96377  Biso   1.000  H
  C456     1.0000 0.72986  0.84652  0.97746  Biso   1.000  C
  H489     1.0000 0.78091  0.88849  0.01401  Biso   1.000  H
  C457     1.0000 0.83405  0.00622  0.99948  Biso   1.000  C
  C458     1.0000 0.77407  0.07622  0.02440  Biso   1.000  C
  H490     1.0000 0.88631  0.85399  0.71868  Biso   1.000  H
  H491     1.0000 0.90471  0.78469  0.70290  Biso   1.000  H
  C459     1.0000 0.93372  0.81510  0.76108  Biso   1.000  C
  C460     1.0000 0.94410  0.21312  0.03639  Biso   1.000  C
  I34      1.0000 0.04199  0.37885  0.95646  Biso   1.000  I
  C461     1.0000 0.85127  0.10549  0.03920  Biso   1.000  C
  H492     1.0000 0.91492  0.94160  0.98608  Biso   1.000  H
  H493     1.0000 0.96122  0.95629  0.00879  Biso   1.000  H
  C462     1.0000 0.91347  0.92229  0.05207  Biso   1.000  C
  H494     1.0000 0.10891  0.03440  0.77859  Biso   1.000  H
  H495     1.0000 0.07908  0.03460  0.73639  Biso   1.000  H
  C463     1.0000 0.06972  0.11639  0.77379  Biso   1.000  C
  H496     1.0000 0.65350  0.13098  0.95760  Biso   1.000  H
  C464     1.0000 0.71065  0.12998  0.99471  Biso   1.000  C
  H497     1.0000 0.64461  0.10738  0.00568  Biso   1.000  H
  H498     1.0000 0.70422  0.85871  0.99539  Biso   1.000  H
  H499     1.0000 0.74041  0.80350  0.98759  Biso   1.000  H
  C465     1.0000 0.71311  0.83840  0.92957  Biso   1.000  C
  H500     1.0000 0.84362  0.96829  0.98468  Biso   1.000  H
  O55      1.0000 0.72854  0.08921  0.02891  Biso   1.000  O
  C466     1.0000 0.80497  0.12048  0.04276  Biso   1.000  C
  H501     1.0000 0.96031  0.83049  0.74638  Biso   1.000  H
  H502     1.0000 0.93941  0.77209  0.77359  Biso   1.000  H
  H503     1.0000 0.92570  0.84592  0.78369  Biso   1.000  H
  C467     1.0000 0.89403  0.20381  0.03332  Biso   1.000  C
  H504     1.0000 0.95283  0.25131  0.01901  Biso   1.000  H
  H505     1.0000 0.95212  0.22218  0.06661  Biso   1.000  H
  O56      1.0000 0.88159  0.14706  0.05922  Biso   1.000  O
  H506     1.0000 0.93871  0.91721  0.07190  Biso   1.000  H
  H507     1.0000 0.89032  0.94748  0.06710  Biso   1.000  H
  C468     1.0000 0.89500  0.85359  0.04051  Biso   1.000  C
  H508     1.0000 0.04370  0.12879  0.75700  Biso   1.000  H
  H509     1.0000 0.09519  0.14188  0.76438  Biso   1.000  H
  H510     1.0000 0.06399  0.12491  0.80420  Biso   1.000  H
  H511     1.0000 0.73090  0.12959  0.96988  Biso   1.000  H
  H512     1.0000 0.70782  0.17549  0.00490  Biso   1.000  H
  H513     1.0000 0.69741  0.87868  0.92098  Biso   1.000  H
  H514     1.0000 0.73902  0.83333  0.91059  Biso   1.000  H
  C469     1.0000 0.68161  0.77901  0.92278  Biso   1.000  C
  C470     1.0000 0.79044  0.18081  0.06370  Biso   1.000  C
  H515     1.0000 0.87869  0.24329  0.04400  Biso   1.000  H
  H516     1.0000 0.88530  0.19679  0.00310  Biso   1.000  H
  H517     1.0000 0.91761  0.82999  0.02358  Biso   1.000  H
  H518     1.0000 0.86872  0.85931  0.02198  Biso   1.000  H
  C471     1.0000 0.88179  0.81042  0.07964  Biso   1.000  C
  H519     1.0000 0.65590  0.78409  0.94199  Biso   1.000  H
  H520     1.0000 0.67062  0.78011  0.89299  Biso   1.000  H
  C472     1.0000 0.70199  0.71270  0.93088  Biso   1.000  C
  C473     1.0000 0.77882  0.23129  0.08006  Biso   1.000  C
  H521     1.0000 0.90862  0.79892  0.09600  Biso   1.000  H
  H522     1.0000 0.86212  0.83581  0.09868  Biso   1.000  H
  C474     1.0000 0.85800  0.74730  0.06569  Biso   1.000  C
  H523     1.0000 0.70839  0.70872  0.96188  Biso   1.000  H
  H524     1.0000 0.73060  0.71051  0.91549  Biso   1.000  H
  C475     1.0000 0.67251  0.65211  0.91657  Biso   1.000  C
  I35      1.0000 0.76069  0.32160  0.10548  Biso   1.000  I
  H525     1.0000 0.87630  0.72520  0.04380  Biso   1.000  H
  H526     1.0000 0.82960  0.75920  0.05210  Biso   1.000  H
  C476     1.0000 0.84870  0.69851  0.10251  Biso   1.000  C
  H527     1.0000 0.66860  0.65281  0.88538  Biso   1.000  H
  H528     1.0000 0.64360  0.65470  0.93049  Biso   1.000  H
  H529     1.0000 0.68720  0.61139  0.92490  Biso   1.000  H
  H530     1.0000 0.83331  0.66028  0.09120  Biso   1.000  H
  H531     1.0000 0.83021  0.71972  0.12429  Biso   1.000  H
  H532     1.0000 0.87671  0.68492  0.11551  Biso   1.000  H
  I36      1.0000 0.20208  0.67068  0.28031  Biso   1.000  I
  C477     1.0000 0.17798  0.75248  0.24777  Biso   1.000  C
  C478     1.0000 0.16464  0.80211  0.22997  Biso   1.000  C
  C479     1.0000 0.15403  0.86339  0.20802  Biso   1.000  C
  C480     1.0000 0.11167  0.87669  0.19087  Biso   1.000  C
  C481     1.0000 0.18779  0.91218  0.20370  Biso   1.000  C
  O57      1.0000 0.07740  0.83024  0.19675  Biso   1.000  O
  C482     1.0000 0.10190  0.93608  0.16888  Biso   1.000  C
  O58      1.0000 0.22893  0.90088  0.22259  Biso   1.000  O
  C483     1.0000 0.17967  0.97162  0.18201  Biso   1.000  C
  C484     1.0000 0.07538  0.78011  0.16379  Biso   1.000  C
  C485     1.0000 0.05492  0.94778  0.15056  Biso   1.000  C
  C486     1.0000 0.13687  0.98263  0.16470  Biso   1.000  C
  C487     1.0000 0.25946  0.86150  0.19671  Biso   1.000  C
  C488     1.0000 0.21805  0.02240  0.17780  Biso   1.000  C
  C489     1.0000 0.02719  0.76910  0.15030  Biso   1.000  C
  H533     1.0000 0.09310  0.79370  0.13870  Biso   1.000  H
  H534     1.0000 0.08801  0.73879  0.17489  Biso   1.000  H
  C490     1.0000 0.05061  0.91870  0.10473  Biso   1.000  C
  H535     1.0000 0.03380  0.92328  0.16921  Biso   1.000  H
  C491     1.0000 0.04104  0.02210  0.15235  Biso   1.000  C
  H536     1.0000 0.13131  0.02210  0.14981  Biso   1.000  H
  H537     1.0000 0.26030  0.81610  0.20749  Biso   1.000  H
  H538     1.0000 0.24969  0.86071  0.16650  Biso   1.000  H
  C492     1.0000 0.30549  0.89292  0.20021  Biso   1.000  C
  H539     1.0000 0.23581  0.02230  0.20439  Biso   1.000  H
  C493     1.0000 0.24821  0.00398  0.13929  Biso   1.000  C
  C494     1.0000 0.20272  0.09509  0.17525  Biso   1.000  C
  O59      1.0000 0.00623  0.82820  0.13285  Biso   1.000  O
  H540     1.0000 0.01011  0.75402  0.17538  Biso   1.000  H
  H541     1.0000 0.02622  0.73431  0.12841  Biso   1.000  H
  C495     1.0000 0.02753  0.85832  0.09810  Biso   1.000  C
  C496     1.0000 0.06877  0.95052  0.06847  Biso   1.000  C
  C497     1.0000 0.99215  0.03440  0.13720  Biso   1.000  C
  H542     1.0000 0.06129  0.04759  0.13400  Biso   1.000  H
  H543     1.0000 0.04441  0.03798  0.18211  Biso   1.000  H
  O60      1.0000 0.30569  0.96152  0.18724  Biso   1.000  O
  H544     1.0000 0.32641  0.86842  0.18198  Biso   1.000  H
  H545     1.0000 0.31590  0.88958  0.23020  Biso   1.000  H
  C498     1.0000 0.29026  0.97371  0.14543  Biso   1.000  C
  C499     1.0000 0.23510  0.01882  0.09663  Biso   1.000  C
  H546     1.0000 0.18341  0.10041  0.14990  Biso   1.000  H
  H547     1.0000 0.22900  0.12311  0.17091  Biso   1.000  H
  C500     1.0000 0.17761  0.11958  0.21530  Biso   1.000  C
  C501     1.0000 0.02271  0.83138  0.05589  Biso   1.000  C
  H548     1.0000 0.08491  0.98960  0.07271  Biso   1.000  H
  C502     1.0000 0.06392  0.92642  0.02574  Biso   1.000  C
  C503     1.0000 0.95630  0.99398  0.16111  Biso   1.000  C
  H549     1.0000 0.99019  0.02449  0.10620  Biso   1.000  H
  H550     1.0000 0.98541  0.08130  0.14089  Biso   1.000  H
  C504     1.0000 0.31846  0.95938  0.10976  Biso   1.000  C
  C505     1.0000 0.26232  0.00702  0.06046  Biso   1.000  C
  H551     1.0000 0.20679  0.03749  0.09218  Biso   1.000  H
  H552     1.0000 0.15150  0.09140  0.22020  Biso   1.000  H
  H553     1.0000 0.19709  0.11590  0.24058  Biso   1.000  H
  C506     1.0000 0.16221  0.19132  0.21060  Biso   1.000  C
  C507     1.0000 0.04027  0.86678  0.02002  Biso   1.000  C
  C508     1.0000 0.99983  0.76920  0.05001  Biso   1.000  C
  C509     1.0000 0.08299  0.96391  0.98664  Biso   1.000  C
  H554     1.0000 0.96081  0.94728  0.15431  Biso   1.000  H
  H555     1.0000 0.92701  0.00652  0.14981  Biso   1.000  H
  C510     1.0000 0.95562  0.00179  0.20968  Biso   1.000  C
  C511     1.0000 0.30394  0.97590  0.06746  Biso   1.000  C
  C512     1.0000 0.36153  0.92990  0.11730  Biso   1.000  C
  C513     1.0000 0.24773  0.02962  0.01522  Biso   1.000  C
  H556     1.0000 0.13890  0.19281  0.18838  Biso   1.000  H
  H557     1.0000 0.18742  0.21730  0.19978  Biso   1.000  H
  C514     1.0000 0.14459  0.22432  0.25058  Biso   1.000  C
  O61      1.0000 0.03144  0.84458  0.97841  Biso   1.000  O
  C515     1.0000 0.98265  0.71618  0.04648  Biso   1.000  C
  C516     1.0000 0.13337  0.95141  0.98265  Biso   1.000  C
  H558     1.0000 0.06800  0.94892  0.96018  Biso   1.000  H
  C517     1.0000 0.07120  0.03888  0.98821  Biso   1.000  C
  H559     1.0000 0.98541  0.99228  0.22108  Biso   1.000  H
  C518     1.0000 0.92102  0.95569  0.23258  Biso   1.000  C
  H560     1.0000 0.94861  0.04769  0.21671  Biso   1.000  H
  O62      1.0000 0.33268  0.96465  0.03286  Biso   1.000  O
  C519     1.0000 0.39697  0.90402  0.12478  Biso   1.000  C
  C520     1.0000 0.21232  0.98208  0.99703  Biso   1.000  C
  H561     1.0000 0.27371  0.02982  0.99598  Biso   1.000  H
  C521     1.0000 0.23250  0.10240  0.01427  Biso   1.000  C
  H562     1.0000 0.16882  0.22701  0.27178  Biso   1.000  H
  H563     1.0000 0.13590  0.26938  0.24320  Biso   1.000  H
  C522     1.0000 0.10500  0.19012  0.27168  Biso   1.000  C
  C523     1.0000 0.05594  0.78688  0.96358  Biso   1.000  C
  I37      1.0000 0.95805  0.62115  0.04351  Biso   1.000  I
  C524     1.0000 0.16599  0.99378  0.00049  Biso   1.000  C
  C525     1.0000 0.14877  0.89451  0.96077  Biso   1.000  C
  H564     1.0000 0.03878  0.04371  0.99118  Biso   1.000  H
  C526     1.0000 0.08653  0.07771  0.94793  Biso   1.000  C
  H565     1.0000 0.08512  0.05840  0.01392  Biso   1.000  H
  H566     1.0000 0.89109  0.96560  0.22141  Biso   1.000  H
  H567     1.0000 0.92092  0.96540  0.26358  Biso   1.000  H
  C527     1.0000 0.93032  0.88361  0.22621  Biso   1.000  C
  C528     1.0000 0.33480  0.89620  0.01875  Biso   1.000  C
  I38      1.0000 0.45240  0.85120  0.13978  Biso   1.000  I
  I39      1.0000 0.46578  0.88490  0.12240  Biso   1.000  I
  C529     1.0000 0.22593  0.92378  0.97560  Biso   1.000  C
  H568     1.0000 0.21909  0.11151  0.98599  Biso   1.000  H
  H569     1.0000 0.20929  0.10848  0.03619  Biso   1.000  H
  C530     1.0000 0.27014  0.15348  0.02251  Biso   1.000  C
  H570     1.0000 0.11369  0.14601  0.28129  Biso   1.000  H
  H571     1.0000 0.09529  0.21531  0.29710  Biso   1.000  H
  C531     1.0000 0.06631  0.18490  0.23889  Biso   1.000  C
  C532     1.0000 0.10597  0.79619  0.96665  Biso   1.000  C
  H572     1.0000 0.04721  0.74869  0.98099  Biso   1.000  H
  H573     1.0000 0.04792  0.77782  0.93339  Biso   1.000  H
  H574     1.0000 0.15642  0.03171  0.01529  Biso   1.000  H
  O63      1.0000 0.11841  0.85294  0.94074  Biso   1.000  O
  C533     1.0000 0.19503  0.87952  0.95724  Biso   1.000  C
  H575     1.0000 0.06129  0.08279  0.92807  Biso   1.000  H
  H576     1.0000 0.10971  0.05252  0.93287  Biso   1.000  H
  C534     1.0000 0.10500  0.14641  0.95946  Biso   1.000  C
  H577     1.0000 0.95630  0.87121  0.24300  Biso   1.000  H
  H578     1.0000 0.90481  0.85812  0.23559  Biso   1.000  H
  H579     1.0000 0.93601  0.87509  0.19580  Biso   1.000  H
  H580     1.0000 0.34650  0.86902  0.04240  Biso   1.000  H
  C535     1.0000 0.28935  0.87002  0.00526  Biso   1.000  C
  H581     1.0000 0.35539  0.89262  0.99428  Biso   1.000  H
  O64      1.0000 0.27146  0.91079  0.97106  Biso   1.000  O
  H582     1.0000 0.29582  0.14129  0.00461  Biso   1.000  H
  H583     1.0000 0.25959  0.19650  0.01241  Biso   1.000  H
  C536     1.0000 0.28689  0.16160  0.07039  Biso   1.000  C
  H584     1.0000 0.03969  0.16951  0.25359  Biso   1.000  H
  H585     1.0000 0.06059  0.22791  0.22641  Biso   1.000  H
  H586     1.0000 0.07430  0.15408  0.21628  Biso   1.000  H
  H587     1.0000 0.12131  0.75671  0.95600  Biso   1.000  H
  H588     1.0000 0.11470  0.80321  0.99690  Biso   1.000  H
  C537     1.0000 0.20959  0.81919  0.93630  Biso   1.000  C
  H589     1.0000 0.08239  0.17001  0.97638  Biso   1.000  H
  H590     1.0000 0.13131  0.14069  0.97798  Biso   1.000  H
  C538     1.0000 0.11821  0.18958  0.92036  Biso   1.000  C
  H591     1.0000 0.26910  0.87041  0.03009  Biso   1.000  H
  H592     1.0000 0.29221  0.82451  0.99507  Biso   1.000  H
  H593     1.0000 0.30259  0.12132  0.07899  Biso   1.000  H
  H594     1.0000 0.26101  0.16672  0.08941  Biso   1.000  H
  C539     1.0000 0.31839  0.22099  0.07719  Biso   1.000  C
  C540     1.0000 0.22118  0.76871  0.91994  Biso   1.000  C
  H595     1.0000 0.09142  0.20108  0.90400  Biso   1.000  H
  H596     1.0000 0.13788  0.16419  0.90128  Biso   1.000  H
  C541     1.0000 0.14200  0.25270  0.93428  Biso   1.000  C
  H597     1.0000 0.34410  0.21591  0.05801  Biso   1.000  H
  H598     1.0000 0.32941  0.21989  0.10701  Biso   1.000  H
  C542     1.0000 0.29801  0.28730  0.06909  Biso   1.000  C
  I40      1.0000 0.23931  0.67840  0.89449  Biso   1.000  I
  H599     1.0000 0.12370  0.27480  0.95620  Biso   1.000  H
  H600     1.0000 0.17040  0.24080  0.94790  Biso   1.000  H
  C543     1.0000 0.15130  0.30149  0.89749  Biso   1.000  C
  H601     1.0000 0.29161  0.29128  0.03809  Biso   1.000  H
  H602     1.0000 0.26940  0.28949  0.08451  Biso   1.000  H
  C544     1.0000 0.32749  0.34789  0.08340  Biso   1.000  C
  H603     1.0000 0.16669  0.33972  0.90880  Biso   1.000  H
  H604     1.0000 0.16979  0.28028  0.87567  Biso   1.000  H
  H605     1.0000 0.12329  0.31508  0.88449  Biso   1.000  H
  H606     1.0000 0.33140  0.34719  0.11459  Biso   1.000  H
  H607     1.0000 0.35640  0.34530  0.06951  Biso   1.000  H
  H608     1.0000 0.31280  0.38861  0.07510  Biso   1.000  H
