data_image0
_cell_length_a       17.073
_cell_length_b       20.25
_cell_length_c       17.437
_cell_angle_alpha    90
_cell_angle_beta     103.45
_cell_angle_gamma    90

_symmetry_space_group_name_H-M    "P 1"
_symmetry_int_tables_number       1

loop_
  _symmetry_equiv_pos_as_xyz
  'x, y, z'

loop_
  _atom_site_label
  _atom_site_occupancy
  _atom_site_fract_x
  _atom_site_fract_y
  _atom_site_fract_z
  _atom_site_thermal_displace_type
  _atom_site_B_iso_or_equiv
  _atom_site_type_symbol
  S1       1.0000 0.59856  0.43477  0.47173  Biso   1.000  S
  C1       1.0000 0.59925  0.38464  0.38782  Biso   1.000  C
  C2       1.0000 0.58517  0.37847  0.54603  Biso   1.000  C
  C3       1.0000 0.53486  0.34410  0.35274  Biso   1.000  C
  C4       1.0000 0.66349  0.39235  0.35203  Biso   1.000  C
  C5       1.0000 0.52341  0.39037  0.58365  Biso   1.000  C
  C6       1.0000 0.63997  0.32810  0.57280  Biso   1.000  C
  C7       1.0000 0.53984  0.30706  0.28693  Biso   1.000  C
  O1       1.0000 0.46637  0.34089  0.38322  Biso   1.000  O
  C8       1.0000 0.66632  0.35985  0.28233  Biso   1.000  C
  H1       1.0000 0.70576  0.42000  0.37538  Biso   1.000  H
  H2       1.0000 0.48767  0.42469  0.56561  Biso   1.000  H
  C9       1.0000 0.51293  0.35319  0.64704  Biso   1.000  C
  C10      1.0000 0.62793  0.28691  0.63307  Biso   1.000  C
  O2       1.0000 0.70519  0.31877  0.53966  Biso   1.000  O
  S2       1.0000 0.45993  0.25491  0.23728  Biso   1.000  S
  C11      1.0000 0.60451  0.31551  0.25244  Biso   1.000  C
  C12      1.0000 0.40920  0.38968  0.34749  Biso   1.000  C
  C13      1.0000 0.73567  0.37091  0.24165  Biso   1.000  C
  C14      1.0000 0.56491  0.29985  0.66933  Biso   1.000  C
  C15      1.0000 0.44491  0.36904  0.68861  Biso   1.000  C
  S3       1.0000 0.69781  0.22449  0.67576  Biso   1.000  S
  C16      1.0000 0.77508  0.35220  0.58235  Biso   1.000  C
  C17      1.0000 0.45001  0.19289  0.30674  Biso   1.000  C
  H3       1.0000 0.60666  0.29081  0.20798  Biso   1.000  H
  H4       1.0000 0.39127  0.38069  0.29147  Biso   1.000  H
  H5       1.0000 0.43469  0.43279  0.35368  Biso   1.000  H
  C18      1.0000 0.33845  0.39022  0.38375  Biso   1.000  C
  C19      1.0000 0.81576  0.35881  0.29772  Biso   1.000  C
  C20      1.0000 0.73010  0.32528  0.17012  Biso   1.000  C
  C21      1.0000 0.73066  0.44128  0.21069  Biso   1.000  C
  C22      1.0000 0.80036  0.41630  0.29183  Biso   1.000  C
  C23      1.0000 0.77529  0.30632  0.23138  Biso   1.000  C
  C24      1.0000 0.70109  0.40370  0.16440  Biso   1.000  C
  H6       1.0000 0.55734  0.27220  0.70949  Biso   1.000  H
  C25      1.0000 0.44354  0.32168  0.75560  Biso   1.000  C
  C26      1.0000 0.36507  0.36662  0.62870  Biso   1.000  C
  C27      1.0000 0.45957  0.43867  0.72323  Biso   1.000  C
  C28      1.0000 0.47635  0.36420  0.77783  Biso   1.000  C
  C29      1.0000 0.37878  0.31768  0.66349  Biso   1.000  C
  C30      1.0000 0.40784  0.43709  0.66892  Biso   1.000  C
  C31      1.0000 0.70881  0.17333  0.59633  Biso   1.000  C
  H7       1.0000 0.78879  0.33689  0.63660  Biso   1.000  H
  H8       1.0000 0.76486  0.39931  0.58247  Biso   1.000  H
  C32      1.0000 0.84313  0.33862  0.54408  Biso   1.000  C
  C33      1.0000 0.37403  0.18089  0.31948  Biso   1.000  C
  C34      1.0000 0.51382  0.15160  0.34059  Biso   1.000  C
  O3       1.0000 0.32788  0.35225  0.43169  Biso   1.000  O
  O4       1.0000 0.29057  0.43881  0.35427  Biso   1.000  O
  H9       1.0000 0.81446  0.31719  0.32379  Biso   1.000  H
  H10      1.0000 0.82676  0.39348  0.33611  Biso   1.000  H
  H11      1.0000 0.85728  0.35778  0.26883  Biso   1.000  H
  H12      1.0000 0.81317  0.40128  0.34549  Biso   1.000  H
  H13      1.0000 0.68071  0.33368  0.13209  Biso   1.000  H
  H14      1.0000 0.73151  0.28010  0.18692  Biso   1.000  H
  H15      1.0000 0.77479  0.33368  0.14671  Biso   1.000  H
  H16      1.0000 0.73988  0.28059  0.19182  Biso   1.000  H
  H17      1.0000 0.73207  0.47151  0.25338  Biso   1.000  H
  H18      1.0000 0.68131  0.44711  0.17159  Biso   1.000  H
  H19      1.0000 0.77548  0.44978  0.18757  Biso   1.000  H
  H20      1.0000 0.66509  0.43832  0.17189  Biso   1.000  H
  H21      1.0000 0.74390  0.42212  0.14388  Biso   1.000  H
  H22      1.0000 0.78027  0.46069  0.28958  Biso   1.000  H
  H23      1.0000 0.84805  0.41521  0.27142  Biso   1.000  H
  H24      1.0000 0.78666  0.28262  0.28050  Biso   1.000  H
  H25      1.0000 0.82460  0.31452  0.21558  Biso   1.000  H
  H26      1.0000 0.67210  0.37180  0.12790  Biso   1.000  H
  H27      1.0000 0.49464  0.32281  0.79292  Biso   1.000  H
  H28      1.0000 0.43326  0.27768  0.73502  Biso   1.000  H
  H29      1.0000 0.40182  0.33452  0.78119  Biso   1.000  H
  H30      1.0000 0.43196  0.36632  0.80277  Biso   1.000  H
  H31      1.0000 0.50435  0.32311  0.79068  Biso   1.000  H
  H32      1.0000 0.34695  0.32168  0.62121  Biso   1.000  H
  H33      1.0000 0.37146  0.38440  0.57941  Biso   1.000  H
  H34      1.0000 0.32597  0.39230  0.64728  Biso   1.000  H
  H35      1.0000 0.35526  0.32222  0.60812  Biso   1.000  H
  H36      1.0000 0.41636  0.45072  0.74722  Biso   1.000  H
  H37      1.0000 0.46173  0.46938  0.68177  Biso   1.000  H
  H38      1.0000 0.50957  0.43960  0.76208  Biso   1.000  H
  H39      1.0000 0.44795  0.47042  0.68737  Biso   1.000  H
  H40      1.0000 0.51254  0.40020  0.79581  Biso   1.000  H
  H41      1.0000 0.40134  0.27432  0.67387  Biso   1.000  H
  H42      1.0000 0.33809  0.32420  0.69262  Biso   1.000  H
  H43      1.0000 0.36394  0.44281  0.69398  Biso   1.000  H
  H44      1.0000 0.38847  0.44119  0.61278  Biso   1.000  H
  C35      1.0000 0.64394  0.13916  0.55034  Biso   1.000  C
  C36      1.0000 0.78626  0.16040  0.58725  Biso   1.000  C
  O5       1.0000 0.83662  0.31146  0.48294  Biso   1.000  O
  O6       1.0000 0.91152  0.36079  0.58689  Biso   1.000  O
  C37      1.0000 0.35941  0.12859  0.36595  Biso   1.000  C
  H45      1.0000 0.33168  0.20859  0.29631  Biso   1.000  H
  C38      1.0000 0.50186  0.10173  0.39183  Biso   1.000  C
  O7       1.0000 0.58823  0.15857  0.32320  Biso   1.000  O
  H46      1.0000 0.25546  0.44272  0.37910  Biso   1.000  H
  C39      1.0000 0.65707  0.09605  0.49243  Biso   1.000  C
  O8       1.0000 0.56800  0.14696  0.56425  Biso   1.000  O
  C40      1.0000 0.80137  0.11521  0.53253  Biso   1.000  C
  H47      1.0000 0.82945  0.18281  0.61891  Biso   1.000  H
  H48      1.0000 0.94765  0.35299  0.56443  Biso   1.000  H
  C41      1.0000 0.42506  0.09111  0.40363  Biso   1.000  C
  C42      1.0000 0.27522  0.11170  0.37621  Biso   1.000  C
  S4       1.0000 0.57980  0.04637  0.43517  Biso   1.000  S
  C43      1.0000 0.59646  0.11763  0.25875  Biso   1.000  C
  C44      1.0000 0.73522  0.08499  0.48435  Biso   1.000  C
  C45      1.0000 0.55456  0.10193  0.62280  Biso   1.000  C
  C46      1.0000 0.88757  0.10020  0.52580  Biso   1.000  C
  H49      1.0000 0.41749  0.05778  0.43783  Biso   1.000  H
  C47      1.0000 0.27850  0.10948  0.46472  Biso   1.000  C
  C48      1.0000 0.25645  0.04049  0.34478  Biso   1.000  C
  C49      1.0000 0.21016  0.15832  0.33511  Biso   1.000  C
  C50      1.0000 0.27124  0.07580  0.45068  Biso   1.000  C
  C51      1.0000 0.23267  0.07151  0.30338  Biso   1.000  C
  C52      1.0000 0.23028  0.17842  0.37173  Biso   1.000  C
  H50      1.0000 0.56068  0.13368  0.21069  Biso   1.000  H
  H51      1.0000 0.58011  0.07299  0.26783  Biso   1.000  H
  C53      1.0000 0.67968  0.11630  0.24784  Biso   1.000  C
  H52      1.0000 0.74326  0.05630  0.44520  Biso   1.000  H
  H53      1.0000 0.60175  0.10158  0.66638  Biso   1.000  H
  H54      1.0000 0.54797  0.05788  0.60052  Biso   1.000  H
  C54      1.0000 0.48292  0.11852  0.65335  Biso   1.000  C
  C55      1.0000 0.89088  0.05220  0.46082  Biso   1.000  C
  C56      1.0000 0.93483  0.07210  0.60541  Biso   1.000  C
  C57      1.0000 0.92888  0.16484  0.51083  Biso   1.000  C
  C58      1.0000 0.89969  0.02509  0.53512  Biso   1.000  C
  C59      1.0000 0.95353  0.13462  0.58548  Biso   1.000  C
  C60      1.0000 0.89287  0.11891  0.44231  Biso   1.000  C
  H55      1.0000 0.29436  0.15190  0.48759  Biso   1.000  H
  H56      1.0000 0.31676  0.07679  0.48942  Biso   1.000  H
  H57      1.0000 0.22617  0.09842  0.47250  Biso   1.000  H
  H58      1.0000 0.29659  0.10198  0.49550  Biso   1.000  H
  H59      1.0000 0.29320  0.01032  0.37721  Biso   1.000  H
  H60      1.0000 0.26235  0.03788  0.29147  Biso   1.000  H
  H61      1.0000 0.20231  0.02919  0.34643  Biso   1.000  H
  H62      1.0000 0.26450  0.03338  0.29831  Biso   1.000  H
  H63      1.0000 0.21048  0.16079  0.28021  Biso   1.000  H
  H64      1.0000 0.21977  0.20138  0.35828  Biso   1.000  H
  H65      1.0000 0.15875  0.14252  0.34059  Biso   1.000  H
  H66      1.0000 0.23137  0.20010  0.32302  Biso   1.000  H
  H67      1.0000 0.17538  0.17062  0.37408  Biso   1.000  H
  H68      1.0000 0.29879  0.03422  0.45251  Biso   1.000  H
  H69      1.0000 0.21600  0.06820  0.45162  Biso   1.000  H
  H70      1.0000 0.22631  0.09842  0.25709  Biso   1.000  H
  H71      1.0000 0.18067  0.05758  0.30957  Biso   1.000  H
  H72      1.0000 0.25607  0.20578  0.41518  Biso   1.000  H
  O9       1.0000 0.73410  0.15012  0.29495  Biso   1.000  O
  O10      1.0000 0.69476  0.08306  0.19618  Biso   1.000  O
  O11      1.0000 0.43524  0.16558  0.62080  Biso   1.000  O
  O12      1.0000 0.47045  0.08578  0.70713  Biso   1.000  O
  H73      1.0000 0.86629  0.07160  0.41082  Biso   1.000  H
  H74      1.0000 0.86254  0.01249  0.46802  Biso   1.000  H
  H75      1.0000 0.94608  0.04168  0.46218  Biso   1.000  H
  H76      1.0000 0.85937  0.08978  0.40510  Biso   1.000  H
  H77      1.0000 0.91127  0.03101  0.61567  Biso   1.000  H
  H78      1.0000 0.93304  0.10291  0.64669  Biso   1.000  H
  H79      1.0000 0.98984  0.06479  0.60323  Biso   1.000  H
  H80      1.0000 0.96317  0.11131  0.63472  Biso   1.000  H
  H81      1.0000 0.92894  0.19521  0.55299  Biso   1.000  H
  H82      1.0000 0.90015  0.18390  0.46189  Biso   1.000  H
  H83      1.0000 0.98338  0.15580  0.50800  Biso   1.000  H
  H84      1.0000 0.95015  0.01309  0.52368  Biso   1.000  H
  H85      1.0000 0.85669  0.00272  0.49909  Biso   1.000  H
  H86      1.0000 0.89964  0.01249  0.58819  Biso   1.000  H
  H87      1.0000 0.93724  0.17901  0.59309  Biso   1.000  H
  H88      1.0000 0.00205  0.13531  0.56661  Biso   1.000  H
  H89      1.0000 0.94765  0.11511  0.43771  Biso   1.000  H
  H90      1.0000 0.87490  0.16360  0.43152  Biso   1.000  H
  H91      1.0000 0.75789  0.16528  0.33888  Biso   1.000  H
  H92      1.0000 0.41846  0.20188  0.59998  Biso   1.000  H
  S5       1.0000 0.40137  0.56523  0.52828  Biso   1.000  S
  C61      1.0000 0.41476  0.62153  0.45398  Biso   1.000  C
  C62      1.0000 0.40069  0.61536  0.61219  Biso   1.000  C
  C63      1.0000 0.47651  0.60963  0.41630  Biso   1.000  C
  C64      1.0000 0.35997  0.67190  0.42721  Biso   1.000  C
  C65      1.0000 0.46507  0.65590  0.64728  Biso   1.000  C
  C66      1.0000 0.33644  0.60765  0.64798  Biso   1.000  C
  C67      1.0000 0.48699  0.64681  0.35291  Biso   1.000  C
  H93      1.0000 0.51226  0.57531  0.43441  Biso   1.000  H
  C68      1.0000 0.37201  0.71309  0.36695  Biso   1.000  C
  O13      1.0000 0.29474  0.68123  0.46035  Biso   1.000  O
  C69      1.0000 0.46009  0.69294  0.71308  Biso   1.000  C
  O14      1.0000 0.53357  0.65911  0.61679  Biso   1.000  O
  H94      1.0000 0.29416  0.58000  0.62457  Biso   1.000  H
  C70      1.0000 0.33361  0.64015  0.71768  Biso   1.000  C
  C71      1.0000 0.55503  0.63096  0.31140  Biso   1.000  C
  C72      1.0000 0.43503  0.70015  0.33068  Biso   1.000  C
  S6       1.0000 0.30212  0.77551  0.32426  Biso   1.000  S
  C73      1.0000 0.22485  0.64780  0.41766  Biso   1.000  C
  C74      1.0000 0.39542  0.68449  0.74758  Biso   1.000  C
  S7       1.0000 0.54000  0.74509  0.76273  Biso   1.000  S
  C75      1.0000 0.59073  0.61032  0.65252  Biso   1.000  C
  C76      1.0000 0.26425  0.62909  0.75831  Biso   1.000  C
  C77      1.0000 0.54036  0.56133  0.27679  Biso   1.000  C
  C78      1.0000 0.59210  0.56291  0.33110  Biso   1.000  C
  C79      1.0000 0.55639  0.67832  0.24442  Biso   1.000  C
  C80      1.0000 0.63486  0.63338  0.37131  Biso   1.000  C
  C81      1.0000 0.52358  0.63580  0.22219  Biso   1.000  C
  C82      1.0000 0.62121  0.68232  0.33652  Biso   1.000  C
  H95      1.0000 0.44259  0.72780  0.29053  Biso   1.000  H
  C83      1.0000 0.29110  0.82667  0.40363  Biso   1.000  C
  H96      1.0000 0.21121  0.66311  0.36341  Biso   1.000  H
  H97      1.0000 0.23506  0.60069  0.41748  Biso   1.000  H
  C84      1.0000 0.15679  0.66138  0.45587  Biso   1.000  C
  H98      1.0000 0.39326  0.70919  0.79198  Biso   1.000  H
  C85      1.0000 0.54992  0.80711  0.69327  Biso   1.000  C
  H99      1.0000 0.60865  0.61931  0.70848  Biso   1.000  H
  H100     1.0000 0.56523  0.56721  0.64627  Biso   1.000  H
  C86      1.0000 0.66148  0.60978  0.61626  Biso   1.000  C
  C87      1.0000 0.18417  0.64119  0.70229  Biso   1.000  C
  C88      1.0000 0.26983  0.67472  0.82990  Biso   1.000  C
  C89      1.0000 0.26928  0.55872  0.78933  Biso   1.000  C
  C90      1.0000 0.19957  0.58370  0.70819  Biso   1.000  C
  C91      1.0000 0.22463  0.69368  0.76857  Biso   1.000  C
  C92      1.0000 0.29884  0.59630  0.83562  Biso   1.000  C
  H101     1.0000 0.58357  0.54928  0.25279  Biso   1.000  H
  H102     1.0000 0.53819  0.53062  0.31818  Biso   1.000  H
  H103     1.0000 0.49035  0.56040  0.23787  Biso   1.000  H
  H104     1.0000 0.55197  0.52958  0.31258  Biso   1.000  H
  H105     1.0000 0.63597  0.55719  0.30598  Biso   1.000  H
  H106     1.0000 0.61145  0.55881  0.38717  Biso   1.000  H
  H107     1.0000 0.50530  0.67719  0.20709  Biso   1.000  H
  H108     1.0000 0.56667  0.72232  0.26500  Biso   1.000  H
  H109     1.0000 0.59811  0.66548  0.21882  Biso   1.000  H
  H110     1.0000 0.56796  0.63368  0.19718  Biso   1.000  H
  H111     1.0000 0.49556  0.67689  0.20927  Biso   1.000  H
  H112     1.0000 0.65298  0.67832  0.37880  Biso   1.000  H
  H113     1.0000 0.62847  0.61560  0.42061  Biso   1.000  H
  H114     1.0000 0.67395  0.60770  0.35268  Biso   1.000  H
  H115     1.0000 0.64467  0.67778  0.39189  Biso   1.000  H
  H116     1.0000 0.48739  0.59980  0.20420  Biso   1.000  H
  H117     1.0000 0.59858  0.72568  0.32609  Biso   1.000  H
  H118     1.0000 0.66185  0.67580  0.30739  Biso   1.000  H
  C93      1.0000 0.35598  0.86084  0.44962  Biso   1.000  C
  C94      1.0000 0.21368  0.83960  0.41277  Biso   1.000  C
  O15      1.0000 0.16331  0.68854  0.51708  Biso   1.000  O
  O16      1.0000 0.08842  0.63921  0.41312  Biso   1.000  O
  C95      1.0000 0.62591  0.81911  0.68053  Biso   1.000  C
  C96      1.0000 0.48612  0.84840  0.65942  Biso   1.000  C
  O17      1.0000 0.67204  0.64775  0.56826  Biso   1.000  O
  O18      1.0000 0.70937  0.56119  0.64574  Biso   1.000  O
  H119     1.0000 0.18548  0.68281  0.67623  Biso   1.000  H
  H120     1.0000 0.17318  0.60652  0.66390  Biso   1.000  H
  H121     1.0000 0.14265  0.64222  0.73119  Biso   1.000  H
  H122     1.0000 0.18675  0.59872  0.65447  Biso   1.000  H
  H123     1.0000 0.31927  0.66632  0.86787  Biso   1.000  H
  H124     1.0000 0.26848  0.71990  0.81309  Biso   1.000  H
  H125     1.0000 0.22514  0.66632  0.85331  Biso   1.000  H
  H126     1.0000 0.26005  0.71941  0.80820  Biso   1.000  H
  H127     1.0000 0.26785  0.52849  0.74658  Biso   1.000  H
  H128     1.0000 0.31868  0.55289  0.82842  Biso   1.000  H
  H129     1.0000 0.22444  0.55022  0.81238  Biso   1.000  H
  H130     1.0000 0.33484  0.56168  0.82813  Biso   1.000  H
  H131     1.0000 0.25602  0.57788  0.85608  Biso   1.000  H
  H132     1.0000 0.21965  0.53931  0.71037  Biso   1.000  H
  H133     1.0000 0.15188  0.58479  0.72859  Biso   1.000  H
  H134     1.0000 0.21327  0.71738  0.71951  Biso   1.000  H
  H135     1.0000 0.17532  0.68548  0.78437  Biso   1.000  H
  H136     1.0000 0.32783  0.62820  0.87212  Biso   1.000  H
  C97      1.0000 0.34286  0.90395  0.50758  Biso   1.000  C
  O19      1.0000 0.43193  0.85304  0.43576  Biso   1.000  O
  C98      1.0000 0.19856  0.88479  0.46749  Biso   1.000  C
  H137     1.0000 0.17048  0.81719  0.38110  Biso   1.000  H
  H138     1.0000 0.05228  0.64701  0.43559  Biso   1.000  H
  C99      1.0000 0.64052  0.87141  0.63407  Biso   1.000  C
  H139     1.0000 0.66825  0.79141  0.70371  Biso   1.000  H
  C100     1.0000 0.49806  0.89827  0.60812  Biso   1.000  C
  O20      1.0000 0.41170  0.84143  0.67682  Biso   1.000  O
  H140     1.0000 0.74447  0.55728  0.62092  Biso   1.000  H
  C101     1.0000 0.26471  0.91501  0.51566  Biso   1.000  C
  S8       1.0000 0.42013  0.95363  0.56484  Biso   1.000  S
  C102     1.0000 0.44536  0.89807  0.37715  Biso   1.000  C
  C103     1.0000 0.11236  0.89980  0.47421  Biso   1.000  C
  C104     1.0000 0.57493  0.90889  0.59639  Biso   1.000  C
  C105     1.0000 0.72471  0.88830  0.62381  Biso   1.000  C
  C106     1.0000 0.40347  0.88237  0.74127  Biso   1.000  C
  H141     1.0000 0.25668  0.94370  0.55482  Biso   1.000  H
  H142     1.0000 0.39817  0.89842  0.33357  Biso   1.000  H
  H143     1.0000 0.45196  0.94212  0.39950  Biso   1.000  H
  C107     1.0000 0.51702  0.88148  0.34666  Biso   1.000  C
  C108     1.0000 0.10905  0.94780  0.53919  Biso   1.000  C
  C109     1.0000 0.06510  0.92790  0.39460  Biso   1.000  C
  C110     1.0000 0.07105  0.83516  0.48919  Biso   1.000  C
  C111     1.0000 0.10025  0.97491  0.46489  Biso   1.000  C
  C112     1.0000 0.04639  0.86538  0.41448  Biso   1.000  C
  C113     1.0000 0.10707  0.88109  0.55771  Biso   1.000  C
  H144     1.0000 0.58245  0.94222  0.56219  Biso   1.000  H
  C114     1.0000 0.72143  0.89052  0.53530  Biso   1.000  C
  C115     1.0000 0.74347  0.95951  0.65518  Biso   1.000  C
  C116     1.0000 0.78977  0.84168  0.66491  Biso   1.000  C
  C117     1.0000 0.72868  0.92420  0.54927  Biso   1.000  C
  C118     1.0000 0.76724  0.92849  0.69657  Biso   1.000  C
  C119     1.0000 0.76965  0.82158  0.62829  Biso   1.000  C
  H145     1.0000 0.43925  0.86632  0.78933  Biso   1.000  H
  H146     1.0000 0.41988  0.92701  0.73219  Biso   1.000  H
  C120     1.0000 0.32024  0.88370  0.75212  Biso   1.000  C
  O21      1.0000 0.56468  0.83442  0.37916  Biso   1.000  O
  O22      1.0000 0.52947  0.91422  0.29283  Biso   1.000  O
  H147     1.0000 0.13364  0.92840  0.58919  Biso   1.000  H
  H148     1.0000 0.13739  0.98751  0.53200  Biso   1.000  H
  H149     1.0000 0.05389  0.95832  0.53778  Biso   1.000  H
  H150     1.0000 0.14056  0.91022  0.59491  Biso   1.000  H
  H151     1.0000 0.08865  0.96899  0.38429  Biso   1.000  H
  H152     1.0000 0.06689  0.89709  0.35333  Biso   1.000  H
  H153     1.0000 0.01009  0.93521  0.39679  Biso   1.000  H
  H154     1.0000 0.03676  0.88869  0.36530  Biso   1.000  H
  H155     1.0000 0.07099  0.80479  0.44703  Biso   1.000  H
  H156     1.0000 0.09977  0.81610  0.53807  Biso   1.000  H
  H157     1.0000 0.01661  0.84420  0.49202  Biso   1.000  H
  H158     1.0000 0.04977  0.98691  0.47627  Biso   1.000  H
  H159     1.0000 0.14330  0.99728  0.50092  Biso   1.000  H
  H160     1.0000 0.10029  0.98751  0.41182  Biso   1.000  H
  H161     1.0000 0.06270  0.82099  0.40693  Biso   1.000  H
  H162     1.0000 0.99788  0.86469  0.43340  Biso   1.000  H
  H163     1.0000 0.05228  0.88489  0.56231  Biso   1.000  H
  H164     1.0000 0.12509  0.83640  0.56850  Biso   1.000  H
  H165     1.0000 0.70557  0.84810  0.51242  Biso   1.000  H
  H166     1.0000 0.68318  0.92321  0.51059  Biso   1.000  H
  H167     1.0000 0.77376  0.90158  0.52751  Biso   1.000  H
  H168     1.0000 0.70335  0.89798  0.50452  Biso   1.000  H
  H169     1.0000 0.70679  0.98968  0.62280  Biso   1.000  H
  H170     1.0000 0.73757  0.96212  0.70848  Biso   1.000  H
  H171     1.0000 0.79762  0.97081  0.65359  Biso   1.000  H
  H172     1.0000 0.73543  0.96662  0.70170  Biso   1.000  H
  H173     1.0000 0.78946  0.83921  0.71980  Biso   1.000  H
  H174     1.0000 0.78015  0.79862  0.64167  Biso   1.000  H
  H175     1.0000 0.84118  0.85748  0.65942  Biso   1.000  H
  H176     1.0000 0.76857  0.79990  0.67700  Biso   1.000  H
  H177     1.0000 0.82454  0.82938  0.62587  Biso   1.000  H
  H178     1.0000 0.70114  0.96578  0.54750  Biso   1.000  H
  H179     1.0000 0.78394  0.93180  0.54839  Biso   1.000  H
  H180     1.0000 0.77363  0.90158  0.74292  Biso   1.000  H
  H181     1.0000 0.81925  0.94242  0.69038  Biso   1.000  H
  H182     1.0000 0.74385  0.79422  0.58477  Biso   1.000  H
  O23      1.0000 0.26583  0.84988  0.70506  Biso   1.000  O
  O24      1.0000 0.30517  0.91694  0.80383  Biso   1.000  O
  H183     1.0000 0.58146  0.79812  0.39997  Biso   1.000  H
  H184     1.0000 0.24203  0.83472  0.66107  Biso   1.000  H
  O25      1.0000 0.80521  0.58306  0.30385  Biso   1.000  O
  C121     1.0000 0.82028  0.61630  0.25214  Biso   1.000  C
  C122     1.0000 0.90351  0.61763  0.24129  Biso   1.000  C
  O26      1.0000 0.76588  0.65012  0.20509  Biso   1.000  O
  O27      1.0000 0.91173  0.65857  0.17678  Biso   1.000  O
  H185     1.0000 0.93928  0.63368  0.28929  Biso   1.000  H
  H186     1.0000 0.91986  0.57299  0.23221  Biso   1.000  H
  H187     1.0000 0.74207  0.66528  0.16110  Biso   1.000  H
  C123     1.0000 0.98614  0.65160  0.15939  Biso   1.000  C
  C124     1.0000 0.99810  0.60173  0.10814  Biso   1.000  C
  C125     1.0000 0.04995  0.69289  0.19323  Biso   1.000  C
  S9       1.0000 0.92016  0.54637  0.06480  Biso   1.000  S
  C126     1.0000 0.07497  0.59111  0.09641  Biso   1.000  C
  C127     1.0000 0.12595  0.68089  0.18056  Biso   1.000  C
  S10      1.0000 0.04004  0.75491  0.26276  Biso   1.000  S
  C128     1.0000 0.84290  0.59605  0.00761  Biso   1.000  C
  H188     1.0000 0.08249  0.55778  0.06221  Biso   1.000  H
  C129     1.0000 0.14055  0.62859  0.13403  Biso   1.000  C
  H189     1.0000 0.16828  0.70859  0.20367  Biso   1.000  H
  C130     1.0000 0.96012  0.80706  0.21305  Biso   1.000  C
  C131     1.0000 0.76475  0.58499  0.01569  Biso   1.000  C
  C132     1.0000 0.85596  0.63916  0.94964  Biso   1.000  C
  C133     1.0000 0.22474  0.61170  0.12377  Biso   1.000  C
  C134     1.0000 0.96512  0.84410  0.14730  Biso   1.000  C
  C135     1.0000 0.89545  0.81551  0.24754  Biso   1.000  C
  C136     1.0000 0.69854  0.61521  0.96751  Biso   1.000  C
  H190     1.0000 0.75670  0.55630  0.05478  Biso   1.000  H
  C137     1.0000 0.79109  0.67333  0.90365  Biso   1.000  C
  O28      1.0000 0.93190  0.64696  0.93573  Biso   1.000  O
  C138     1.0000 0.22148  0.60948  0.03532  Biso   1.000  C
  C139     1.0000 0.24351  0.54049  0.15520  Biso   1.000  C
  C140     1.0000 0.28980  0.65832  0.16487  Biso   1.000  C
  C141     1.0000 0.22872  0.57580  0.04930  Biso   1.000  C
  C142     1.0000 0.26728  0.57151  0.19659  Biso   1.000  C
  C143     1.0000 0.26969  0.67842  0.12831  Biso   1.000  C
  C144     1.0000 0.90073  0.88464  0.11221  Biso   1.000  C
  O29      1.0000 0.03361  0.84089  0.11681  Biso   1.000  O
  C145     1.0000 0.83365  0.85985  0.21770  Biso   1.000  C
  H191     1.0000 0.89330  0.79081  0.29200  Biso   1.000  H
  C146     1.0000 0.61233  0.60020  0.97417  Biso   1.000  C
  C147     1.0000 0.71364  0.66040  0.91273  Biso   1.000  C
  S11      1.0000 0.80210  0.72449  0.82428  Biso   1.000  S
  C148     1.0000 0.94534  0.60193  0.87717  Biso   1.000  C
  H192     1.0000 0.20560  0.65190  0.01238  Biso   1.000  H
  H193     1.0000 0.18322  0.57679  0.01061  Biso   1.000  H
  H194     1.0000 0.27379  0.59842  0.02748  Biso   1.000  H
  H195     1.0000 0.20337  0.60202  0.00448  Biso   1.000  H
  H196     1.0000 0.20677  0.51032  0.12283  Biso   1.000  H
  H197     1.0000 0.23761  0.53788  0.20851  Biso   1.000  H
  H198     1.0000 0.29766  0.52919  0.15361  Biso   1.000  H
  H199     1.0000 0.23547  0.53338  0.20172  Biso   1.000  H
  H200     1.0000 0.28950  0.66079  0.21983  Biso   1.000  H
  H201     1.0000 0.28019  0.70138  0.14170  Biso   1.000  H
  H202     1.0000 0.34121  0.64252  0.15939  Biso   1.000  H
  H203     1.0000 0.26861  0.70010  0.17702  Biso   1.000  H
  H204     1.0000 0.32458  0.67062  0.12589  Biso   1.000  H
  H205     1.0000 0.20118  0.53422  0.04753  Biso   1.000  H
  H206     1.0000 0.28398  0.56820  0.04841  Biso   1.000  H
  H207     1.0000 0.27365  0.59842  0.24288  Biso   1.000  H
  H208     1.0000 0.31929  0.55758  0.19040  Biso   1.000  H
  H209     1.0000 0.24389  0.70578  0.08479  Biso   1.000  H
  S12      1.0000 0.90141  0.93477  0.02830  Biso   1.000  S
  C149     1.0000 0.83647  0.89235  0.14795  Biso   1.000  C
  C150     1.0000 0.09075  0.88968  0.15249  Biso   1.000  C
  C151     1.0000 0.76429  0.87091  0.25833  Biso   1.000  C
  C152     1.0000 0.60909  0.55220  0.03921  Biso   1.000  C
  C153     1.0000 0.60711  0.61891  0.05773  Biso   1.000  C
  C154     1.0000 0.60021  0.52509  0.96486  Biso   1.000  C
  C155     1.0000 0.57103  0.66484  0.98921  Biso   1.000  C
  C156     1.0000 0.56507  0.57210  0.89457  Biso   1.000  C
  C157     1.0000 0.54637  0.63462  0.91450  Biso   1.000  C
  H210     1.0000 0.67045  0.68281  0.88106  Biso   1.000  H
  C158     1.0000 0.87199  0.78691  0.86697  Biso   1.000  C
  H211     1.0000 0.89815  0.60158  0.83360  Biso   1.000  H
  H212     1.0000 0.95193  0.55788  0.89946  Biso   1.000  H
  C159     1.0000 0.01698  0.61852  0.84663  Biso   1.000  C
  C160     1.0000 0.91473  0.87847  0.95395  Biso   1.000  C
  H213     1.0000 0.79420  0.92000  0.12460  Biso   1.000  H
  H214     1.0000 0.10869  0.88069  0.20851  Biso   1.000  H
  H215     1.0000 0.06527  0.93279  0.14630  Biso   1.000  H
  C161     1.0000 0.16152  0.89022  0.11628  Biso   1.000  C
  C162     1.0000 0.68421  0.85881  0.20231  Biso   1.000  C
  C163     1.0000 0.76988  0.82528  0.32992  Biso   1.000  C
  C164     1.0000 0.76924  0.94128  0.28929  Biso   1.000  C
  C165     1.0000 0.69961  0.91630  0.20821  Biso   1.000  C
  C166     1.0000 0.72467  0.80632  0.26859  Biso   1.000  C
  C167     1.0000 0.79887  0.90370  0.33558  Biso   1.000  C
  H216     1.0000 0.63368  0.57160  0.08922  Biso   1.000  H
  H217     1.0000 0.63737  0.51249  0.03202  Biso   1.000  H
  H218     1.0000 0.55387  0.54168  0.03780  Biso   1.000  H
  H219     1.0000 0.64059  0.58978  0.09488  Biso   1.000  H
  H220     1.0000 0.55232  0.61511  0.06233  Biso   1.000  H
  H221     1.0000 0.62507  0.66360  0.06852  Biso   1.000  H
  H222     1.0000 0.64327  0.50272  0.00088  Biso   1.000  H
  H223     1.0000 0.54975  0.51309  0.97630  Biso   1.000  H
  H224     1.0000 0.60026  0.51249  0.91179  Biso   1.000  H
  H225     1.0000 0.59981  0.68390  0.03809  Biso   1.000  H
  H226     1.0000 0.57096  0.69521  0.94699  Biso   1.000  H
  H227     1.0000 0.51657  0.65580  0.99198  Biso   1.000  H
  H228     1.0000 0.58864  0.53101  0.88431  Biso   1.000  H
  H229     1.0000 0.56686  0.60291  0.85329  Biso   1.000  H
  H230     1.0000 0.51007  0.56479  0.89681  Biso   1.000  H
  H231     1.0000 0.53673  0.61131  0.86526  Biso   1.000  H
  H232     1.0000 0.56266  0.67901  0.90689  Biso   1.000  H
  H233     1.0000 0.49785  0.63531  0.93337  Biso   1.000  H
  C168     1.0000 0.93499  0.79985  0.83065  Biso   1.000  C
  C169     1.0000 0.85993  0.82810  0.92718  Biso   1.000  C
  O30      1.0000 0.06466  0.66558  0.87918  Biso   1.000  O
  O31      1.0000 0.02945  0.58578  0.79285  Biso   1.000  O
  C170     1.0000 0.97649  0.89037  0.91633  Biso   1.000  C
  O32      1.0000 0.17208  0.85225  0.06828  Biso   1.000  O
  O33      1.0000 0.20939  0.93881  0.14571  Biso   1.000  O
  H234     1.0000 0.68550  0.81719  0.17619  Biso   1.000  H
  H235     1.0000 0.67322  0.89348  0.16393  Biso   1.000  H
  H236     1.0000 0.64269  0.85778  0.23121  Biso   1.000  H
  H237     1.0000 0.68679  0.90128  0.15449  Biso   1.000  H
  H238     1.0000 0.81925  0.83368  0.36789  Biso   1.000  H
  H239     1.0000 0.76846  0.78010  0.31311  Biso   1.000  H
  H240     1.0000 0.72518  0.83368  0.35333  Biso   1.000  H
  H241     1.0000 0.76009  0.78059  0.30822  Biso   1.000  H
  H242     1.0000 0.76789  0.97151  0.24660  Biso   1.000  H
  H243     1.0000 0.81865  0.94711  0.32838  Biso   1.000  H
  H244     1.0000 0.72448  0.94978  0.31240  Biso   1.000  H
  H245     1.0000 0.83487  0.93832  0.32809  Biso   1.000  H
  H246     1.0000 0.75606  0.92212  0.35610  Biso   1.000  H
  H247     1.0000 0.71969  0.96069  0.21039  Biso   1.000  H
  H248     1.0000 0.65186  0.91521  0.22861  Biso   1.000  H
  H249     1.0000 0.71330  0.78262  0.21947  Biso   1.000  H
  H250     1.0000 0.67536  0.81452  0.28440  Biso   1.000  H
  H251     1.0000 0.82786  0.87180  0.37208  Biso   1.000  H
  C171     1.0000 0.98697  0.85319  0.85294  Biso   1.000  C
  H252     1.0000 0.94256  0.77220  0.79049  Biso   1.000  H
  O34      1.0000 0.79471  0.81877  0.96032  Biso   1.000  O
  H253     1.0000 0.08144  0.70188  0.89999  Biso   1.000  H
  H254     1.0000 0.01223  0.92469  0.93437  Biso   1.000  H
  H255     1.0000 0.24450  0.94272  0.12088  Biso   1.000  H
  C172     1.0000 0.05500  0.86904  0.81137  Biso   1.000  C
  C173     1.0000 0.72482  0.85220  0.91762  Biso   1.000  C
  C174     1.0000 0.05636  0.82168  0.74438  Biso   1.000  C
  C175     1.0000 0.13483  0.86662  0.87128  Biso   1.000  C
  C176     1.0000 0.04034  0.93867  0.77681  Biso   1.000  C
  C177     1.0000 0.02357  0.86420  0.72221  Biso   1.000  C
  C178     1.0000 0.12117  0.81768  0.83649  Biso   1.000  C
  C179     1.0000 0.09206  0.93709  0.83106  Biso   1.000  C
  H256     1.0000 0.71117  0.83689  0.86337  Biso   1.000  H
  H257     1.0000 0.73504  0.89931  0.91751  Biso   1.000  H
  C180     1.0000 0.65677  0.83862  0.95589  Biso   1.000  C
  H258     1.0000 0.99555  0.82311  0.70929  Biso   1.000  H
  H259     1.0000 0.00528  0.82281  0.70711  Biso   1.000  H
  H260     1.0000 0.06664  0.77768  0.76496  Biso   1.000  H
  H261     1.0000 0.09808  0.83452  0.71879  Biso   1.000  H
  H262     1.0000 0.06800  0.86632  0.69721  Biso   1.000  H
  H263     1.0000 0.15295  0.82168  0.87876  Biso   1.000  H
  H264     1.0000 0.12844  0.88440  0.92057  Biso   1.000  H
  H265     1.0000 0.17393  0.89230  0.85270  Biso   1.000  H
  H266     1.0000 0.14465  0.82222  0.89191  Biso   1.000  H
  H267     1.0000 0.99033  0.93960  0.73789  Biso   1.000  H
  H268     1.0000 0.08355  0.95072  0.75281  Biso   1.000  H
  H269     1.0000 0.03817  0.96938  0.81821  Biso   1.000  H
  H270     1.0000 0.05195  0.97042  0.81260  Biso   1.000  H
  H271     1.0000 0.98736  0.90020  0.70416  Biso   1.000  H
  H272     1.0000 0.09856  0.77432  0.82611  Biso   1.000  H
  H273     1.0000 0.16187  0.82420  0.80736  Biso   1.000  H
  H274     1.0000 0.13596  0.94281  0.80600  Biso   1.000  H
  H275     1.0000 0.11143  0.94119  0.88720  Biso   1.000  H
  O35      1.0000 0.66333  0.81146  0.01704  Biso   1.000  O
  O36      1.0000 0.58840  0.86079  0.91314  Biso   1.000  O
  H276     1.0000 0.55227  0.85299  0.93561  Biso   1.000  H
  O37      1.0000 0.19472  0.41694  0.69616  Biso   1.000  O
  C181     1.0000 0.17965  0.38370  0.74787  Biso   1.000  C
  C182     1.0000 0.09642  0.38237  0.75872  Biso   1.000  C
  O38      1.0000 0.23406  0.34988  0.79493  Biso   1.000  O
  O39      1.0000 0.08820  0.34143  0.82323  Biso   1.000  O
  H277     1.0000 0.06065  0.36632  0.71072  Biso   1.000  H
  H278     1.0000 0.08007  0.42701  0.76780  Biso   1.000  H
  H279     1.0000 0.25786  0.33472  0.83892  Biso   1.000  H
  C183     1.0000 0.01379  0.34840  0.84063  Biso   1.000  C
  C184     1.0000 0.94997  0.30711  0.80672  Biso   1.000  C
  C185     1.0000 0.00183  0.39827  0.89187  Biso   1.000  C
  S13      1.0000 0.95989  0.24509  0.73726  Biso   1.000  S
  C186     1.0000 0.87399  0.31911  0.81946  Biso   1.000  C
  S14      1.0000 0.07976  0.45363  0.93515  Biso   1.000  S
  C187     1.0000 0.92502  0.40889  0.90360  Biso   1.000  C
  C188     1.0000 0.03982  0.19294  0.78697  Biso   1.000  C
  C189     1.0000 0.85937  0.37141  0.86592  Biso   1.000  C
  H280     1.0000 0.83164  0.29141  0.79628  Biso   1.000  H
  C190     1.0000 0.15703  0.40395  0.99241  Biso   1.000  C
  H281     1.0000 0.91744  0.44222  0.93780  Biso   1.000  H
  C191     1.0000 0.10447  0.18449  0.75241  Biso   1.000  C
  C192     1.0000 0.03482  0.15590  0.85272  Biso   1.000  C
  C193     1.0000 0.77518  0.38830  0.87618  Biso   1.000  C
  C194     1.0000 0.14398  0.36084  0.05037  Biso   1.000  C
  C195     1.0000 0.23524  0.41501  0.98433  Biso   1.000  C
  C196     1.0000 0.16628  0.14015  0.78231  Biso   1.000  C
  H282     1.0000 0.10669  0.20919  0.70801  Biso   1.000  H
  C197     1.0000 0.09921  0.11536  0.88780  Biso   1.000  C
  O40      1.0000 0.96633  0.15911  0.88320  Biso   1.000  O
  C198     1.0000 0.77846  0.39052  0.96469  Biso   1.000  C
  C199     1.0000 0.75642  0.45951  0.84481  Biso   1.000  C
  C200     1.0000 0.71012  0.34168  0.83508  Biso   1.000  C
  C201     1.0000 0.77127  0.42420  0.95072  Biso   1.000  C
  C202     1.0000 0.73265  0.42849  0.80342  Biso   1.000  C
  C203     1.0000 0.73024  0.32158  0.87170  Biso   1.000  C
  C204     1.0000 0.20885  0.32667  0.09637  Biso   1.000  C
  O41      1.0000 0.06803  0.35304  0.06429  Biso   1.000  O
  C205     1.0000 0.30139  0.38479  0.03250  Biso   1.000  C
  H283     1.0000 0.24322  0.44370  0.94518  Biso   1.000  H
  C206     1.0000 0.23564  0.12909  0.74168  Biso   1.000  C
  C207     1.0000 0.16346  0.10765  0.85207  Biso   1.000  C
  S15      1.0000 0.09852  0.06523  0.97171  Biso   1.000  S
  C208     1.0000 0.90918  0.11032  0.84753  Biso   1.000  C
  H284     1.0000 0.79432  0.34810  0.98757  Biso   1.000  H
  H285     1.0000 0.81672  0.42321  0.98940  Biso   1.000  H
  H286     1.0000 0.72613  0.40158  0.97248  Biso   1.000  H
  H287     1.0000 0.79655  0.39798  0.99547  Biso   1.000  H
  H288     1.0000 0.79316  0.48968  0.87719  Biso   1.000  H
  H289     1.0000 0.76233  0.46212  0.79151  Biso   1.000  H
  H290     1.0000 0.70227  0.47081  0.84641  Biso   1.000  H
  H291     1.0000 0.76446  0.46662  0.79829  Biso   1.000  H
  H292     1.0000 0.71044  0.33921  0.78019  Biso   1.000  H
  H293     1.0000 0.71974  0.29862  0.85832  Biso   1.000  H
  H294     1.0000 0.65872  0.35748  0.84063  Biso   1.000  H
  H295     1.0000 0.73132  0.29990  0.82300  Biso   1.000  H
  H296     1.0000 0.67535  0.32938  0.87412  Biso   1.000  H
  H297     1.0000 0.79875  0.46578  0.95249  Biso   1.000  H
  H298     1.0000 0.71595  0.43180  0.95160  Biso   1.000  H
  H299     1.0000 0.72627  0.40158  0.75707  Biso   1.000  H
  H300     1.0000 0.68064  0.44242  0.80961  Biso   1.000  H
  H301     1.0000 0.75604  0.29422  0.91522  Biso   1.000  H
  S16      1.0000 0.19783  0.27551  0.17573  Biso   1.000  S
  C209     1.0000 0.28627  0.33960  0.08723  Biso   1.000  C
  C210     1.0000 0.05459  0.39807  0.12284  Biso   1.000  C
  C211     1.0000 0.38761  0.39980  0.02584  Biso   1.000  C
  C212     1.0000 0.23006  0.17472  0.67010  Biso   1.000  C
  C213     1.0000 0.27526  0.19368  0.73142  Biso   1.000  C
  C214     1.0000 0.20105  0.09630  0.66438  Biso   1.000  C
  C215     1.0000 0.31578  0.14119  0.79770  Biso   1.000  C
  C216     1.0000 0.23069  0.05872  0.71072  Biso   1.000  C
  C217     1.0000 0.30038  0.08370  0.79180  Biso   1.000  C
  H302     1.0000 0.20573  0.08000  0.87542  Biso   1.000  H
  C218     1.0000 0.08520  0.12153  0.04607  Biso   1.000  C
  H303     1.0000 0.89124  0.11931  0.79151  Biso   1.000  H
  H304     1.0000 0.93466  0.06721  0.85372  Biso   1.000  H
  C219     1.0000 0.83841  0.10978  0.88373  Biso   1.000  C
  C220     1.0000 0.12794  0.21309  0.13304  Biso   1.000  C
  H305     1.0000 0.32947  0.31719  0.11889  Biso   1.000  H
  C221     1.0000 0.98295  0.38148  0.15339  Biso   1.000  C
  H306     1.0000 0.10178  0.39842  0.16642  Biso   1.000  H
  H307     1.0000 0.04799  0.44212  0.10049  Biso   1.000  H
  C222     1.0000 0.39084  0.44780  0.96080  Biso   1.000  C
  C223     1.0000 0.39283  0.38109  0.94229  Biso   1.000  C
  C224     1.0000 0.43485  0.42790  0.10539  Biso   1.000  C
  C225     1.0000 0.42890  0.33516  0.01081  Biso   1.000  C
  C226     1.0000 0.39970  0.47491  0.03510  Biso   1.000  C
  C227     1.0000 0.45356  0.36538  0.08552  Biso   1.000  C
  H308     1.0000 0.18068  0.16632  0.63212  Biso   1.000  H
  H309     1.0000 0.23147  0.21990  0.68690  Biso   1.000  H
  H310     1.0000 0.27475  0.16632  0.64669  Biso   1.000  H
  H311     1.0000 0.23984  0.21941  0.69180  Biso   1.000  H
  H312     1.0000 0.28662  0.21738  0.78048  Biso   1.000  H
  H313     1.0000 0.32457  0.18548  0.71562  Biso   1.000  H
  H314     1.0000 0.18127  0.05289  0.67157  Biso   1.000  H
  H315     1.0000 0.16507  0.06168  0.67192  Biso   1.000  H
  H316     1.0000 0.17206  0.12820  0.62788  Biso   1.000  H
  H317     1.0000 0.24387  0.07788  0.64391  Biso   1.000  H
  H318     1.0000 0.31443  0.18281  0.82382  Biso   1.000  H
  H319     1.0000 0.32677  0.10652  0.83609  Biso   1.000  H
  H320     1.0000 0.35724  0.14222  0.76881  Biso   1.000  H
  H321     1.0000 0.31314  0.09872  0.84552  Biso   1.000  H
  H322     1.0000 0.23204  0.02849  0.75342  Biso   1.000  H
  H323     1.0000 0.27545  0.05022  0.68761  Biso   1.000  H
  H324     1.0000 0.28024  0.03931  0.78962  Biso   1.000  H
  H325     1.0000 0.34807  0.08479  0.77140  Biso   1.000  H
  C228     1.0000 0.02344  0.10963  0.08369  Biso   1.000  C
  C229     1.0000 0.14000  0.17190  0.07284  Biso   1.000  C
  O42      1.0000 0.82785  0.14775  0.93173  Biso   1.000  O
  O43      1.0000 0.79054  0.06119  0.85431  Biso   1.000  O
  C230     1.0000 0.06494  0.20015  0.16937  Biso   1.000  C
  O44      1.0000 0.93527  0.33442  0.12084  Biso   1.000  O
  O45      1.0000 0.97048  0.41422  0.20716  Biso   1.000  O
  H326     1.0000 0.36625  0.42840  0.91080  Biso   1.000  H
  H327     1.0000 0.36256  0.48751  0.96800  Biso   1.000  H
  H328     1.0000 0.44606  0.45832  0.96222  Biso   1.000  H
  H329     1.0000 0.35933  0.41022  0.90508  Biso   1.000  H
  H330     1.0000 0.44767  0.38489  0.93769  Biso   1.000  H
  H331     1.0000 0.37486  0.33640  0.93149  Biso   1.000  H
  H332     1.0000 0.41130  0.46899  0.11571  Biso   1.000  H
  H333     1.0000 0.43307  0.39709  0.14672  Biso   1.000  H
  H334     1.0000 0.48986  0.43521  0.10321  Biso   1.000  H
  H335     1.0000 0.46319  0.38869  0.13469  Biso   1.000  H
  H336     1.0000 0.40013  0.31610  0.96192  Biso   1.000  H
  H337     1.0000 0.42897  0.30479  0.05303  Biso   1.000  H
  H338     1.0000 0.48342  0.34420  0.00803  Biso   1.000  H
  H339     1.0000 0.35665  0.49728  0.99907  Biso   1.000  H
  H340     1.0000 0.45018  0.48691  0.02372  Biso   1.000  H
  H341     1.0000 0.39967  0.48751  0.08823  Biso   1.000  H
  H342     1.0000 0.43727  0.32099  0.09312  Biso   1.000  H
  H343     1.0000 0.50207  0.36469  0.06659  Biso   1.000  H
  H344     1.0000 0.98769  0.07531  0.06558  Biso   1.000  H
  C231     1.0000 0.01296  0.14681  0.14708  Biso   1.000  C
  O46      1.0000 0.20521  0.18123  0.03964  Biso   1.000  O
  H345     1.0000 0.75542  0.05728  0.87907  Biso   1.000  H
  H346     1.0000 0.05738  0.22780  0.20952  Biso   1.000  H
  H347     1.0000 0.91849  0.29812  0.10002  Biso   1.000  H
  C232     1.0000 0.94494  0.13096  0.18865  Biso   1.000  C
  C233     1.0000 0.27511  0.14780  0.08239  Biso   1.000  C
  C234     1.0000 0.94357  0.17832  0.25563  Biso   1.000  C
  C235     1.0000 0.86510  0.13338  0.12874  Biso   1.000  C
  C236     1.0000 0.95959  0.06133  0.22320  Biso   1.000  C
  C237     1.0000 0.97637  0.13580  0.27781  Biso   1.000  C
  C238     1.0000 0.87876  0.18232  0.16353  Biso   1.000  C
  C239     1.0000 0.90785  0.06291  0.16889  Biso   1.000  C
  H348     1.0000 0.28876  0.16311  0.13664  Biso   1.000  H
  H349     1.0000 0.26489  0.10069  0.08251  Biso   1.000  H
  C240     1.0000 0.34316  0.16138  0.04412  Biso   1.000  C
  H350     1.0000 0.99465  0.17719  0.29290  Biso   1.000  H
  H351     1.0000 0.93328  0.22232  0.23500  Biso   1.000  H
  H352     1.0000 0.90186  0.16548  0.28123  Biso   1.000  H
  H353     1.0000 0.93193  0.13368  0.30281  Biso   1.000  H
  H354     1.0000 0.00439  0.17689  0.29072  Biso   1.000  H
  H355     1.0000 0.84697  0.17832  0.12119  Biso   1.000  H
  H356     1.0000 0.87149  0.11560  0.07944  Biso   1.000  H
  H357     1.0000 0.82600  0.10770  0.14731  Biso   1.000  H
  H358     1.0000 0.85528  0.17778  0.10810  Biso   1.000  H
  H359     1.0000 0.91638  0.04928  0.24720  Biso   1.000  H
  H360     1.0000 0.96176  0.03062  0.18181  Biso   1.000  H
  H361     1.0000 0.94798  0.02958  0.18741  Biso   1.000  H
  H362     1.0000 0.00960  0.06040  0.26212  Biso   1.000  H
  H363     1.0000 0.01256  0.09980  0.29579  Biso   1.000  H
  H364     1.0000 0.90137  0.22568  0.17391  Biso   1.000  H
  H365     1.0000 0.83804  0.17580  0.19260  Biso   1.000  H
  H366     1.0000 0.86398  0.05719  0.19401  Biso   1.000  H
  H367     1.0000 0.88850  0.05881  0.11282  Biso   1.000  H
  O47      1.0000 0.33658  0.18854  0.98291  Biso   1.000  O
  O48      1.0000 0.41153  0.13921  0.08687  Biso   1.000  O
  H368     1.0000 0.44767  0.14701  0.06441  Biso   1.000  H
