data_image0
_cell_length_a       26.125
_cell_length_b       22.632
_cell_length_c       35.143
_cell_angle_alpha    90
_cell_angle_beta     109.35
_cell_angle_gamma    90

_symmetry_space_group_name_H-M    "P 1"
_symmetry_int_tables_number       1

loop_
  _symmetry_equiv_pos_as_xyz
  'x, y, z'

loop_
  _atom_site_label
  _atom_site_occupancy
  _atom_site_fract_x
  _atom_site_fract_y
  _atom_site_fract_z
  _atom_site_thermal_displace_type
  _atom_site_B_iso_or_equiv
  _atom_site_type_symbol
  N1       1.0000 0.60468  0.50650  0.43990  Biso   1.000  N
  C1       1.0000 0.58027  0.55961  0.43640  Biso   1.000  C
  C2       1.0000 0.65536  0.51639  0.43938  Biso   1.000  C
  C3       1.0000 0.52836  0.56871  0.43570  Biso   1.000  C
  C4       1.0000 0.61517  0.60569  0.43380  Biso   1.000  C
  C5       1.0000 0.66375  0.58130  0.43640  Biso   1.000  C
  C6       1.0000 0.69314  0.47252  0.44068  Biso   1.000  C
  C7       1.0000 0.48876  0.52589  0.43411  Biso   1.000  C
  C8       1.0000 0.50506  0.63172  0.43299  Biso   1.000  C
  H1       1.0000 0.60636  0.64661  0.43088  Biso   1.000  H
  H2       1.0000 0.69585  0.60101  0.43619  Biso   1.000  H
  C9       1.0000 0.68636  0.41212  0.43860  Biso   1.000  C
  C10      1.0000 0.74715  0.49549  0.44068  Biso   1.000  C
  N2       1.0000 0.49847  0.46748  0.43709  Biso   1.000  N
  C11      1.0000 0.43106  0.53301  0.42738  Biso   1.000  C
  C12      1.0000 0.49347  0.66331  0.39728  Biso   1.000  C
  C13      1.0000 0.49358  0.65642  0.46520  Biso   1.000  C
  N3       1.0000 0.64139  0.38340  0.43981  Biso   1.000  N
  C14      1.0000 0.72419  0.36908  0.43510  Biso   1.000  C
  C15      1.0000 0.78795  0.51759  0.47578  Biso   1.000  C
  C16      1.0000 0.75787  0.49770  0.40591  Biso   1.000  C
  C17      1.0000 0.45278  0.43761  0.43239  Biso   1.000  C
  H3       1.0000 0.53056  0.45131  0.44158  Biso   1.000  H
  C18      1.0000 0.40857  0.47941  0.42578  Biso   1.000  C
  H4       1.0000 0.41249  0.56968  0.42461  Biso   1.000  H
  H5       1.0000 0.50099  0.64652  0.37490  Biso   1.000  H
  C19      1.0000 0.47017  0.72119  0.39421  Biso   1.000  C
  C20      1.0000 0.46996  0.71240  0.46200  Biso   1.000  C
  H6       1.0000 0.50174  0.63512  0.48978  Biso   1.000  H
  C21      1.0000 0.65076  0.32211  0.43679  Biso   1.000  C
  H7       1.0000 0.61186  0.39979  0.44210  Biso   1.000  H
  C22      1.0000 0.70267  0.31500  0.43450  Biso   1.000  C
  H8       1.0000 0.75898  0.37730  0.43338  Biso   1.000  H
  H9       1.0000 0.78188  0.51639  0.50100  Biso   1.000  H
  C23      1.0000 0.83607  0.54078  0.47401  Biso   1.000  C
  C24      1.0000 0.80736  0.52090  0.40340  Biso   1.000  C
  H10      1.0000 0.73137  0.48321  0.38208  Biso   1.000  H
  C25      1.0000 0.44325  0.37778  0.42940  Biso   1.000  C
  H11      1.0000 0.37147  0.47062  0.42138  Biso   1.000  H
  C26      1.0000 0.46059  0.74289  0.42629  Biso   1.000  C
  C27      1.0000 0.45528  0.75230  0.35470  Biso   1.000  C
  H12      1.0000 0.46075  0.72901  0.48369  Biso   1.000  H
  C28      1.0000 0.61186  0.27890  0.43411  Biso   1.000  C
  H13      1.0000 0.71975  0.27850  0.43278  Biso   1.000  H
  H14      1.0000 0.86335  0.55439  0.49768  Biso   1.000  H
  C29      1.0000 0.84316  0.54361  0.43839  Biso   1.000  C
  C30      1.0000 0.81837  0.52682  0.36480  Biso   1.000  C
  C31      1.0000 0.38799  0.35790  0.42651  Biso   1.000  C
  C32      1.0000 0.48016  0.33360  0.43061  Biso   1.000  C
  H15      1.0000 0.44628  0.78168  0.42461  Biso   1.000  H
  N4       1.0000 0.41647  0.71739  0.32011  Biso   1.000  N
  H16      1.0000 0.48876  0.76060  0.34839  Biso   1.000  H
  H17      1.0000 0.43839  0.79069  0.35699  Biso   1.000  H
  C33      1.0000 0.55806  0.28491  0.43278  Biso   1.000  C
  C34      1.0000 0.63036  0.21801  0.43199  Biso   1.000  C
  H18      1.0000 0.87508  0.56239  0.43700  Biso   1.000  H
  N5       1.0000 0.77408  0.55868  0.33328  Biso   1.000  N
  H19      1.0000 0.82278  0.48701  0.35470  Biso   1.000  H
  H20      1.0000 0.85289  0.54852  0.36969  Biso   1.000  H
  C35      1.0000 0.35226  0.33731  0.39218  Biso   1.000  C
  C36      1.0000 0.37085  0.36678  0.45890  Biso   1.000  C
  N6       1.0000 0.53466  0.34191  0.43420  Biso   1.000  N
  C37      1.0000 0.46886  0.27231  0.42518  Biso   1.000  C
  C38      1.0000 0.37397  0.68880  0.32840  Biso   1.000  C
  C39      1.0000 0.42046  0.71191  0.28388  Biso   1.000  C
  C40      1.0000 0.51749  0.24342  0.42720  Biso   1.000  C
  C41      1.0000 0.66575  0.19101  0.46451  Biso   1.000  C
  C42      1.0000 0.61307  0.18752  0.39568  Biso   1.000  C
  C43      1.0000 0.76568  0.54211  0.29571  Biso   1.000  C
  C44      1.0000 0.74779  0.60578  0.34239  Biso   1.000  C
  C45      1.0000 0.29727  0.32229  0.39059  Biso   1.000  C
  H21      1.0000 0.36278  0.33241  0.36899  Biso   1.000  H
  C46      1.0000 0.31585  0.35322  0.45778  Biso   1.000  C
  H22      1.0000 0.39576  0.38251  0.48308  Biso   1.000  H
  H23      1.0000 0.43468  0.25411  0.42099  Biso   1.000  H
  H24      1.0000 0.37028  0.69181  0.35431  Biso   1.000  H
  C47      1.0000 0.33776  0.65668  0.29869  Biso   1.000  C
  C48      1.0000 0.38398  0.68160  0.25400  Biso   1.000  C
  H25      1.0000 0.45030  0.72998  0.27861  Biso   1.000  H
  H26      1.0000 0.52156  0.20201  0.42500  Biso   1.000  H
  H27      1.0000 0.67847  0.21112  0.48960  Biso   1.000  H
  C49      1.0000 0.68376  0.13300  0.46119  Biso   1.000  C
  C50      1.0000 0.62957  0.13141  0.39071  Biso   1.000  C
  H28      1.0000 0.58817  0.20661  0.37288  Biso   1.000  H
  C51      1.0000 0.72747  0.57171  0.26298  Biso   1.000  C
  H29      1.0000 0.78559  0.50981  0.29049  Biso   1.000  H
  H30      1.0000 0.75627  0.61868  0.36951  Biso   1.000  H
  C52      1.0000 0.70867  0.63450  0.31148  Biso   1.000  C
  C53      1.0000 0.25657  0.29829  0.35219  Biso   1.000  C
  C54      1.0000 0.28117  0.32962  0.42319  Biso   1.000  C
  H31      1.0000 0.30468  0.36051  0.48040  Biso   1.000  H
  H32      1.0000 0.30968  0.63649  0.30491  Biso   1.000  H
  C55      1.0000 0.33989  0.65209  0.26078  Biso   1.000  C
  H33      1.0000 0.38786  0.68010  0.22809  Biso   1.000  H
  H34      1.0000 0.70826  0.11440  0.48429  Biso   1.000  H
  C56      1.0000 0.66648  0.10260  0.42491  Biso   1.000  C
  C57      1.0000 0.61387  0.10118  0.35069  Biso   1.000  C
  C58      1.0000 0.69998  0.62032  0.27309  Biso   1.000  C
  H35      1.0000 0.72057  0.55969  0.23590  Biso   1.000  H
  H36      1.0000 0.68755  0.66481  0.31778  Biso   1.000  H
  N7       1.0000 0.28029  0.27192  0.32210  Biso   1.000  N
  H37      1.0000 0.23456  0.26759  0.35949  Biso   1.000  H
  H38      1.0000 0.23176  0.33068  0.33868  Biso   1.000  H
  H39      1.0000 0.24557  0.31840  0.42189  Biso   1.000  H
  C59      1.0000 0.29998  0.62032  0.22688  Biso   1.000  C
  H40      1.0000 0.67887  0.06372  0.42301  Biso   1.000  H
  N8       1.0000 0.63066  0.13158  0.32119  Biso   1.000  N
  H41      1.0000 0.62988  0.06111  0.35449  Biso   1.000  H
  H42      1.0000 0.57388  0.09681  0.34040  Biso   1.000  H
  C60      1.0000 0.66006  0.65209  0.23919  Biso   1.000  C
  C61      1.0000 0.26556  0.29220  0.28518  Biso   1.000  C
  C62      1.0000 0.31508  0.22671  0.33549  Biso   1.000  C
  C63      1.0000 0.27248  0.57171  0.23699  Biso   1.000  C
  C64      1.0000 0.29129  0.63450  0.18849  Biso   1.000  C
  C65      1.0000 0.68108  0.16079  0.33220  Biso   1.000  C
  C66      1.0000 0.60079  0.13008  0.28431  Biso   1.000  C
  C67      1.0000 0.66220  0.65668  0.20131  Biso   1.000  C
  C68      1.0000 0.61598  0.68160  0.24601  Biso   1.000  C
  C69      1.0000 0.28267  0.26772  0.25538  Biso   1.000  C
  H43      1.0000 0.24207  0.32551  0.27861  Biso   1.000  H
  C70      1.0000 0.33187  0.20131  0.30650  Biso   1.000  C
  H44      1.0000 0.32679  0.21359  0.36278  Biso   1.000  H
  C71      1.0000 0.23429  0.54211  0.20430  Biso   1.000  C
  H45      1.0000 0.27940  0.55969  0.26410  Biso   1.000  H
  C72      1.0000 0.25218  0.60578  0.15761  Biso   1.000  C
  H46      1.0000 0.31240  0.66481  0.18219  Biso   1.000  H
  H47      1.0000 0.70486  0.16132  0.35928  Biso   1.000  H
  C73      1.0000 0.69429  0.18818  0.30240  Biso   1.000  C
  C74      1.0000 0.61279  0.15509  0.25309  Biso   1.000  C
  H48      1.0000 0.56720  0.10971  0.27800  Biso   1.000  H
  C75      1.0000 0.62600  0.68880  0.17160  Biso   1.000  C
  H49      1.0000 0.69029  0.63649  0.19510  Biso   1.000  H
  C76      1.0000 0.57949  0.71191  0.21609  Biso   1.000  C
  H50      1.0000 0.61209  0.68010  0.27188  Biso   1.000  H
  C77      1.0000 0.31757  0.21721  0.26739  Biso   1.000  C
  H51      1.0000 0.27200  0.28318  0.22869  Biso   1.000  H
  H52      1.0000 0.35627  0.16901  0.31471  Biso   1.000  H
  N9       1.0000 0.22587  0.55868  0.16669  Biso   1.000  N
  H53      1.0000 0.21436  0.50981  0.20948  Biso   1.000  H
  H54      1.0000 0.24370  0.61868  0.13050  Biso   1.000  H
  H55      1.0000 0.72746  0.20948  0.30958  Biso   1.000  H
  C78      1.0000 0.66269  0.18699  0.26259  Biso   1.000  C
  H56      1.0000 0.58897  0.15160  0.22610  Biso   1.000  H
  N10      1.0000 0.58349  0.71739  0.17990  Biso   1.000  N
  H57      1.0000 0.62969  0.69181  0.14570  Biso   1.000  H
  H58      1.0000 0.54970  0.72998  0.22140  Biso   1.000  H
  C79      1.0000 0.33728  0.18699  0.23741  Biso   1.000  C
  C80      1.0000 0.18160  0.52682  0.13520  Biso   1.000  C
  C81      1.0000 0.68238  0.21721  0.23258  Biso   1.000  C
  C82      1.0000 0.54469  0.75230  0.14530  Biso   1.000  C
  C83      1.0000 0.30568  0.18818  0.19760  Biso   1.000  C
  C84      1.0000 0.38718  0.15509  0.24691  Biso   1.000  C
  C85      1.0000 0.19261  0.52090  0.09660  Biso   1.000  C
  H59      1.0000 0.17719  0.48701  0.14530  Biso   1.000  H
  H60      1.0000 0.14710  0.54852  0.13029  Biso   1.000  H
  C86      1.0000 0.71728  0.26772  0.24459  Biso   1.000  C
  C87      1.0000 0.66810  0.20131  0.19350  Biso   1.000  C
  C88      1.0000 0.52980  0.72119  0.10580  Biso   1.000  C
  H61      1.0000 0.51121  0.76060  0.15161  Biso   1.000  H
  H62      1.0000 0.56157  0.79069  0.14298  Biso   1.000  H
  C89      1.0000 0.31889  0.16079  0.16780  Biso   1.000  C
  H63      1.0000 0.27250  0.20948  0.19039  Biso   1.000  H
  H64      1.0000 0.41100  0.15160  0.27390  Biso   1.000  H
  C90      1.0000 0.39918  0.13008  0.21570  Biso   1.000  C
  C91      1.0000 0.24209  0.49770  0.09410  Biso   1.000  C
  C92      1.0000 0.15679  0.54361  0.06158  Biso   1.000  C
  C93      1.0000 0.73439  0.29220  0.21479  Biso   1.000  C
  H65      1.0000 0.72797  0.28318  0.27131  Biso   1.000  H
  C94      1.0000 0.68487  0.22671  0.16449  Biso   1.000  C
  H66      1.0000 0.64370  0.16901  0.18530  Biso   1.000  H
  C95      1.0000 0.50648  0.66331  0.10269  Biso   1.000  C
  C96      1.0000 0.53942  0.74289  0.07371  Biso   1.000  C
  N11      1.0000 0.36931  0.13158  0.17881  Biso   1.000  N
  H67      1.0000 0.29509  0.16132  0.14069  Biso   1.000  H
  H68      1.0000 0.43280  0.10971  0.22200  Biso   1.000  H
  C97      1.0000 0.25280  0.49549  0.05929  Biso   1.000  C
  H69      1.0000 0.26858  0.48321  0.11789  Biso   1.000  H
  C98      1.0000 0.16389  0.54078  0.02600  Biso   1.000  C
  H70      1.0000 0.12488  0.56239  0.06300  Biso   1.000  H
  N12      1.0000 0.71968  0.27192  0.17791  Biso   1.000  N
  H71      1.0000 0.75789  0.32551  0.22140  Biso   1.000  H
  H72      1.0000 0.67321  0.21359  0.13719  Biso   1.000  H
  C99      1.0000 0.49490  0.63172  0.06701  Biso   1.000  C
  H73      1.0000 0.49897  0.64652  0.12510  Biso   1.000  H
  C100     1.0000 0.53001  0.71240  0.03800  Biso   1.000  C
  H74      1.0000 0.55368  0.78168  0.07540  Biso   1.000  H
  C101     1.0000 0.38608  0.10118  0.14929  Biso   1.000  C
  C102     1.0000 0.30681  0.47252  0.05929  Biso   1.000  C
  C103     1.0000 0.21201  0.51759  0.02419  Biso   1.000  C
  H75      1.0000 0.13660  0.55439  0.00229  Biso   1.000  H
  C104     1.0000 0.74339  0.29829  0.14781  Biso   1.000  C
  C105     1.0000 0.47161  0.56871  0.06430  Biso   1.000  C
  C106     1.0000 0.50638  0.65642  0.03480  Biso   1.000  C
  H76      1.0000 0.53920  0.72901  0.01629  Biso   1.000  H
  C107     1.0000 0.37040  0.13141  0.10930  Biso   1.000  C
  H77      1.0000 0.37007  0.06111  0.14549  Biso   1.000  H
  H78      1.0000 0.42608  0.09681  0.15960  Biso   1.000  H
  C108     1.0000 0.31361  0.41212  0.06140  Biso   1.000  C
  C109     1.0000 0.34459  0.51639  0.06059  Biso   1.000  C
  H79      1.0000 0.21803  0.51639  0.99897  Biso   1.000  H
  C110     1.0000 0.70269  0.32229  0.10939  Biso   1.000  C
  H80      1.0000 0.76540  0.26759  0.14051  Biso   1.000  H
  H81      1.0000 0.76819  0.33068  0.16129  Biso   1.000  H
  C111     1.0000 0.41970  0.55961  0.06360  Biso   1.000  C
  C112     1.0000 0.51121  0.52589  0.06590  Biso   1.000  C
  H82      1.0000 0.49821  0.63512  0.01019  Biso   1.000  H
  C113     1.0000 0.33349  0.10260  0.07510  Biso   1.000  C
  C114     1.0000 0.38688  0.18752  0.10429  Biso   1.000  C
  N13      1.0000 0.35858  0.38340  0.06020  Biso   1.000  N
  C115     1.0000 0.27578  0.36908  0.06490  Biso   1.000  C
  N14      1.0000 0.39529  0.50650  0.06011  Biso   1.000  N
  C116     1.0000 0.33622  0.58130  0.06360  Biso   1.000  C
  C117     1.0000 0.64770  0.33731  0.10779  Biso   1.000  C
  C118     1.0000 0.71878  0.32962  0.07678  Biso   1.000  C
  C119     1.0000 0.38480  0.60569  0.06620  Biso   1.000  C
  N15      1.0000 0.50149  0.46748  0.06291  Biso   1.000  N
  C120     1.0000 0.56889  0.53301  0.07259  Biso   1.000  C
  C121     1.0000 0.31621  0.13300  0.03881  Biso   1.000  C
  H83      1.0000 0.32109  0.06372  0.07700  Biso   1.000  H
  C122     1.0000 0.36960  0.21801  0.06801  Biso   1.000  C
  H84      1.0000 0.41178  0.20661  0.12709  Biso   1.000  H
  C123     1.0000 0.34921  0.32211  0.06321  Biso   1.000  C
  H85      1.0000 0.38811  0.39979  0.05790  Biso   1.000  H
  C124     1.0000 0.29729  0.31500  0.06550  Biso   1.000  C
  H86      1.0000 0.24101  0.37730  0.06659  Biso   1.000  H
  H87      1.0000 0.30410  0.60101  0.06379  Biso   1.000  H
  C125     1.0000 0.61201  0.35790  0.07350  Biso   1.000  C
  H88      1.0000 0.63719  0.33241  0.13101  Biso   1.000  H
  C126     1.0000 0.68411  0.35322  0.04219  Biso   1.000  C
  H89      1.0000 0.75439  0.31840  0.07811  Biso   1.000  H
  H90      1.0000 0.39359  0.64661  0.06909  Biso   1.000  H
  C127     1.0000 0.54718  0.43761  0.06759  Biso   1.000  C
  H91      1.0000 0.46939  0.45131  0.05839  Biso   1.000  H
  C128     1.0000 0.59138  0.47941  0.07419  Biso   1.000  C
  H92      1.0000 0.58748  0.56968  0.07540  Biso   1.000  H
  C129     1.0000 0.33421  0.19101  0.03550  Biso   1.000  C
  H93      1.0000 0.29171  0.11440  0.01571  Biso   1.000  H
  C130     1.0000 0.38811  0.27890  0.06590  Biso   1.000  C
  H94      1.0000 0.28021  0.27850  0.06719  Biso   1.000  H
  C131     1.0000 0.55671  0.37778  0.07060  Biso   1.000  C
  C132     1.0000 0.62912  0.36678  0.04111  Biso   1.000  C
  H95      1.0000 0.69528  0.36051  0.01960  Biso   1.000  H
  H96      1.0000 0.62848  0.47062  0.07859  Biso   1.000  H
  H97      1.0000 0.32150  0.21112  0.01040  Biso   1.000  H
  C133     1.0000 0.44189  0.28491  0.06719  Biso   1.000  C
  C134     1.0000 0.51981  0.33360  0.06940  Biso   1.000  C
  H98      1.0000 0.60420  0.38251  0.01689  Biso   1.000  H
  N16      1.0000 0.46531  0.34191  0.06581  Biso   1.000  N
  C135     1.0000 0.48248  0.24342  0.07280  Biso   1.000  C
  C136     1.0000 0.53110  0.27231  0.07479  Biso   1.000  C
  H99      1.0000 0.47841  0.20201  0.07500  Biso   1.000  H
  H100     1.0000 0.56527  0.25411  0.07899  Biso   1.000  H
  C137     1.0000 0.62907  0.63322  0.54108  Biso   1.000  C
  C138     1.0000 0.61198  0.64210  0.57350  Biso   1.000  C
  C139     1.0000 0.68407  0.64678  0.54219  Biso   1.000  C
  H101     1.0000 0.60416  0.61749  0.51689  Biso   1.000  H
  C140     1.0000 0.55668  0.62222  0.57060  Biso   1.000  C
  C141     1.0000 0.64766  0.66269  0.60779  Biso   1.000  C
  C142     1.0000 0.71875  0.67038  0.57679  Biso   1.000  C
  H102     1.0000 0.69525  0.63949  0.51961  Biso   1.000  H
  C143     1.0000 0.54714  0.56239  0.56759  Biso   1.000  C
  C144     1.0000 0.51978  0.66640  0.56940  Biso   1.000  C
  H103     1.0000 0.63714  0.66759  0.63098  Biso   1.000  H
  C145     1.0000 0.70265  0.67771  0.60939  Biso   1.000  C
  H104     1.0000 0.75435  0.68160  0.57808  Biso   1.000  H
  N17      1.0000 0.50145  0.53252  0.56288  Biso   1.000  N
  C146     1.0000 0.59135  0.52059  0.57419  Biso   1.000  C
  N18      1.0000 0.46526  0.65809  0.56578  Biso   1.000  N
  C147     1.0000 0.53106  0.72769  0.57480  Biso   1.000  C
  C148     1.0000 0.74334  0.70171  0.64778  Biso   1.000  C
  C149     1.0000 0.51118  0.47411  0.56590  Biso   1.000  C
  H105     1.0000 0.46936  0.54869  0.55839  Biso   1.000  H
  C150     1.0000 0.56886  0.46699  0.57259  Biso   1.000  C
  H106     1.0000 0.62845  0.52938  0.57860  Biso   1.000  H
  C151     1.0000 0.44186  0.71509  0.56720  Biso   1.000  C
  C152     1.0000 0.48247  0.75658  0.57278  Biso   1.000  C
  H107     1.0000 0.56524  0.74589  0.57899  Biso   1.000  H
  N19      1.0000 0.71963  0.72808  0.67788  Biso   1.000  N
  H108     1.0000 0.76536  0.73241  0.64048  Biso   1.000  H
  H109     1.0000 0.76816  0.66932  0.66129  Biso   1.000  H
  C153     1.0000 0.47157  0.43129  0.56430  Biso   1.000  C
  H110     1.0000 0.58745  0.43032  0.57540  Biso   1.000  H
  C154     1.0000 0.38807  0.72110  0.56590  Biso   1.000  C
  H111     1.0000 0.47836  0.79799  0.57498  Biso   1.000  H
  C155     1.0000 0.73436  0.70780  0.71479  Biso   1.000  C
  C156     1.0000 0.68484  0.77329  0.66449  Biso   1.000  C
  C157     1.0000 0.49486  0.36828  0.56698  Biso   1.000  C
  C158     1.0000 0.41965  0.44039  0.56358  Biso   1.000  C
  C159     1.0000 0.34916  0.67789  0.56318  Biso   1.000  C
  C160     1.0000 0.36956  0.78199  0.56798  Biso   1.000  C
  C161     1.0000 0.71725  0.73228  0.74459  Biso   1.000  C
  H112     1.0000 0.75786  0.67449  0.72140  Biso   1.000  H
  H113     1.0000 0.67317  0.78641  0.63719  Biso   1.000  H
  C162     1.0000 0.66807  0.79869  0.69350  Biso   1.000  C
  C163     1.0000 0.50634  0.34358  0.53478  Biso   1.000  C
  C164     1.0000 0.50645  0.33669  0.60269  Biso   1.000  C
  N20      1.0000 0.39524  0.49350  0.56008  Biso   1.000  N
  C165     1.0000 0.38476  0.39431  0.56620  Biso   1.000  C
  N21      1.0000 0.35855  0.61660  0.56020  Biso   1.000  N
  C166     1.0000 0.29725  0.68500  0.56548  Biso   1.000  C
  C167     1.0000 0.33418  0.80899  0.53550  Biso   1.000  C
  C168     1.0000 0.38685  0.81252  0.60429  Biso   1.000  C
  C169     1.0000 0.68235  0.78279  0.73259  Biso   1.000  C
  H114     1.0000 0.72792  0.71682  0.77128  Biso   1.000  H
  H115     1.0000 0.64367  0.83099  0.68530  Biso   1.000  H
  C170     1.0000 0.52998  0.28760  0.53800  Biso   1.000  C
  H116     1.0000 0.49818  0.36488  0.51020  Biso   1.000  H
  H117     1.0000 0.49894  0.35348  0.62510  Biso   1.000  H
  C171     1.0000 0.52976  0.27881  0.60580  Biso   1.000  C
  C172     1.0000 0.34456  0.48361  0.56059  Biso   1.000  C
  H118     1.0000 0.39356  0.35339  0.56910  Biso   1.000  H
  C173     1.0000 0.33617  0.41870  0.56358  Biso   1.000  C
  C174     1.0000 0.31356  0.58788  0.56138  Biso   1.000  C
  H119     1.0000 0.38806  0.60021  0.55788  Biso   1.000  H
  C175     1.0000 0.27575  0.63092  0.56490  Biso   1.000  C
  H120     1.0000 0.28017  0.72150  0.56720  Biso   1.000  H
  H121     1.0000 0.32145  0.78888  0.51038  Biso   1.000  H
  C176     1.0000 0.31616  0.86700  0.53879  Biso   1.000  C
  C177     1.0000 0.37037  0.86859  0.60930  Biso   1.000  C
  H122     1.0000 0.41175  0.79339  0.62709  Biso   1.000  H
  C178     1.0000 0.66265  0.81301  0.76259  Biso   1.000  C
  C179     1.0000 0.53937  0.25711  0.57368  Biso   1.000  C
  H123     1.0000 0.53917  0.27099  0.51629  Biso   1.000  H
  C180     1.0000 0.54464  0.24770  0.64528  Biso   1.000  C
  C181     1.0000 0.30678  0.52748  0.55929  Biso   1.000  C
  H124     1.0000 0.30407  0.39899  0.56379  Biso   1.000  H
  H125     1.0000 0.24098  0.62270  0.56659  Biso   1.000  H
  H126     1.0000 0.29166  0.88560  0.51568  Biso   1.000  H
  C182     1.0000 0.33346  0.89740  0.57510  Biso   1.000  C
  C183     1.0000 0.38605  0.89882  0.64929  Biso   1.000  C
  C184     1.0000 0.69424  0.81182  0.80237  Biso   1.000  C
  C185     1.0000 0.61275  0.84491  0.75309  Biso   1.000  C
  H127     1.0000 0.55365  0.21832  0.57540  Biso   1.000  H
  N22      1.0000 0.58346  0.28261  0.67990  Biso   1.000  N
  H128     1.0000 0.51116  0.23940  0.65158  Biso   1.000  H
  H129     1.0000 0.56153  0.20931  0.64299  Biso   1.000  H
  C186     1.0000 0.25277  0.50451  0.55929  Biso   1.000  C
  H130     1.0000 0.32106  0.93628  0.57700  Biso   1.000  H
  N23      1.0000 0.36926  0.86842  0.67878  Biso   1.000  N
  H131     1.0000 0.37004  0.93889  0.64549  Biso   1.000  H
  H132     1.0000 0.42605  0.90319  0.65960  Biso   1.000  H
  C187     1.0000 0.68103  0.83921  0.83217  Biso   1.000  C
  H133     1.0000 0.72742  0.79052  0.80958  Biso   1.000  H
  H134     1.0000 0.58896  0.84840  0.72607  Biso   1.000  H
  C188     1.0000 0.60074  0.86992  0.78428  Biso   1.000  C
  C189     1.0000 0.62595  0.31120  0.67158  Biso   1.000  C
  C190     1.0000 0.57946  0.28809  0.71609  Biso   1.000  C
  C191     1.0000 0.21197  0.48241  0.52419  Biso   1.000  C
  C192     1.0000 0.24206  0.50230  0.59410  Biso   1.000  C
  C193     1.0000 0.31884  0.83921  0.66778  Biso   1.000  C
  C194     1.0000 0.39915  0.86992  0.71570  Biso   1.000  C
  N24      1.0000 0.63063  0.86842  0.82119  Biso   1.000  N
  H135     1.0000 0.70483  0.83868  0.85928  Biso   1.000  H
  H136     1.0000 0.56715  0.89029  0.77798  Biso   1.000  H
  H137     1.0000 0.62965  0.30819  0.64570  Biso   1.000  H
  C195     1.0000 0.66216  0.34332  0.70128  Biso   1.000  C
  C196     1.0000 0.61594  0.31840  0.74598  Biso   1.000  C
  H138     1.0000 0.54967  0.27002  0.72140  Biso   1.000  H
  H139     1.0000 0.21807  0.48361  0.49898  Biso   1.000  H
  C197     1.0000 0.16386  0.45922  0.52600  Biso   1.000  C
  C198     1.0000 0.19257  0.47910  0.59660  Biso   1.000  C
  H140     1.0000 0.26855  0.51679  0.61789  Biso   1.000  H
  H141     1.0000 0.29506  0.83868  0.64069  Biso   1.000  H
  C199     1.0000 0.30563  0.81182  0.69757  Biso   1.000  C
  C200     1.0000 0.38713  0.84491  0.74688  Biso   1.000  C
  H142     1.0000 0.43277  0.89029  0.72200  Biso   1.000  H
  C201     1.0000 0.61384  0.89882  0.85069  Biso   1.000  C
  H143     1.0000 0.69025  0.36351  0.69510  Biso   1.000  H
  C202     1.0000 0.66003  0.34791  0.73919  Biso   1.000  C
  H144     1.0000 0.61206  0.31990  0.77188  Biso   1.000  H
  H145     1.0000 0.13657  0.44561  0.50229  Biso   1.000  H
  C203     1.0000 0.15676  0.45639  0.56159  Biso   1.000  C
  C204     1.0000 0.18155  0.47318  0.63517  Biso   1.000  C
  H146     1.0000 0.27246  0.79052  0.69039  Biso   1.000  H
  C205     1.0000 0.33723  0.81301  0.73738  Biso   1.000  C
  H147     1.0000 0.41095  0.84840  0.77387  Biso   1.000  H
  C206     1.0000 0.62952  0.86859  0.89068  Biso   1.000  C
  H148     1.0000 0.62985  0.93889  0.85449  Biso   1.000  H
  H149     1.0000 0.57384  0.90319  0.84037  Biso   1.000  H
  C207     1.0000 0.69994  0.37968  0.77309  Biso   1.000  C
  H150     1.0000 0.12485  0.43761  0.56300  Biso   1.000  H
  N25      1.0000 0.22584  0.44132  0.66669  Biso   1.000  N
  H151     1.0000 0.17714  0.51299  0.64528  Biso   1.000  H
  H152     1.0000 0.14707  0.45148  0.63029  Biso   1.000  H
  C208     1.0000 0.31754  0.78279  0.76739  Biso   1.000  C
  C209     1.0000 0.66643  0.89740  0.92488  Biso   1.000  C
  C210     1.0000 0.61304  0.81252  0.89569  Biso   1.000  C
  C211     1.0000 0.72744  0.42829  0.76299  Biso   1.000  C
  C212     1.0000 0.70863  0.36550  0.81148  Biso   1.000  C
  C213     1.0000 0.23426  0.45789  0.70430  Biso   1.000  C
  C214     1.0000 0.25213  0.39422  0.65758  Biso   1.000  C
  C215     1.0000 0.28264  0.73228  0.75539  Biso   1.000  C
  C216     1.0000 0.33182  0.79869  0.80648  Biso   1.000  C
  C217     1.0000 0.68372  0.86700  0.96119  Biso   1.000  C
  H153     1.0000 0.67883  0.93628  0.92298  Biso   1.000  H
  C218     1.0000 0.63033  0.78199  0.93200  Biso   1.000  C
  H154     1.0000 0.58814  0.79339  0.87289  Biso   1.000  H
  H155     1.0000 0.72052  0.44031  0.73587  Biso   1.000  H
  C219     1.0000 0.76563  0.45789  0.79568  Biso   1.000  C
  C220     1.0000 0.74775  0.39422  0.84239  Biso   1.000  C
  H156     1.0000 0.68752  0.33519  0.81779  Biso   1.000  H
  C221     1.0000 0.27245  0.42829  0.73699  Biso   1.000  C
  H157     1.0000 0.21433  0.49019  0.70949  Biso   1.000  H
  H158     1.0000 0.24366  0.38132  0.63050  Biso   1.000  H
  C222     1.0000 0.29125  0.36550  0.68849  Biso   1.000  C
  H159     1.0000 0.27197  0.71682  0.72870  Biso   1.000  H
  C223     1.0000 0.26553  0.70780  0.78518  Biso   1.000  C
  C224     1.0000 0.31505  0.77329  0.83549  Biso   1.000  C
  H160     1.0000 0.35622  0.83099  0.81468  Biso   1.000  H
  C225     1.0000 0.66574  0.80899  0.96448  Biso   1.000  C
  H161     1.0000 0.70822  0.88560  0.98429  Biso   1.000  H
  C226     1.0000 0.61181  0.72110  0.93408  Biso   1.000  C
  N26      1.0000 0.77405  0.44132  0.83329  Biso   1.000  N
  H162     1.0000 0.78556  0.49019  0.79049  Biso   1.000  H
  H163     1.0000 0.75622  0.38132  0.86948  Biso   1.000  H
  C227     1.0000 0.29994  0.37968  0.72689  Biso   1.000  C
  H164     1.0000 0.27935  0.44031  0.76407  Biso   1.000  H
  H165     1.0000 0.31237  0.33519  0.68219  Biso   1.000  H
  N27      1.0000 0.28026  0.72808  0.82210  Biso   1.000  N
  H166     1.0000 0.24203  0.67449  0.77858  Biso   1.000  H
  H167     1.0000 0.32675  0.78641  0.86278  Biso   1.000  H
  H168     1.0000 0.67842  0.78888  0.98957  Biso   1.000  H
  C228     1.0000 0.65073  0.67789  0.93679  Biso   1.000  C
  C229     1.0000 0.55803  0.71509  0.93278  Biso   1.000  C
  C230     1.0000 0.81832  0.47318  0.86477  Biso   1.000  C
  C231     1.0000 0.33986  0.34791  0.76079  Biso   1.000  C
  C232     1.0000 0.25654  0.70171  0.85220  Biso   1.000  C
  N28      1.0000 0.64134  0.61660  0.93978  Biso   1.000  N
  C233     1.0000 0.70263  0.68500  0.93447  Biso   1.000  C
  N29      1.0000 0.53461  0.65809  0.93417  Biso   1.000  N
  C234     1.0000 0.51744  0.75658  0.92717  Biso   1.000  C
  C235     1.0000 0.80731  0.47910  0.90338  Biso   1.000  C
  H169     1.0000 0.82273  0.51299  0.85467  Biso   1.000  H
  H170     1.0000 0.85285  0.45148  0.86969  Biso   1.000  H
  C236     1.0000 0.33773  0.34332  0.79869  Biso   1.000  C
  C237     1.0000 0.38395  0.31840  0.75400  Biso   1.000  C
  H171     1.0000 0.23453  0.73241  0.85949  Biso   1.000  H
  H172     1.0000 0.23173  0.66932  0.83869  Biso   1.000  H
  C238     1.0000 0.29723  0.67771  0.89059  Biso   1.000  C
  C239     1.0000 0.68631  0.58788  0.93857  Biso   1.000  C
  H173     1.0000 0.61181  0.60021  0.94207  Biso   1.000  H
  C240     1.0000 0.72414  0.63092  0.93507  Biso   1.000  C
  H174     1.0000 0.71971  0.72150  0.93278  Biso   1.000  H
  C241     1.0000 0.48015  0.66640  0.93058  Biso   1.000  C
  H175     1.0000 0.52151  0.79799  0.92497  Biso   1.000  H
  C242     1.0000 0.46882  0.72769  0.92518  Biso   1.000  C
  C243     1.0000 0.84313  0.45639  0.93839  Biso   1.000  C
  C244     1.0000 0.75783  0.50230  0.90588  Biso   1.000  C
  C245     1.0000 0.37392  0.31120  0.82837  Biso   1.000  C
  H176     1.0000 0.30963  0.36351  0.80488  Biso   1.000  H
  H177     1.0000 0.38783  0.31990  0.72809  Biso   1.000  H
  C246     1.0000 0.42043  0.28809  0.78389  Biso   1.000  C
  C247     1.0000 0.35222  0.66269  0.89219  Biso   1.000  C
  C248     1.0000 0.28114  0.67038  0.92319  Biso   1.000  C
  C249     1.0000 0.69315  0.52748  0.94068  Biso   1.000  C
  H178     1.0000 0.75895  0.62270  0.93338  Biso   1.000  H
  C250     1.0000 0.44321  0.62222  0.92937  Biso   1.000  C
  H179     1.0000 0.43465  0.74589  0.92099  Biso   1.000  H
  C251     1.0000 0.83603  0.45922  0.97398  Biso   1.000  C
  H180     1.0000 0.87504  0.43761  0.93697  Biso   1.000  H
  C252     1.0000 0.74712  0.50451  0.94068  Biso   1.000  C
  H181     1.0000 0.73134  0.51679  0.88208  Biso   1.000  H
  N30      1.0000 0.41643  0.28261  0.82008  Biso   1.000  N
  H182     1.0000 0.37023  0.30819  0.85428  Biso   1.000  H
  H183     1.0000 0.45026  0.27002  0.77858  Biso   1.000  H
  C253     1.0000 0.38795  0.64210  0.92648  Biso   1.000  C
  H184     1.0000 0.36275  0.66759  0.86899  Biso   1.000  H
  H185     1.0000 0.24554  0.68160  0.92189  Biso   1.000  H
  C254     1.0000 0.31581  0.64678  0.95778  Biso   1.000  C
  C255     1.0000 0.65533  0.48361  0.93939  Biso   1.000  C
  C256     1.0000 0.45274  0.56239  0.93239  Biso   1.000  C
  C257     1.0000 0.78791  0.48241  0.97579  Biso   1.000  C
  H186     1.0000 0.86332  0.44561  0.99768  Biso   1.000  H
  C258     1.0000 0.45523  0.24770  0.85467  Biso   1.000  C
  C259     1.0000 0.37080  0.63322  0.95887  Biso   1.000  C
  H187     1.0000 0.30464  0.63949  0.98037  Biso   1.000  H
  N31      1.0000 0.60463  0.49350  0.93987  Biso   1.000  N
  C260     1.0000 0.66374  0.41870  0.93637  Biso   1.000  C
  N32      1.0000 0.49844  0.53252  0.93709  Biso   1.000  N
  C261     1.0000 0.40854  0.52059  0.92578  Biso   1.000  C
  H188     1.0000 0.78189  0.48361  0.00100  Biso   1.000  H
  C262     1.0000 0.47012  0.27881  0.89418  Biso   1.000  C
  H189     1.0000 0.48872  0.23940  0.84840  Biso   1.000  H
  H190     1.0000 0.43835  0.20931  0.85699  Biso   1.000  H
  H191     1.0000 0.39572  0.61749  0.98309  Biso   1.000  H
  C263     1.0000 0.58022  0.44039  0.93637  Biso   1.000  C
  C264     1.0000 0.61512  0.39431  0.93378  Biso   1.000  C
  H192     1.0000 0.69582  0.39899  0.93619  Biso   1.000  H
  C265     1.0000 0.48871  0.47411  0.93408  Biso   1.000  C
  H193     1.0000 0.53053  0.54869  0.94159  Biso   1.000  H
  C266     1.0000 0.43103  0.46699  0.92738  Biso   1.000  C
  H194     1.0000 0.37144  0.52938  0.92138  Biso   1.000  H
  C267     1.0000 0.49344  0.33669  0.89728  Biso   1.000  C
  C268     1.0000 0.46055  0.25711  0.92630  Biso   1.000  C
  C269     1.0000 0.52831  0.43129  0.93568  Biso   1.000  C
  H195     1.0000 0.60633  0.35339  0.93088  Biso   1.000  H
  H196     1.0000 0.41244  0.43032  0.92458  Biso   1.000  H
  C270     1.0000 0.50503  0.36828  0.93299  Biso   1.000  C
  H197     1.0000 0.50095  0.35348  0.87488  Biso   1.000  H
  H198     1.0000 0.44624  0.21832  0.92458  Biso   1.000  H
  C271     1.0000 0.46991  0.28760  0.96197  Biso   1.000  C
  C272     1.0000 0.49354  0.34358  0.96517  Biso   1.000  C
  H199     1.0000 0.46072  0.27099  0.98369  Biso   1.000  H
  H200     1.0000 0.50171  0.36488  0.98978  Biso   1.000  H
  C273     1.0000 0.81614  0.36700  0.53879  Biso   1.000  C
  C274     1.0000 0.83416  0.30899  0.53550  Biso   1.000  C
  H201     1.0000 0.79165  0.38560  0.51568  Biso   1.000  H
  C275     1.0000 0.83348  0.39740  0.57510  Biso   1.000  C
  C276     1.0000 0.86954  0.28199  0.56798  Biso   1.000  C
  H202     1.0000 0.82147  0.28888  0.51038  Biso   1.000  H
  C277     1.0000 0.87035  0.36859  0.60930  Biso   1.000  C
  H203     1.0000 0.82108  0.43628  0.57700  Biso   1.000  H
  C278     1.0000 0.88806  0.22110  0.56590  Biso   1.000  C
  C279     1.0000 0.88687  0.31252  0.60429  Biso   1.000  C
  C280     1.0000 0.88606  0.39882  0.64929  Biso   1.000  C
  C281     1.0000 0.84914  0.17789  0.56318  Biso   1.000  C
  C282     1.0000 0.94188  0.21509  0.56720  Biso   1.000  C
  H204     1.0000 0.91177  0.29339  0.62709  Biso   1.000  H
  N33      1.0000 0.86924  0.36842  0.67878  Biso   1.000  N
  H205     1.0000 0.87006  0.43889  0.64549  Biso   1.000  H
  H206     1.0000 0.92607  0.40319  0.65960  Biso   1.000  H
  C283     1.0000 0.79726  0.18500  0.56548  Biso   1.000  C
  N34      1.0000 0.85857  0.11660  0.56020  Biso   1.000  N
  N35      1.0000 0.96525  0.15809  0.56578  Biso   1.000  N
  C284     1.0000 0.98245  0.25658  0.57278  Biso   1.000  C
  C285     1.0000 0.81886  0.33921  0.66778  Biso   1.000  C
  C286     1.0000 0.89917  0.36992  0.71570  Biso   1.000  C
  C287     1.0000 0.77576  0.13092  0.56490  Biso   1.000  C
  H207     1.0000 0.78015  0.22150  0.56720  Biso   1.000  H
  C288     1.0000 0.81354  0.08788  0.56138  Biso   1.000  C
  H208     1.0000 0.88804  0.10021  0.55788  Biso   1.000  H
  C289     1.0000 0.01976  0.16640  0.56940  Biso   1.000  C
  H209     1.0000 0.97834  0.29799  0.57498  Biso   1.000  H
  C290     1.0000 0.03104  0.22769  0.57480  Biso   1.000  C
  H210     1.0000 0.79504  0.33868  0.64069  Biso   1.000  H
  C291     1.0000 0.80565  0.31182  0.69757  Biso   1.000  C
  C292     1.0000 0.88715  0.34491  0.74688  Biso   1.000  C
  H211     1.0000 0.93275  0.39029  0.72200  Biso   1.000  H
  H212     1.0000 0.74096  0.12270  0.56659  Biso   1.000  H
  C293     1.0000 0.80676  0.02748  0.55929  Biso   1.000  C
  C294     1.0000 0.05666  0.12222  0.57060  Biso   1.000  C
  H213     1.0000 0.06526  0.24589  0.57899  Biso   1.000  H
  H214     1.0000 0.77244  0.29052  0.69039  Biso   1.000  H
  C295     1.0000 0.83725  0.31301  0.73738  Biso   1.000  C
  H215     1.0000 0.91093  0.34840  0.77387  Biso   1.000  H
  C296     1.0000 0.75275  0.00451  0.55929  Biso   1.000  C
  C297     1.0000 0.84454  0.98361  0.56059  Biso   1.000  C
  C298     1.0000 0.04716  0.06239  0.56759  Biso   1.000  C
  C299     1.0000 0.11196  0.14210  0.57350  Biso   1.000  C
  C300     1.0000 0.81756  0.28279  0.76739  Biso   1.000  C
  C301     1.0000 0.74208  0.00230  0.59410  Biso   1.000  C
  C302     1.0000 0.71195  0.98241  0.52419  Biso   1.000  C
  N36      1.0000 0.89526  0.99350  0.56008  Biso   1.000  N
  C303     1.0000 0.83615  0.91870  0.56358  Biso   1.000  C
  N37      1.0000 0.00147  0.03252  0.56288  Biso   1.000  N
  C304     1.0000 0.09137  0.02059  0.57419  Biso   1.000  C
  C305     1.0000 0.14765  0.16269  0.60779  Biso   1.000  C
  C306     1.0000 0.12905  0.13322  0.54108  Biso   1.000  C
  C307     1.0000 0.78266  0.23228  0.75539  Biso   1.000  C
  C308     1.0000 0.83184  0.29869  0.80648  Biso   1.000  C
  H216     1.0000 0.76857  0.01679  0.61789  Biso   1.000  H
  C309     1.0000 0.69255  0.97910  0.59660  Biso   1.000  C
  H217     1.0000 0.71806  0.98361  0.49898  Biso   1.000  H
  C310     1.0000 0.66388  0.95922  0.52600  Biso   1.000  C
  C311     1.0000 0.91967  0.94039  0.56358  Biso   1.000  C
  C312     1.0000 0.88474  0.89431  0.56620  Biso   1.000  C
  H218     1.0000 0.80405  0.89899  0.56379  Biso   1.000  H
  C313     1.0000 0.01116  0.97411  0.56590  Biso   1.000  C
  H219     1.0000 0.96934  0.04869  0.55839  Biso   1.000  H
  C314     1.0000 0.06888  0.96699  0.57259  Biso   1.000  C
  H220     1.0000 0.12847  0.02938  0.57860  Biso   1.000  H
  H221     1.0000 0.13716  0.16759  0.63098  Biso   1.000  H
  C315     1.0000 0.20264  0.17771  0.60939  Biso   1.000  C
  C316     1.0000 0.18405  0.14678  0.54219  Biso   1.000  C
  H222     1.0000 0.10415  0.11749  0.51689  Biso   1.000  H
  H223     1.0000 0.77195  0.21682  0.72870  Biso   1.000  H
  C317     1.0000 0.76554  0.20780  0.78518  Biso   1.000  C
  C318     1.0000 0.81503  0.27329  0.83549  Biso   1.000  C
  H224     1.0000 0.85624  0.33099  0.81468  Biso   1.000  H
  C319     1.0000 0.65677  0.95639  0.56159  Biso   1.000  C
  C320     1.0000 0.68153  0.97318  0.63517  Biso   1.000  C
  H225     1.0000 0.63655  0.94561  0.50229  Biso   1.000  H
  C321     1.0000 0.97155  0.93129  0.56430  Biso   1.000  C
  H226     1.0000 0.89358  0.85339  0.56910  Biso   1.000  H
  H227     1.0000 0.08747  0.93032  0.57540  Biso   1.000  H
  C322     1.0000 0.24336  0.20171  0.64778  Biso   1.000  C
  C323     1.0000 0.21876  0.17038  0.57679  Biso   1.000  C
  H228     1.0000 0.19527  0.13949  0.51961  Biso   1.000  H
  N38      1.0000 0.78024  0.22808  0.82210  Biso   1.000  N
  H229     1.0000 0.74205  0.17449  0.77858  Biso   1.000  H
  H230     1.0000 0.82673  0.28641  0.86278  Biso   1.000  H
  H231     1.0000 0.62487  0.93761  0.56300  Biso   1.000  H
  H232     1.0000 0.67716  0.01299  0.64528  Biso   1.000  H
  N39      1.0000 0.72586  0.94132  0.66669  Biso   1.000  N
  H233     1.0000 0.64705  0.95148  0.63029  Biso   1.000  H
  C324     1.0000 0.99487  0.86828  0.56698  Biso   1.000  C
  N40      1.0000 0.21965  0.22808  0.67788  Biso   1.000  N
  H234     1.0000 0.26534  0.23241  0.64048  Biso   1.000  H
  H235     1.0000 0.26814  0.16932  0.66129  Biso   1.000  H
  H236     1.0000 0.25437  0.18160  0.57808  Biso   1.000  H
  C325     1.0000 0.75656  0.20171  0.85220  Biso   1.000  C
  C326     1.0000 0.73424  0.95789  0.70430  Biso   1.000  C
  C327     1.0000 0.75215  0.89422  0.65758  Biso   1.000  C
  C328     1.0000 0.00646  0.83669  0.60269  Biso   1.000  C
  C329     1.0000 0.00636  0.84358  0.53478  Biso   1.000  C
  C330     1.0000 0.23434  0.20780  0.71479  Biso   1.000  C
  C331     1.0000 0.18486  0.27329  0.66449  Biso   1.000  C
  H237     1.0000 0.73455  0.23241  0.85949  Biso   1.000  H
  H238     1.0000 0.73174  0.16932  0.83869  Biso   1.000  H
  C332     1.0000 0.79725  0.17771  0.89059  Biso   1.000  C
  C333     1.0000 0.77247  0.92829  0.73699  Biso   1.000  C
  H239     1.0000 0.71435  0.99019  0.70949  Biso   1.000  H
  H240     1.0000 0.74364  0.88132  0.63050  Biso   1.000  H
  C334     1.0000 0.79123  0.86550  0.68849  Biso   1.000  C
  H241     1.0000 0.99896  0.85348  0.62510  Biso   1.000  H
  C335     1.0000 0.02974  0.77881  0.60580  Biso   1.000  C
  H242     1.0000 0.99816  0.86488  0.51020  Biso   1.000  H
  C336     1.0000 0.02996  0.78760  0.53800  Biso   1.000  C
  C337     1.0000 0.21723  0.23228  0.74459  Biso   1.000  C
  H243     1.0000 0.25784  0.17449  0.72140  Biso   1.000  H
  H244     1.0000 0.17315  0.28641  0.63719  Biso   1.000  H
  C338     1.0000 0.16805  0.29869  0.69350  Biso   1.000  C
  C339     1.0000 0.85224  0.16269  0.89219  Biso   1.000  C
  C340     1.0000 0.78112  0.17038  0.92319  Biso   1.000  C
  C341     1.0000 0.79996  0.87968  0.72689  Biso   1.000  C
  H245     1.0000 0.77933  0.94031  0.76407  Biso   1.000  H
  H246     1.0000 0.81235  0.83519  0.68219  Biso   1.000  H
  C342     1.0000 0.03935  0.75711  0.57368  Biso   1.000  C
  C343     1.0000 0.04466  0.74770  0.64528  Biso   1.000  C
  H247     1.0000 0.03915  0.77099  0.51629  Biso   1.000  H
  C344     1.0000 0.18233  0.28279  0.73259  Biso   1.000  C
  H248     1.0000 0.22794  0.21682  0.77128  Biso   1.000  H
  H249     1.0000 0.14365  0.33099  0.68530  Biso   1.000  H
  C345     1.0000 0.88793  0.14210  0.92648  Biso   1.000  C
  H250     1.0000 0.86273  0.16759  0.86899  Biso   1.000  H
  H251     1.0000 0.74552  0.18160  0.92189  Biso   1.000  H
  C346     1.0000 0.81583  0.14678  0.95778  Biso   1.000  C
  C347     1.0000 0.83984  0.84791  0.76079  Biso   1.000  C
  H252     1.0000 0.05367  0.71832  0.57540  Biso   1.000  H
  N41      1.0000 0.08344  0.78261  0.67990  Biso   1.000  N
  H253     1.0000 0.01114  0.73940  0.65158  Biso   1.000  H
  H254     1.0000 0.06155  0.70931  0.64299  Biso   1.000  H
  C348     1.0000 0.16263  0.31301  0.76259  Biso   1.000  C
  C349     1.0000 0.94323  0.12222  0.92937  Biso   1.000  C
  C350     1.0000 0.87082  0.13322  0.95887  Biso   1.000  C
  H255     1.0000 0.80462  0.13949  0.98037  Biso   1.000  H
  C351     1.0000 0.83775  0.84332  0.79869  Biso   1.000  C
  C352     1.0000 0.88393  0.81840  0.75400  Biso   1.000  C
  C353     1.0000 0.12593  0.81120  0.67158  Biso   1.000  C
  C354     1.0000 0.07944  0.78809  0.71609  Biso   1.000  C
  C355     1.0000 0.19422  0.31182  0.80237  Biso   1.000  C
  C356     1.0000 0.11273  0.34491  0.75309  Biso   1.000  C
  C357     1.0000 0.98013  0.16640  0.93058  Biso   1.000  C
  C358     1.0000 0.95272  0.06239  0.93239  Biso   1.000  C
  H256     1.0000 0.89574  0.11749  0.98309  Biso   1.000  H
  C359     1.0000 0.87394  0.81120  0.82837  Biso   1.000  C
  H257     1.0000 0.80965  0.86351  0.80488  Biso   1.000  H
  H258     1.0000 0.88785  0.81990  0.72809  Biso   1.000  H
  C360     1.0000 0.92045  0.78809  0.78389  Biso   1.000  C
  H259     1.0000 0.12967  0.80819  0.64570  Biso   1.000  H
  C361     1.0000 0.16214  0.84332  0.70128  Biso   1.000  C
  C362     1.0000 0.11595  0.81840  0.74598  Biso   1.000  C
  H260     1.0000 0.04965  0.77002  0.72140  Biso   1.000  H
  C363     1.0000 0.18101  0.33921  0.83217  Biso   1.000  C
  H261     1.0000 0.22744  0.29052  0.80958  Biso   1.000  H
  H262     1.0000 0.08894  0.34840  0.72607  Biso   1.000  H
  C364     1.0000 0.10072  0.36992  0.78428  Biso   1.000  C
  C365     1.0000 0.96884  0.22769  0.92518  Biso   1.000  C
  N42      1.0000 0.03463  0.15809  0.93417  Biso   1.000  N
  N43      1.0000 0.99842  0.03252  0.93709  Biso   1.000  N
  C366     1.0000 0.90852  0.02059  0.92578  Biso   1.000  C
  N44      1.0000 0.91645  0.78261  0.82008  Biso   1.000  N
  H263     1.0000 0.87022  0.80819  0.85428  Biso   1.000  H
  H264     1.0000 0.95024  0.77002  0.77858  Biso   1.000  H
  H265     1.0000 0.19023  0.86351  0.69510  Biso   1.000  H
  C367     1.0000 0.16005  0.84791  0.73919  Biso   1.000  C
  H266     1.0000 0.11204  0.81990  0.77188  Biso   1.000  H
  N45      1.0000 0.13065  0.36842  0.82119  Biso   1.000  N
  H267     1.0000 0.20485  0.33868  0.85928  Biso   1.000  H
  H268     1.0000 0.06714  0.39029  0.77798  Biso   1.000  H
  H269     1.0000 0.93463  0.24589  0.92099  Biso   1.000  H
  C368     1.0000 0.01742  0.25658  0.92717  Biso   1.000  C
  C369     1.0000 0.05805  0.21509  0.93278  Biso   1.000  C
  C370     1.0000 0.98873  0.97411  0.93408  Biso   1.000  C
  H270     1.0000 0.03055  0.04869  0.94159  Biso   1.000  H
  C371     1.0000 0.93105  0.96699  0.92738  Biso   1.000  C
  H271     1.0000 0.87142  0.02938  0.92138  Biso   1.000  H
  C372     1.0000 0.95521  0.74770  0.85467  Biso   1.000  C
  C373     1.0000 0.19996  0.87968  0.77309  Biso   1.000  C
  C374     1.0000 0.11382  0.39882  0.85069  Biso   1.000  C
  H272     1.0000 0.02153  0.29799  0.92497  Biso   1.000  H
  C375     1.0000 0.11183  0.22110  0.93408  Biso   1.000  C
  C376     1.0000 0.02833  0.93129  0.93568  Biso   1.000  C
  H273     1.0000 0.91242  0.93032  0.92458  Biso   1.000  H
  C377     1.0000 0.97014  0.77881  0.89418  Biso   1.000  C
  H274     1.0000 0.98874  0.73940  0.84840  Biso   1.000  H
  H275     1.0000 0.93833  0.70931  0.85699  Biso   1.000  H
  C378     1.0000 0.22746  0.92829  0.76299  Biso   1.000  C
  C379     1.0000 0.20865  0.86550  0.81148  Biso   1.000  C
  C380     1.0000 0.12954  0.36859  0.89068  Biso   1.000  C
  H276     1.0000 0.12983  0.43889  0.85449  Biso   1.000  H
  H277     1.0000 0.07382  0.40319  0.84037  Biso   1.000  H
  C381     1.0000 0.13035  0.28199  0.93200  Biso   1.000  C
  C382     1.0000 0.15074  0.17789  0.93679  Biso   1.000  C
  C383     1.0000 0.00505  0.86828  0.93299  Biso   1.000  C
  C384     1.0000 0.08024  0.94039  0.93637  Biso   1.000  C
  C385     1.0000 0.99342  0.83669  0.89728  Biso   1.000  C
  C386     1.0000 0.96054  0.75711  0.92630  Biso   1.000  C
  H278     1.0000 0.22054  0.94031  0.73587  Biso   1.000  H
  C387     1.0000 0.26565  0.95789  0.79568  Biso   1.000  C
  C388     1.0000 0.24773  0.89422  0.84239  Biso   1.000  C
  H279     1.0000 0.18754  0.83519  0.81779  Biso   1.000  H
  C389     1.0000 0.16641  0.39740  0.92488  Biso   1.000  C
  C390     1.0000 0.11302  0.31252  0.89569  Biso   1.000  C
  C391     1.0000 0.16573  0.30899  0.96448  Biso   1.000  C
  N46      1.0000 0.14132  0.11660  0.93978  Biso   1.000  N
  C392     1.0000 0.20261  0.18500  0.93447  Biso   1.000  C
  C393     1.0000 0.99352  0.84358  0.96517  Biso   1.000  C
  N47      1.0000 0.10461  0.99350  0.93987  Biso   1.000  N
  C394     1.0000 0.11514  0.89431  0.93378  Biso   1.000  C
  H280     1.0000 0.00093  0.85348  0.87488  Biso   1.000  H
  H281     1.0000 0.94622  0.71832  0.92458  Biso   1.000  H
  C395     1.0000 0.96993  0.78760  0.96197  Biso   1.000  C
  N48      1.0000 0.27403  0.94132  0.83329  Biso   1.000  N
  H282     1.0000 0.28554  0.99019  0.79049  Biso   1.000  H
  H283     1.0000 0.25624  0.88132  0.86948  Biso   1.000  H
  C396     1.0000 0.18374  0.36700  0.96119  Biso   1.000  C
  H284     1.0000 0.17885  0.43628  0.92298  Biso   1.000  H
  H285     1.0000 0.08812  0.29339  0.87289  Biso   1.000  H
  H286     1.0000 0.17840  0.28888  0.98957  Biso   1.000  H
  C397     1.0000 0.18633  0.08788  0.93857  Biso   1.000  C
  H287     1.0000 0.11183  0.10021  0.94207  Biso   1.000  H
  C398     1.0000 0.22412  0.13092  0.93507  Biso   1.000  C
  H288     1.0000 0.21973  0.22150  0.93278  Biso   1.000  H
  H289     1.0000 0.00173  0.86488  0.98978  Biso   1.000  H
  C399     1.0000 0.15535  0.98361  0.93939  Biso   1.000  C
  H290     1.0000 0.10631  0.85339  0.93088  Biso   1.000  H
  C400     1.0000 0.16372  0.91870  0.93637  Biso   1.000  C
  H291     1.0000 0.96074  0.77099  0.98369  Biso   1.000  H
  C401     1.0000 0.31834  0.97318  0.86477  Biso   1.000  C
  H292     1.0000 0.20824  0.38560  0.98429  Biso   1.000  H
  C402     1.0000 0.19313  0.02748  0.94068  Biso   1.000  C
  H293     1.0000 0.25893  0.12270  0.93338  Biso   1.000  H
  H294     1.0000 0.19583  0.89899  0.93619  Biso   1.000  H
  C403     1.0000 0.30733  0.97910  0.90338  Biso   1.000  C
  H295     1.0000 0.35284  0.95148  0.86969  Biso   1.000  H
  H296     1.0000 0.32272  0.01299  0.85467  Biso   1.000  H
  C404     1.0000 0.24714  0.00451  0.94068  Biso   1.000  C
  C405     1.0000 0.34315  0.95639  0.93839  Biso   1.000  C
  C406     1.0000 0.25785  0.00230  0.90588  Biso   1.000  C
  C407     1.0000 0.28793  0.98241  0.97579  Biso   1.000  C
  C408     1.0000 0.33601  0.95922  0.97398  Biso   1.000  C
  H297     1.0000 0.37502  0.93761  0.93697  Biso   1.000  H
  H298     1.0000 0.23132  0.01679  0.88208  Biso   1.000  H
  H299     1.0000 0.28191  0.98361  0.00100  Biso   1.000  H
  H300     1.0000 0.36334  0.94561  0.99768  Biso   1.000  H
  C409     1.0000 0.78116  0.82962  0.42319  Biso   1.000  C
  C410     1.0000 0.79728  0.82229  0.39059  Biso   1.000  C
  H301     1.0000 0.74555  0.81840  0.42189  Biso   1.000  H
  C411     1.0000 0.81587  0.85322  0.45778  Biso   1.000  C
  C412     1.0000 0.75656  0.79829  0.35219  Biso   1.000  C
  C413     1.0000 0.85227  0.83731  0.39218  Biso   1.000  C
  C414     1.0000 0.87087  0.86678  0.45890  Biso   1.000  C
  H302     1.0000 0.80466  0.86051  0.48040  Biso   1.000  H
  N49      1.0000 0.78027  0.77192  0.32210  Biso   1.000  N
  H303     1.0000 0.73458  0.76759  0.35949  Biso   1.000  H
  H304     1.0000 0.73178  0.83068  0.33868  Biso   1.000  H
  C415     1.0000 0.88797  0.85790  0.42651  Biso   1.000  C
  H305     1.0000 0.86276  0.83241  0.36899  Biso   1.000  H
  H306     1.0000 0.89577  0.88251  0.48308  Biso   1.000  H
  C416     1.0000 0.76558  0.79220  0.28518  Biso   1.000  C
  C417     1.0000 0.81506  0.72671  0.33549  Biso   1.000  C
  C418     1.0000 0.94327  0.87778  0.42940  Biso   1.000  C
  C419     1.0000 0.78269  0.76772  0.25538  Biso   1.000  C
  H307     1.0000 0.74209  0.82551  0.27861  Biso   1.000  H
  H308     1.0000 0.82677  0.71359  0.36278  Biso   1.000  H
  C420     1.0000 0.83188  0.70131  0.30650  Biso   1.000  C
  C421     1.0000 0.98018  0.83360  0.43061  Biso   1.000  C
  C422     1.0000 0.95276  0.93761  0.43239  Biso   1.000  C
  C423     1.0000 0.81759  0.71721  0.26739  Biso   1.000  C
  H309     1.0000 0.77198  0.78318  0.22869  Biso   1.000  H
  H310     1.0000 0.85629  0.66901  0.31471  Biso   1.000  H
  C424     1.0000 0.96888  0.77231  0.42518  Biso   1.000  C
  N50      1.0000 0.03467  0.84191  0.43420  Biso   1.000  N
  N51      1.0000 0.99845  0.96748  0.43709  Biso   1.000  N
  C425     1.0000 0.90855  0.97941  0.42578  Biso   1.000  C
  C426     1.0000 0.83730  0.68699  0.23741  Biso   1.000  C
  H311     1.0000 0.93466  0.75411  0.42099  Biso   1.000  H
  C427     1.0000 0.01747  0.74342  0.42720  Biso   1.000  C
  C428     1.0000 0.05804  0.78491  0.43278  Biso   1.000  C
  C429     1.0000 0.98878  0.02589  0.43411  Biso   1.000  C
  H312     1.0000 0.03058  0.95131  0.44158  Biso   1.000  H
  H313     1.0000 0.87145  0.97062  0.42138  Biso   1.000  H
  C430     1.0000 0.93108  0.03301  0.42738  Biso   1.000  C
  C431     1.0000 0.80570  0.68818  0.19760  Biso   1.000  C
  C432     1.0000 0.88720  0.65509  0.24691  Biso   1.000  C
  H314     1.0000 0.02158  0.70201  0.42500  Biso   1.000  H
  C433     1.0000 0.11188  0.77890  0.43411  Biso   1.000  C
  C434     1.0000 0.02838  0.06871  0.43570  Biso   1.000  C
  H315     1.0000 0.91247  0.06968  0.42461  Biso   1.000  H
  C435     1.0000 0.81891  0.66079  0.16780  Biso   1.000  C
  H316     1.0000 0.77248  0.70948  0.19039  Biso   1.000  H
  H317     1.0000 0.91098  0.65160  0.27390  Biso   1.000  H
  C436     1.0000 0.89920  0.63008  0.21570  Biso   1.000  C
  C437     1.0000 0.15078  0.82211  0.43679  Biso   1.000  C
  C438     1.0000 0.13038  0.71801  0.43199  Biso   1.000  C
  C439     1.0000 0.08029  0.05961  0.43640  Biso   1.000  C
  C440     1.0000 0.00508  0.13172  0.43299  Biso   1.000  C
  N52      1.0000 0.86929  0.63158  0.17881  Biso   1.000  N
  H318     1.0000 0.79507  0.66132  0.14069  Biso   1.000  H
  H319     1.0000 0.93278  0.60971  0.22200  Biso   1.000  H
  N53      1.0000 0.14137  0.88340  0.43981  Biso   1.000  N
  C441     1.0000 0.20266  0.81500  0.43450  Biso   1.000  C
  C442     1.0000 0.16577  0.69101  0.46451  Biso   1.000  C
  C443     1.0000 0.11305  0.68752  0.39568  Biso   1.000  C
  N54      1.0000 0.10466  0.00650  0.43990  Biso   1.000  N
  C444     1.0000 0.11519  0.10569  0.43380  Biso   1.000  C
  C445     1.0000 0.99346  0.16331  0.39728  Biso   1.000  C
  C446     1.0000 0.99356  0.15642  0.46520  Biso   1.000  C
  C447     1.0000 0.88610  0.60118  0.14929  Biso   1.000  C
  H320     1.0000 0.11188  0.89979  0.44210  Biso   1.000  H
  C448     1.0000 0.18638  0.91212  0.43860  Biso   1.000  C
  C449     1.0000 0.22417  0.86908  0.43510  Biso   1.000  C
  H321     1.0000 0.21977  0.77850  0.43278  Biso   1.000  H
  H322     1.0000 0.17845  0.71112  0.48960  Biso   1.000  H
  C450     1.0000 0.18378  0.63300  0.46119  Biso   1.000  C
  C451     1.0000 0.12959  0.63141  0.39071  Biso   1.000  C
  H323     1.0000 0.08815  0.70661  0.37288  Biso   1.000  H
  C452     1.0000 0.15538  0.01639  0.43938  Biso   1.000  C
  H324     1.0000 0.10634  0.14661  0.43088  Biso   1.000  H
  C453     1.0000 0.16377  0.08130  0.43640  Biso   1.000  C
  C454     1.0000 0.97019  0.22119  0.39421  Biso   1.000  C
  H325     1.0000 0.00097  0.14652  0.37490  Biso   1.000  H
  C455     1.0000 0.96998  0.21240  0.46200  Biso   1.000  C
  H326     1.0000 0.00176  0.13512  0.48978  Biso   1.000  H
  C456     1.0000 0.87038  0.63141  0.10930  Biso   1.000  C
  H327     1.0000 0.87009  0.56111  0.14549  Biso   1.000  H
  H328     1.0000 0.92610  0.59681  0.15960  Biso   1.000  H
  C457     1.0000 0.19316  0.97252  0.44068  Biso   1.000  C
  H329     1.0000 0.25896  0.87730  0.43338  Biso   1.000  H
  H330     1.0000 0.20827  0.61440  0.48429  Biso   1.000  H
  C458     1.0000 0.16646  0.60260  0.42491  Biso   1.000  C
  C459     1.0000 0.11386  0.60118  0.35069  Biso   1.000  C
  H331     1.0000 0.19587  0.10101  0.43619  Biso   1.000  H
  C460     1.0000 0.96057  0.24289  0.42629  Biso   1.000  C
  C461     1.0000 0.95526  0.25230  0.35470  Biso   1.000  C
  H332     1.0000 0.96077  0.22901  0.48369  Biso   1.000  H
  C462     1.0000 0.83351  0.60260  0.07510  Biso   1.000  C
  C463     1.0000 0.88690  0.68752  0.10429  Biso   1.000  C
  C464     1.0000 0.24717  0.99549  0.44068  Biso   1.000  C
  H333     1.0000 0.17889  0.56372  0.42301  Biso   1.000  H
  N55      1.0000 0.13068  0.63158  0.32119  Biso   1.000  N
  H334     1.0000 0.12986  0.56111  0.35449  Biso   1.000  H
  H335     1.0000 0.07386  0.59681  0.34040  Biso   1.000  H
  H336     1.0000 0.94627  0.28168  0.42461  Biso   1.000  H
  N56      1.0000 0.91649  0.21739  0.32011  Biso   1.000  N
  H337     1.0000 0.98878  0.26060  0.34839  Biso   1.000  H
  H338     1.0000 0.93837  0.29069  0.35699  Biso   1.000  H
  C465     1.0000 0.81619  0.63300  0.03881  Biso   1.000  C
  H339     1.0000 0.82107  0.56372  0.07700  Biso   1.000  H
  C466     1.0000 0.86958  0.71801  0.06801  Biso   1.000  C
  H340     1.0000 0.91180  0.70661  0.12709  Biso   1.000  H
  C467     1.0000 0.25789  0.99770  0.40591  Biso   1.000  C
  C468     1.0000 0.28797  0.01759  0.47578  Biso   1.000  C
  C469     1.0000 0.18106  0.66079  0.33220  Biso   1.000  C
  C470     1.0000 0.10077  0.63008  0.28431  Biso   1.000  C
  C471     1.0000 0.87399  0.18880  0.32840  Biso   1.000  C
  C472     1.0000 0.92048  0.21191  0.28388  Biso   1.000  C
  C473     1.0000 0.83419  0.69101  0.03550  Biso   1.000  C
  H341     1.0000 0.79169  0.61440  0.01571  Biso   1.000  H
  C474     1.0000 0.88809  0.77890  0.06590  Biso   1.000  C
  H342     1.0000 0.23135  0.98321  0.38208  Biso   1.000  H
  C475     1.0000 0.30738  0.02090  0.40340  Biso   1.000  C
  H343     1.0000 0.28186  0.01639  0.50100  Biso   1.000  H
  C476     1.0000 0.33605  0.04078  0.47401  Biso   1.000  C
  H344     1.0000 0.20488  0.66132  0.35928  Biso   1.000  H
  C477     1.0000 0.19427  0.68818  0.30240  Biso   1.000  C
  C478     1.0000 0.11277  0.65509  0.25309  Biso   1.000  C
  H345     1.0000 0.06718  0.60971  0.27800  Biso   1.000  H
  H346     1.0000 0.87026  0.19181  0.35431  Biso   1.000  H
  C479     1.0000 0.83778  0.15668  0.29869  Biso   1.000  C
  C480     1.0000 0.88397  0.18160  0.25400  Biso   1.000  C
  H347     1.0000 0.95028  0.22998  0.27861  Biso   1.000  H
  H348     1.0000 0.82152  0.71112  0.01040  Biso   1.000  H
  C481     1.0000 0.84919  0.82211  0.06321  Biso   1.000  C
  C482     1.0000 0.94191  0.78491  0.06719  Biso   1.000  C
  C483     1.0000 0.34318  0.04361  0.43839  Biso   1.000  C
  C484     1.0000 0.31839  0.02682  0.36480  Biso   1.000  C
  H349     1.0000 0.36337  0.05439  0.49768  Biso   1.000  H
  H350     1.0000 0.22748  0.70948  0.30958  Biso   1.000  H
  C485     1.0000 0.16267  0.68699  0.26259  Biso   1.000  C
  H351     1.0000 0.08899  0.65160  0.22610  Biso   1.000  H
  H352     1.0000 0.80970  0.13649  0.30491  Biso   1.000  H
  C486     1.0000 0.83987  0.15209  0.26078  Biso   1.000  C
  H353     1.0000 0.88788  0.18010  0.22809  Biso   1.000  H
  N57      1.0000 0.85860  0.88340  0.06020  Biso   1.000  N
  C487     1.0000 0.79731  0.81500  0.06550  Biso   1.000  C
  N58      1.0000 0.96529  0.84191  0.06581  Biso   1.000  N
  C488     1.0000 0.98250  0.74342  0.07280  Biso   1.000  C
  H354     1.0000 0.37506  0.06239  0.43700  Biso   1.000  H
  H355     1.0000 0.32276  0.98701  0.35470  Biso   1.000  H
  N59      1.0000 0.27406  0.05868  0.33328  Biso   1.000  N
  H356     1.0000 0.35287  0.04852  0.36969  Biso   1.000  H
  C489     1.0000 0.18236  0.71721  0.23258  Biso   1.000  C
  C490     1.0000 0.80000  0.12032  0.22688  Biso   1.000  C
  H357     1.0000 0.88809  0.89979  0.05790  Biso   1.000  H
  C491     1.0000 0.81359  0.91212  0.06140  Biso   1.000  C
  C492     1.0000 0.77580  0.86908  0.06490  Biso   1.000  C
  H358     1.0000 0.78019  0.77850  0.06719  Biso   1.000  H
  C493     1.0000 0.01979  0.83360  0.06940  Biso   1.000  C
  H359     1.0000 0.97839  0.70201  0.07500  Biso   1.000  H
  C494     1.0000 0.03108  0.77231  0.07479  Biso   1.000  C
  C495     1.0000 0.26569  0.04211  0.29571  Biso   1.000  C
  C496     1.0000 0.24777  0.10578  0.34239  Biso   1.000  C
  C497     1.0000 0.21726  0.76772  0.24459  Biso   1.000  C
  C498     1.0000 0.16808  0.70131  0.19350  Biso   1.000  C
  C499     1.0000 0.77246  0.07171  0.23699  Biso   1.000  C
  C500     1.0000 0.79127  0.13450  0.18849  Biso   1.000  C
  C501     1.0000 0.80679  0.97252  0.05929  Biso   1.000  C
  H360     1.0000 0.74099  0.87730  0.06659  Biso   1.000  H
  C502     1.0000 0.05669  0.87778  0.07060  Biso   1.000  C
  H361     1.0000 0.06529  0.75411  0.07899  Biso   1.000  H
  C503     1.0000 0.22749  0.07171  0.26298  Biso   1.000  C
  H362     1.0000 0.28557  0.00981  0.29049  Biso   1.000  H
  H363     1.0000 0.25629  0.11868  0.36951  Biso   1.000  H
  C504     1.0000 0.20869  0.13450  0.31148  Biso   1.000  C
  H364     1.0000 0.22799  0.78318  0.27131  Biso   1.000  H
  C505     1.0000 0.23438  0.79220  0.21479  Biso   1.000  C
  C506     1.0000 0.18489  0.72671  0.16449  Biso   1.000  C
  H365     1.0000 0.14368  0.66901  0.18530  Biso   1.000  H
  H366     1.0000 0.77938  0.05969  0.26410  Biso   1.000  H
  C507     1.0000 0.73427  0.04211  0.20430  Biso   1.000  C
  C508     1.0000 0.75220  0.10578  0.15761  Biso   1.000  C
  H367     1.0000 0.81238  0.16481  0.18219  Biso   1.000  H
  C509     1.0000 0.75278  0.99549  0.05929  Biso   1.000  C
  C510     1.0000 0.84457  0.01639  0.06059  Biso   1.000  C
  C511     1.0000 0.04720  0.93761  0.06759  Biso   1.000  C
  C512     1.0000 0.11199  0.85790  0.07350  Biso   1.000  C
  C513     1.0000 0.19996  0.12032  0.27309  Biso   1.000  C
  H368     1.0000 0.22059  0.05969  0.23590  Biso   1.000  H
  H369     1.0000 0.18757  0.16481  0.31778  Biso   1.000  H
  N60      1.0000 0.21970  0.77192  0.17791  Biso   1.000  N
  H370     1.0000 0.25787  0.82551  0.22140  Biso   1.000  H
  H371     1.0000 0.17319  0.71359  0.13719  Biso   1.000  H
  N61      1.0000 0.72589  0.05868  0.16669  Biso   1.000  N
  H372     1.0000 0.71438  0.00981  0.20948  Biso   1.000  H
  H373     1.0000 0.74368  0.11868  0.13050  Biso   1.000  H
  C514     1.0000 0.74207  0.99770  0.09410  Biso   1.000  C
  C515     1.0000 0.71199  0.01759  0.02419  Biso   1.000  C
  N62      1.0000 0.89531  0.00650  0.06011  Biso   1.000  N
  C516     1.0000 0.83620  0.08130  0.06360  Biso   1.000  C
  N63      1.0000 0.00151  0.96748  0.06291  Biso   1.000  N
  C517     1.0000 0.09140  0.97941  0.07419  Biso   1.000  C
  C518     1.0000 0.14768  0.83731  0.10779  Biso   1.000  C
  C519     1.0000 0.12910  0.86678  0.04111  Biso   1.000  C
  C520     1.0000 0.16008  0.15209  0.23919  Biso   1.000  C
  C521     1.0000 0.24341  0.79829  0.14781  Biso   1.000  C
  C522     1.0000 0.68158  0.02682  0.13520  Biso   1.000  C
  H374     1.0000 0.76860  0.98321  0.11789  Biso   1.000  H
  C523     1.0000 0.69259  0.02090  0.09660  Biso   1.000  C
  H375     1.0000 0.71801  0.01639  0.99897  Biso   1.000  H
  C524     1.0000 0.66391  0.04078  0.02600  Biso   1.000  C
  C525     1.0000 0.91968  0.05961  0.06360  Biso   1.000  C
  C526     1.0000 0.88478  0.10569  0.06620  Biso   1.000  C
  H376     1.0000 0.80409  0.10101  0.06379  Biso   1.000  H
  H377     1.0000 0.96937  0.95131  0.05839  Biso   1.000  H
  C527     1.0000 0.01119  0.02589  0.06590  Biso   1.000  C
  H378     1.0000 0.12850  0.97062  0.07859  Biso   1.000  H
  C528     1.0000 0.06891  0.03301  0.07259  Biso   1.000  C
  H379     1.0000 0.13721  0.83241  0.13101  Biso   1.000  H
  C529     1.0000 0.20267  0.82229  0.10939  Biso   1.000  C
  C530     1.0000 0.18409  0.85322  0.04219  Biso   1.000  C
  H380     1.0000 0.10418  0.88251  0.01689  Biso   1.000  H
  C531     1.0000 0.16219  0.15668  0.20131  Biso   1.000  C
  C532     1.0000 0.11600  0.18160  0.24601  Biso   1.000  C
  H381     1.0000 0.26538  0.76759  0.14051  Biso   1.000  H
  H382     1.0000 0.26818  0.83068  0.16129  Biso   1.000  H
  H383     1.0000 0.67720  0.98701  0.14530  Biso   1.000  H
  H384     1.0000 0.64708  0.04852  0.13029  Biso   1.000  H
  C533     1.0000 0.65681  0.04361  0.06158  Biso   1.000  C
  H385     1.0000 0.63658  0.05439  0.00229  Biso   1.000  H
  C534     1.0000 0.97159  0.06871  0.06430  Biso   1.000  C
  H386     1.0000 0.89361  0.14661  0.06909  Biso   1.000  H
  H387     1.0000 0.08750  0.06968  0.07540  Biso   1.000  H
  C535     1.0000 0.21880  0.82962  0.07678  Biso   1.000  C
  H388     1.0000 0.19530  0.86051  0.01960  Biso   1.000  H
  C536     1.0000 0.12598  0.18880  0.17160  Biso   1.000  C
  H389     1.0000 0.19027  0.13649  0.19510  Biso   1.000  H
  H390     1.0000 0.11207  0.18010  0.27188  Biso   1.000  H
  C537     1.0000 0.07947  0.21191  0.21609  Biso   1.000  C
  H391     1.0000 0.62490  0.06239  0.06300  Biso   1.000  H
  C538     1.0000 0.99488  0.13172  0.06701  Biso   1.000  C
  H392     1.0000 0.25441  0.81840  0.07811  Biso   1.000  H
  N64      1.0000 0.08347  0.21739  0.17990  Biso   1.000  N
  H393     1.0000 0.12970  0.19181  0.14570  Biso   1.000  H
  H394     1.0000 0.04968  0.22998  0.22140  Biso   1.000  H
  C539     1.0000 0.00650  0.16331  0.10269  Biso   1.000  C
  C540     1.0000 0.00640  0.15642  0.03480  Biso   1.000  C
  C541     1.0000 0.04471  0.25230  0.14530  Biso   1.000  C
  H395     1.0000 0.99899  0.14652  0.12510  Biso   1.000  H
  C542     1.0000 0.02978  0.22119  0.10580  Biso   1.000  C
  H396     1.0000 0.99819  0.13512  0.01019  Biso   1.000  H
  C543     1.0000 0.02999  0.21240  0.03800  Biso   1.000  C
  H397     1.0000 0.01119  0.26060  0.15161  Biso   1.000  H
  H398     1.0000 0.06159  0.29069  0.14298  Biso   1.000  H
  C544     1.0000 0.03940  0.24289  0.07371  Biso   1.000  C
  H399     1.0000 0.03918  0.22901  0.01629  Biso   1.000  H
  H400     1.0000 0.05370  0.28168  0.07540  Biso   1.000  H
