data_image0
_cell_length_a       24.717
_cell_length_b       24.717
_cell_length_c       7.298
_cell_angle_alpha    90
_cell_angle_beta     90
_cell_angle_gamma    120

_symmetry_space_group_name_H-M    "P 1"
_symmetry_int_tables_number       1

loop_
  _symmetry_equiv_pos_as_xyz
  'x, y, z'

loop_
  _atom_site_label
  _atom_site_occupancy
  _atom_site_fract_x
  _atom_site_fract_y
  _atom_site_fract_z
  _atom_site_thermal_displace_type
  _atom_site_B_iso_or_equiv
  _atom_site_type_symbol
  C1       1.0000 0.07323  0.14169  0.21444  Biso   1.000  C
  C2       1.0000 0.11405  0.21256  0.24007  Biso   1.000  C
  C3       1.0000 0.11401  0.21256  0.24007  Biso   1.000  C
  H1       1.0000 0.04417  0.12128  0.31694  Biso   1.000  H
  H2       1.0000 0.04859  0.13141  0.10496  Biso   1.000  H
  H3       1.0000 0.09930  0.12441  0.21006  Biso   1.000  H
  H4       1.0000 0.09930  0.12441  0.20992  Biso   1.000  H
  H5       1.0000 0.04857  0.13137  0.10496  Biso   1.000  H
  H6       1.0000 0.09928  0.12436  0.21006  Biso   1.000  H
  H7       1.0000 0.09928  0.12436  0.20992  Biso   1.000  H
  P1       1.0000 0.16544  0.22957  0.43971  Biso   1.000  P
  P2       1.0000 0.16540  0.22957  0.43971  Biso   1.000  P
  P3       1.0000 0.15758  0.24662  0.02521  Biso   1.000  P
  N1       1.0000 0.07181  0.23919  0.27693  Biso   1.000  N
  N2       1.0000 0.07175  0.23914  0.27693  Biso   1.000  N
  C4       1.0000 0.07319  0.14169  0.21444  Biso   1.000  C
  O1       1.0000 0.21239  0.21027  0.39627  Biso   1.000  O
  O2       1.0000 0.21239  0.21027  0.39614  Biso   1.000  O
  O3       1.0000 0.21235  0.21027  0.39627  Biso   1.000  O
  O4       1.0000 0.21235  0.21027  0.39614  Biso   1.000  O
  O5       1.0000 0.19100  0.29656  0.49657  Biso   1.000  O
  O6       1.0000 0.11955  0.18514  0.58989  Biso   1.000  O
  O7       1.0000 0.19096  0.29656  0.49657  Biso   1.000  O
  O8       1.0000 0.19438  0.21536  0.98616  Biso   1.000  O
  O9       1.0000 0.19436  0.21532  0.98616  Biso   1.000  O
  O10      1.0000 0.20455  0.31735  0.06605  Biso   1.000  O
  O11      1.0000 0.20449  0.31730  0.06605  Biso   1.000  O
  O12      1.0000 0.11022  0.23994  0.88463  Biso   1.000  O
  O13      1.0000 0.11022  0.23994  0.88449  Biso   1.000  O
  O14      1.0000 0.11018  0.23994  0.88463  Biso   1.000  O
  O15      1.0000 0.11018  0.23994  0.88449  Biso   1.000  O
  H8       1.0000 0.04260  0.22461  0.19594  Biso   1.000  H
  H9       1.0000 0.09340  0.28082  0.26500  Biso   1.000  H
  H10      1.0000 0.05318  0.22709  0.39901  Biso   1.000  H
  H11      1.0000 0.04257  0.22457  0.19594  Biso   1.000  H
  H12      1.0000 0.09337  0.28077  0.26500  Biso   1.000  H
  Li1      1.0000 0.25245  0.21181  0.17142  Biso   1.000  Li
  Li2      1.0000 0.25249  0.21181  0.17142  Biso   1.000  Li
  H13      1.0000 0.11492  0.19892  0.66594  Biso   1.000  H
  H14      1.0000 0.11485  0.19887  0.66594  Biso   1.000  H
  H15      1.0000 0.18909  0.33650  0.07906  Biso   1.000  H
  H16      1.0000 0.18909  0.33650  0.07893  Biso   1.000  H
  Li3      1.0000 0.04066  0.25246  0.82858  Biso   1.000  Li
  Li4      1.0000 0.04062  0.25246  0.82858  Biso   1.000  Li
  O16      1.0000 0.23997  0.12973  0.11537  Biso   1.000  O
  O17      1.0000 0.32694  0.28992  0.07399  Biso   1.000  O
  O18      1.0000 0.23990  0.12969  0.11537  Biso   1.000  O
  O19      1.0000 0.32688  0.28988  0.07399  Biso   1.000  O
  O20      1.0000 0.97902  0.19439  0.01384  Biso   1.000  O
  O21      1.0000 0.00209  0.21237  0.60373  Biso   1.000  O
  O22      1.0000 0.03703  0.32692  0.92601  Biso   1.000  O
  O23      1.0000 0.03697  0.32688  0.92601  Biso   1.000  O
  P4       1.0000 0.24665  0.08904  0.97479  Biso   1.000  P
  P5       1.0000 0.24659  0.08900  0.97479  Biso   1.000  P
  H17      1.0000 0.34660  0.27899  0.01795  Biso   1.000  H
  H18      1.0000 0.31468  0.30408  0.00699  Biso   1.000  H
  H19      1.0000 0.34656  0.27899  0.01795  Biso   1.000  H
  P6       1.0000 0.91097  0.15758  0.97479  Biso   1.000  P
  P7       1.0000 0.91093  0.15758  0.97479  Biso   1.000  P
  P8       1.0000 0.93585  0.16542  0.56029  Biso   1.000  P
  H20      1.0000 0.06758  0.34659  0.98205  Biso   1.000  H
  H21      1.0000 0.01060  0.31468  0.99301  Biso   1.000  H
  H22      1.0000 0.06758  0.34659  0.98191  Biso   1.000  H
  H23      1.0000 0.01056  0.31468  0.99301  Biso   1.000  H
  O24      1.0000 0.21537  0.02098  0.01384  Biso   1.000  O
  O25      1.0000 0.21530  0.02093  0.01384  Biso   1.000  O
  O26      1.0000 0.31736  0.11282  0.93395  Biso   1.000  O
  C5       1.0000 0.21259  0.09853  0.75993  Biso   1.000  C
  O27      1.0000 0.31730  0.11277  0.93395  Biso   1.000  O
  C6       1.0000 0.21253  0.09848  0.75993  Biso   1.000  C
  O28      1.0000 0.88719  0.20453  0.93395  Biso   1.000  O
  C7       1.0000 0.90146  0.11404  0.75993  Biso   1.000  C
  O29      1.0000 0.88715  0.20453  0.93395  Biso   1.000  O
  O30      1.0000 0.87025  0.11021  0.11537  Biso   1.000  O
  O31      1.0000 0.89441  0.19098  0.50343  Biso   1.000  O
  O32      1.0000 0.93442  0.11960  0.41011  Biso   1.000  O
  O33      1.0000 0.93439  0.11955  0.41011  Biso   1.000  O
  Li5      1.0000 0.21187  0.95936  0.82858  Biso   1.000  Li
  Li6      1.0000 0.21176  0.95931  0.82858  Biso   1.000  Li
  H24      1.0000 0.33651  0.14739  0.92094  Biso   1.000  H
  H25      1.0000 0.33647  0.14739  0.92094  Biso   1.000  H
  P9       1.0000 0.22959  0.06414  0.56029  Biso   1.000  P
  N3       1.0000 0.23917  0.16739  0.72307  Biso   1.000  N
  C8       1.0000 0.14170  0.06849  0.78556  Biso   1.000  C
  C9       1.0000 0.14170  0.06849  0.78542  Biso   1.000  C
  P10      1.0000 0.22955  0.06414  0.56029  Biso   1.000  P
  N4       1.0000 0.23915  0.16734  0.72307  Biso   1.000  N
  C10      1.0000 0.14168  0.06844  0.78556  Biso   1.000  C
  C11      1.0000 0.14168  0.06844  0.78542  Biso   1.000  C
  H26      1.0000 0.85262  0.18911  0.92094  Biso   1.000  H
  H27      1.0000 0.85255  0.18906  0.92094  Biso   1.000  H
  N5       1.0000 0.83264  0.07180  0.72307  Biso   1.000  N
  C12      1.0000 0.93152  0.07325  0.78556  Biso   1.000  C
  C13      1.0000 0.93152  0.07325  0.78542  Biso   1.000  C
  N6       1.0000 0.83258  0.07176  0.72307  Biso   1.000  N
  C14      1.0000 0.93149  0.07321  0.78556  Biso   1.000  C
  C15      1.0000 0.93149  0.07321  0.78542  Biso   1.000  C
  Li7      1.0000 0.78817  0.04064  0.17142  Biso   1.000  Li
  H28      1.0000 0.91600  0.11488  0.33406  Biso   1.000  H
  H29      1.0000 0.91600  0.11488  0.33393  Biso   1.000  H
  H30      1.0000 0.91596  0.11488  0.33406  Biso   1.000  H
  H31      1.0000 0.91596  0.11488  0.33393  Biso   1.000  H
  O34      1.0000 0.12975  0.88979  0.88463  Biso   1.000  O
  O35      1.0000 0.28991  0.96300  0.92601  Biso   1.000  O
  O36      1.0000 0.21026  0.99790  0.60373  Biso   1.000  O
  O37      1.0000 0.12975  0.88979  0.88449  Biso   1.000  O
  O38      1.0000 0.12973  0.88975  0.88463  Biso   1.000  O
  O39      1.0000 0.28989  0.96295  0.92601  Biso   1.000  O
  O40      1.0000 0.12973  0.88975  0.88449  Biso   1.000  O
  O41      1.0000 0.29659  0.10558  0.50343  Biso   1.000  O
  O42      1.0000 0.18516  0.06559  0.41011  Biso   1.000  O
  O43      1.0000 0.29653  0.10553  0.50343  Biso   1.000  O
  O44      1.0000 0.18514  0.06554  0.41011  Biso   1.000  O
  H32      1.0000 0.22460  0.18201  0.80406  Biso   1.000  H
  H33      1.0000 0.28081  0.18738  0.73500  Biso   1.000  H
  H34      1.0000 0.22709  0.17388  0.60099  Biso   1.000  H
  H35      1.0000 0.22460  0.18201  0.80392  Biso   1.000  H
  H36      1.0000 0.22457  0.18196  0.80406  Biso   1.000  H
  H37      1.0000 0.28077  0.18738  0.73500  Biso   1.000  H
  H38      1.0000 0.22457  0.18196  0.80392  Biso   1.000  H
  H39      1.0000 0.12128  0.07708  0.68306  Biso   1.000  H
  H40      1.0000 0.13141  0.08278  0.89504  Biso   1.000  H
  H41      1.0000 0.12441  0.02509  0.78994  Biso   1.000  H
  H42      1.0000 0.12128  0.07708  0.68293  Biso   1.000  H
  H43      1.0000 0.13137  0.08278  0.89504  Biso   1.000  H
  H44      1.0000 0.12437  0.02509  0.78994  Biso   1.000  H
  H45      1.0000 0.81800  0.04261  0.80406  Biso   1.000  H
  H46      1.0000 0.81260  0.09339  0.73500  Biso   1.000  H
  H47      1.0000 0.82610  0.05321  0.60099  Biso   1.000  H
  H48      1.0000 0.81800  0.04261  0.80392  Biso   1.000  H
  H49      1.0000 0.81798  0.04256  0.80406  Biso   1.000  H
  H50      1.0000 0.81256  0.09339  0.73500  Biso   1.000  H
  H51      1.0000 0.82607  0.05316  0.60099  Biso   1.000  H
  H52      1.0000 0.81798  0.04256  0.80392  Biso   1.000  H
  H53      1.0000 0.92289  0.04419  0.68306  Biso   1.000  H
  H54      1.0000 0.91720  0.04859  0.89504  Biso   1.000  H
  H55      1.0000 0.97489  0.09932  0.78994  Biso   1.000  H
  H56      1.0000 0.92289  0.04419  0.68293  Biso   1.000  H
  H57      1.0000 0.91716  0.04859  0.89504  Biso   1.000  H
  H58      1.0000 0.97487  0.09927  0.78994  Biso   1.000  H
  O45      1.0000 0.78463  0.97902  0.98616  Biso   1.000  O
  O46      1.0000 0.78974  0.00210  0.39627  Biso   1.000  O
  O47      1.0000 0.71009  0.03700  0.07399  Biso   1.000  O
  O48      1.0000 0.78974  0.00210  0.39614  Biso   1.000  O
  O49      1.0000 0.78970  0.00210  0.39627  Biso   1.000  O
  O50      1.0000 0.71005  0.03700  0.07399  Biso   1.000  O
  O51      1.0000 0.78970  0.00210  0.39614  Biso   1.000  O
  P11      1.0000 0.08907  0.84242  0.02521  Biso   1.000  P
  P12      1.0000 0.08905  0.84238  0.02521  Biso   1.000  P
  H59      1.0000 0.27898  0.93240  0.98205  Biso   1.000  H
  H60      1.0000 0.30408  0.98940  0.99301  Biso   1.000  H
  H61      1.0000 0.27898  0.93240  0.98191  Biso   1.000  H
  H62      1.0000 0.19889  0.08400  0.33406  Biso   1.000  H
  H63      1.0000 0.19889  0.08400  0.33393  Biso   1.000  H
  P13      1.0000 0.75339  0.91096  0.02521  Biso   1.000  P
  P14      1.0000 0.77045  0.93586  0.43971  Biso   1.000  P
  P15      1.0000 0.77043  0.93581  0.43971  Biso   1.000  P
  H64      1.0000 0.72102  0.06760  0.01795  Biso   1.000  H
  H65      1.0000 0.69592  0.01060  0.00699  Biso   1.000  H
  H66      1.0000 0.72098  0.06760  0.01795  Biso   1.000  H
  H67      1.0000 0.69586  0.01056  0.00699  Biso   1.000  H
  O52      1.0000 0.02098  0.80561  0.98616  Biso   1.000  O
  O53      1.0000 0.11281  0.79547  0.06605  Biso   1.000  O
  C16      1.0000 0.09854  0.88596  0.24007  Biso   1.000  C
  O54      1.0000 0.11279  0.79543  0.06605  Biso   1.000  O
  C17      1.0000 0.09852  0.88592  0.24007  Biso   1.000  C
  O55      1.0000 0.76007  0.87027  0.88463  Biso   1.000  O
  O56      1.0000 0.76007  0.87027  0.88449  Biso   1.000  O
  O57      1.0000 0.68268  0.88718  0.06605  Biso   1.000  O
  C18      1.0000 0.78741  0.90147  0.24007  Biso   1.000  C
  O58      1.0000 0.70341  0.89442  0.49657  Biso   1.000  O
  O59      1.0000 0.81488  0.93441  0.58989  Biso   1.000  O
  O60      1.0000 0.81480  0.93441  0.58989  Biso   1.000  O
  Li8      1.0000 0.95934  0.74754  0.17142  Biso   1.000  Li
  Li9      1.0000 0.95932  0.74750  0.17142  Biso   1.000  Li
  H68      1.0000 0.14742  0.81089  0.07906  Biso   1.000  H
  H69      1.0000 0.14742  0.81089  0.07893  Biso   1.000  H
  P16      1.0000 0.06419  0.83458  0.43971  Biso   1.000  P
  N7       1.0000 0.16736  0.92820  0.27693  Biso   1.000  N
  C19      1.0000 0.06852  0.92675  0.21444  Biso   1.000  C
  P17      1.0000 0.06413  0.83453  0.43971  Biso   1.000  P
  C20      1.0000 0.06848  0.92675  0.21444  Biso   1.000  C
  Li10     1.0000 0.74751  0.78819  0.82858  Biso   1.000  Li
  Li11     1.0000 0.74749  0.78814  0.82858  Biso   1.000  Li
  H70      1.0000 0.66353  0.85261  0.07906  Biso   1.000  H
  H71      1.0000 0.66353  0.85261  0.07893  Biso   1.000  H
  H72      1.0000 0.66351  0.85256  0.07906  Biso   1.000  H
  H73      1.0000 0.66351  0.85256  0.07893  Biso   1.000  H
  N8       1.0000 0.76087  0.83261  0.27693  Biso   1.000  N
  C21      1.0000 0.85834  0.93151  0.21444  Biso   1.000  C
  N9       1.0000 0.76079  0.83261  0.27693  Biso   1.000  N
  C22      1.0000 0.85830  0.93151  0.21444  Biso   1.000  C
  H74      1.0000 0.80115  0.91600  0.66594  Biso   1.000  H
  H75      1.0000 0.80108  0.91596  0.66594  Biso   1.000  H
  O61      1.0000 0.99795  0.78763  0.39627  Biso   1.000  O
  O62      1.0000 0.88978  0.76006  0.11537  Biso   1.000  O
  O63      1.0000 0.96301  0.67308  0.07399  Biso   1.000  O
  O64      1.0000 0.99795  0.78763  0.39614  Biso   1.000  O
  O65      1.0000 0.99785  0.78758  0.39627  Biso   1.000  O
  O66      1.0000 0.88976  0.76002  0.11537  Biso   1.000  O
  O67      1.0000 0.99785  0.78758  0.39614  Biso   1.000  O
  O68      1.0000 0.10563  0.80902  0.49657  Biso   1.000  O
  O69      1.0000 0.06558  0.88040  0.58989  Biso   1.000  O
  O70      1.0000 0.10556  0.80897  0.49657  Biso   1.000  O
  H76      1.0000 0.18204  0.95739  0.19594  Biso   1.000  H
  H77      1.0000 0.18744  0.90661  0.26500  Biso   1.000  H
  H78      1.0000 0.17394  0.94679  0.39901  Biso   1.000  H
  H79      1.0000 0.18196  0.95739  0.19594  Biso   1.000  H
  H80      1.0000 0.18741  0.90657  0.26500  Biso   1.000  H
  H81      1.0000 0.17386  0.94679  0.39901  Biso   1.000  H
  H82      1.0000 0.07715  0.95581  0.31694  Biso   1.000  H
  H83      1.0000 0.08280  0.95141  0.10496  Biso   1.000  H
  H84      1.0000 0.02515  0.90068  0.21006  Biso   1.000  H
  H85      1.0000 0.02515  0.90068  0.20992  Biso   1.000  H
  H86      1.0000 0.07704  0.95576  0.31694  Biso   1.000  H
  H87      1.0000 0.08278  0.95137  0.10496  Biso   1.000  H
  H88      1.0000 0.02507  0.90068  0.21006  Biso   1.000  H
  H89      1.0000 0.02507  0.90068  0.20992  Biso   1.000  H
  O71      1.0000 0.80562  0.78464  0.01384  Biso   1.000  O
  O72      1.0000 0.78761  0.78973  0.60373  Biso   1.000  O
  O73      1.0000 0.78759  0.78968  0.60373  Biso   1.000  O
  O74      1.0000 0.67310  0.71008  0.92601  Biso   1.000  O
  H90      1.0000 0.77544  0.81799  0.19594  Biso   1.000  H
  H91      1.0000 0.71919  0.81262  0.26500  Biso   1.000  H
  H92      1.0000 0.77295  0.82612  0.39901  Biso   1.000  H
  H93      1.0000 0.77536  0.81799  0.19594  Biso   1.000  H
  H94      1.0000 0.71917  0.81257  0.26500  Biso   1.000  H
  H95      1.0000 0.77285  0.82607  0.39901  Biso   1.000  H
  H96      1.0000 0.87872  0.92292  0.31694  Biso   1.000  H
  H97      1.0000 0.86863  0.91722  0.10496  Biso   1.000  H
  H98      1.0000 0.87563  0.97491  0.21006  Biso   1.000  H
  H99      1.0000 0.87563  0.97491  0.20992  Biso   1.000  H
  H100     1.0000 0.87866  0.92287  0.31694  Biso   1.000  H
  H101     1.0000 0.86861  0.91717  0.10496  Biso   1.000  H
  H102     1.0000 0.87561  0.97487  0.21006  Biso   1.000  H
  H103     1.0000 0.87561  0.97487  0.20992  Biso   1.000  H
  P18      1.0000 0.84242  0.75338  0.97479  Biso   1.000  P
  P19      1.0000 0.84236  0.75333  0.97479  Biso   1.000  P
  H104     1.0000 0.93246  0.65341  0.01795  Biso   1.000  H
  H105     1.0000 0.98940  0.68532  0.00699  Biso   1.000  H
  H106     1.0000 0.93236  0.65336  0.01795  Biso   1.000  H
  H107     1.0000 0.98938  0.68527  0.00699  Biso   1.000  H
  H108     1.0000 0.08404  0.88512  0.66594  Biso   1.000  H
  H109     1.0000 0.08402  0.88508  0.66594  Biso   1.000  H
  P20      1.0000 0.83456  0.77043  0.56029  Biso   1.000  P
  P21      1.0000 0.83454  0.77039  0.56029  Biso   1.000  P
  H110     1.0000 0.65340  0.72101  0.98205  Biso   1.000  H
  H111     1.0000 0.68536  0.69592  0.99301  Biso   1.000  H
  H112     1.0000 0.65340  0.72101  0.98191  Biso   1.000  H
  H113     1.0000 0.65338  0.72096  0.98205  Biso   1.000  H
  H114     1.0000 0.68526  0.69587  0.99301  Biso   1.000  H
  H115     1.0000 0.65338  0.72096  0.98191  Biso   1.000  H
  O75      1.0000 0.79549  0.68265  0.93395  Biso   1.000  O
  C23      1.0000 0.88595  0.78744  0.75993  Biso   1.000  C
  C24      1.0000 0.88593  0.78739  0.75993  Biso   1.000  C
  O76      1.0000 0.80900  0.70344  0.50343  Biso   1.000  O
  O77      1.0000 0.88049  0.81486  0.41011  Biso   1.000  O
  O78      1.0000 0.88042  0.81481  0.41011  Biso   1.000  O
  H116     1.0000 0.81095  0.66350  0.92094  Biso   1.000  H
  H117     1.0000 0.81091  0.66350  0.92094  Biso   1.000  H
  N10      1.0000 0.92819  0.76081  0.72307  Biso   1.000  N
  C25      1.0000 0.92677  0.85831  0.78556  Biso   1.000  C
  C26      1.0000 0.92677  0.85831  0.78542  Biso   1.000  C
  C27      1.0000 0.92674  0.85826  0.78556  Biso   1.000  C
  C28      1.0000 0.92674  0.85826  0.78542  Biso   1.000  C
  H118     1.0000 0.88508  0.80108  0.33406  Biso   1.000  H
  H119     1.0000 0.88508  0.80108  0.33393  Biso   1.000  H
  H120     1.0000 0.95744  0.77539  0.80406  Biso   1.000  H
  H121     1.0000 0.90665  0.71918  0.73500  Biso   1.000  H
  H122     1.0000 0.94682  0.77291  0.60099  Biso   1.000  H
  H123     1.0000 0.95744  0.77539  0.80392  Biso   1.000  H
  H124     1.0000 0.95736  0.77539  0.80406  Biso   1.000  H
  H125     1.0000 0.90656  0.71918  0.73500  Biso   1.000  H
  H126     1.0000 0.94679  0.77286  0.60099  Biso   1.000  H
  H127     1.0000 0.95736  0.77539  0.80392  Biso   1.000  H
  H128     1.0000 0.95583  0.87872  0.68306  Biso   1.000  H
  H129     1.0000 0.95141  0.86859  0.89504  Biso   1.000  H
  H130     1.0000 0.90074  0.87559  0.78994  Biso   1.000  H
  H131     1.0000 0.95583  0.87872  0.68293  Biso   1.000  H
  H132     1.0000 0.95576  0.87868  0.68306  Biso   1.000  H
  H133     1.0000 0.95137  0.86859  0.89504  Biso   1.000  H
  H134     1.0000 0.90070  0.87559  0.78994  Biso   1.000  H
  H135     1.0000 0.95576  0.87868  0.68293  Biso   1.000  H
  C29      1.0000 0.07323  0.14169  0.21444  Biso   1.000  C
  C30      1.0000 0.11405  0.21256  0.24007  Biso   1.000  C
  C31      1.0000 0.11401  0.21256  0.24007  Biso   1.000  C
  H136     1.0000 0.04417  0.12128  0.31694  Biso   1.000  H
  H137     1.0000 0.04859  0.13141  0.10496  Biso   1.000  H
  H138     1.0000 0.04857  0.13137  0.10496  Biso   1.000  H
  H139     1.0000 0.09930  0.12441  0.21006  Biso   1.000  H
  H140     1.0000 0.09930  0.12441  0.20992  Biso   1.000  H
  H141     1.0000 0.09928  0.12436  0.21006  Biso   1.000  H
  H142     1.0000 0.09928  0.12436  0.20992  Biso   1.000  H
  P22      1.0000 0.16544  0.22957  0.43971  Biso   1.000  P
  P23      1.0000 0.16540  0.22957  0.43971  Biso   1.000  P
  P24      1.0000 0.15758  0.24662  0.02521  Biso   1.000  P
  N11      1.0000 0.07181  0.23919  0.27693  Biso   1.000  N
  N12      1.0000 0.07175  0.23914  0.27693  Biso   1.000  N
  C32      1.0000 0.07319  0.14169  0.21444  Biso   1.000  C
  O79      1.0000 0.21239  0.21027  0.39627  Biso   1.000  O
  O80      1.0000 0.21239  0.21027  0.39614  Biso   1.000  O
  O81      1.0000 0.21235  0.21027  0.39627  Biso   1.000  O
  O82      1.0000 0.21235  0.21027  0.39614  Biso   1.000  O
  O83      1.0000 0.19100  0.29656  0.49657  Biso   1.000  O
  O84      1.0000 0.11955  0.18514  0.58989  Biso   1.000  O
  O85      1.0000 0.19096  0.29656  0.49657  Biso   1.000  O
  O86      1.0000 0.19438  0.21536  0.98616  Biso   1.000  O
  O87      1.0000 0.19436  0.21532  0.98616  Biso   1.000  O
  O88      1.0000 0.20455  0.31735  0.06605  Biso   1.000  O
  O89      1.0000 0.20449  0.31730  0.06605  Biso   1.000  O
  O90      1.0000 0.11022  0.23994  0.88463  Biso   1.000  O
  O91      1.0000 0.11022  0.23994  0.88449  Biso   1.000  O
  O92      1.0000 0.11018  0.23994  0.88463  Biso   1.000  O
  O93      1.0000 0.11018  0.23994  0.88449  Biso   1.000  O
  H143     1.0000 0.04260  0.22461  0.19594  Biso   1.000  H
  H144     1.0000 0.09340  0.28082  0.26500  Biso   1.000  H
  H145     1.0000 0.05318  0.22709  0.39901  Biso   1.000  H
  H146     1.0000 0.04257  0.22457  0.19594  Biso   1.000  H
  H147     1.0000 0.09337  0.28077  0.26500  Biso   1.000  H
  Li12     1.0000 0.25245  0.21181  0.17142  Biso   1.000  Li
  Li13     1.0000 0.25249  0.21181  0.17142  Biso   1.000  Li
  H148     1.0000 0.11492  0.19892  0.66594  Biso   1.000  H
  H149     1.0000 0.11485  0.19887  0.66594  Biso   1.000  H
  H150     1.0000 0.18909  0.33650  0.07906  Biso   1.000  H
  H151     1.0000 0.18909  0.33650  0.07893  Biso   1.000  H
  Li14     1.0000 0.04066  0.25246  0.82858  Biso   1.000  Li
  Li15     1.0000 0.04062  0.25246  0.82858  Biso   1.000  Li
  O94      1.0000 0.23997  0.12973  0.11537  Biso   1.000  O
  O95      1.0000 0.32694  0.28992  0.07399  Biso   1.000  O
  O96      1.0000 0.23990  0.12969  0.11537  Biso   1.000  O
  O97      1.0000 0.32688  0.28988  0.07399  Biso   1.000  O
  O98      1.0000 0.97902  0.19439  0.01384  Biso   1.000  O
  O99      1.0000 0.00209  0.21237  0.60373  Biso   1.000  O
  O100     1.0000 0.03703  0.32692  0.92601  Biso   1.000  O
  O101     1.0000 0.03697  0.32688  0.92601  Biso   1.000  O
  P25      1.0000 0.24665  0.08904  0.97479  Biso   1.000  P
  P26      1.0000 0.24659  0.08900  0.97479  Biso   1.000  P
  H152     1.0000 0.34660  0.27899  0.01795  Biso   1.000  H
  H153     1.0000 0.31468  0.30408  0.00699  Biso   1.000  H
  H154     1.0000 0.34656  0.27899  0.01795  Biso   1.000  H
  P27      1.0000 0.91097  0.15758  0.97479  Biso   1.000  P
  P28      1.0000 0.91093  0.15758  0.97479  Biso   1.000  P
  P29      1.0000 0.93585  0.16542  0.56029  Biso   1.000  P
  H155     1.0000 0.06758  0.34659  0.98205  Biso   1.000  H
  H156     1.0000 0.01060  0.31468  0.99301  Biso   1.000  H
  H157     1.0000 0.06758  0.34659  0.98191  Biso   1.000  H
  H158     1.0000 0.01056  0.31468  0.99301  Biso   1.000  H
  O102     1.0000 0.21537  0.02098  0.01384  Biso   1.000  O
  O103     1.0000 0.21530  0.02093  0.01384  Biso   1.000  O
  O104     1.0000 0.31736  0.11282  0.93395  Biso   1.000  O
  C33      1.0000 0.21259  0.09853  0.75993  Biso   1.000  C
  O105     1.0000 0.31730  0.11277  0.93395  Biso   1.000  O
  C34      1.0000 0.21253  0.09848  0.75993  Biso   1.000  C
  O106     1.0000 0.88719  0.20453  0.93395  Biso   1.000  O
  C35      1.0000 0.90146  0.11404  0.75993  Biso   1.000  C
  O107     1.0000 0.88715  0.20453  0.93395  Biso   1.000  O
  O108     1.0000 0.87025  0.11021  0.11537  Biso   1.000  O
  O109     1.0000 0.89441  0.19098  0.50343  Biso   1.000  O
  O110     1.0000 0.93442  0.11960  0.41011  Biso   1.000  O
  O111     1.0000 0.93439  0.11955  0.41011  Biso   1.000  O
  Li16     1.0000 0.21187  0.95936  0.82858  Biso   1.000  Li
  Li17     1.0000 0.21176  0.95931  0.82858  Biso   1.000  Li
  H159     1.0000 0.33651  0.14739  0.92094  Biso   1.000  H
  H160     1.0000 0.33647  0.14739  0.92094  Biso   1.000  H
  P30      1.0000 0.22959  0.06414  0.56029  Biso   1.000  P
  N13      1.0000 0.23917  0.16739  0.72307  Biso   1.000  N
  C36      1.0000 0.14170  0.06849  0.78556  Biso   1.000  C
  C37      1.0000 0.14170  0.06849  0.78542  Biso   1.000  C
  P31      1.0000 0.22955  0.06414  0.56029  Biso   1.000  P
  N14      1.0000 0.23915  0.16734  0.72307  Biso   1.000  N
  C38      1.0000 0.14168  0.06844  0.78556  Biso   1.000  C
  C39      1.0000 0.14168  0.06844  0.78542  Biso   1.000  C
  H161     1.0000 0.85262  0.18911  0.92094  Biso   1.000  H
  H162     1.0000 0.85255  0.18906  0.92094  Biso   1.000  H
  N15      1.0000 0.83264  0.07180  0.72307  Biso   1.000  N
  C40      1.0000 0.93152  0.07325  0.78556  Biso   1.000  C
  C41      1.0000 0.93152  0.07325  0.78542  Biso   1.000  C
  N16      1.0000 0.83258  0.07176  0.72307  Biso   1.000  N
  C42      1.0000 0.93149  0.07321  0.78556  Biso   1.000  C
  C43      1.0000 0.93149  0.07321  0.78542  Biso   1.000  C
  Li18     1.0000 0.78817  0.04064  0.17142  Biso   1.000  Li
  H163     1.0000 0.91600  0.11488  0.33406  Biso   1.000  H
  H164     1.0000 0.91600  0.11488  0.33393  Biso   1.000  H
  H165     1.0000 0.91596  0.11488  0.33406  Biso   1.000  H
  H166     1.0000 0.91596  0.11488  0.33393  Biso   1.000  H
  O112     1.0000 0.12975  0.88979  0.88463  Biso   1.000  O
  O113     1.0000 0.28991  0.96300  0.92601  Biso   1.000  O
  O114     1.0000 0.21026  0.99790  0.60373  Biso   1.000  O
  O115     1.0000 0.12975  0.88979  0.88449  Biso   1.000  O
  O116     1.0000 0.12973  0.88975  0.88463  Biso   1.000  O
  O117     1.0000 0.28989  0.96295  0.92601  Biso   1.000  O
  O118     1.0000 0.12973  0.88975  0.88449  Biso   1.000  O
  O119     1.0000 0.29659  0.10558  0.50343  Biso   1.000  O
  O120     1.0000 0.18516  0.06559  0.41011  Biso   1.000  O
  O121     1.0000 0.29653  0.10553  0.50343  Biso   1.000  O
  O122     1.0000 0.18514  0.06554  0.41011  Biso   1.000  O
  H167     1.0000 0.22460  0.18201  0.80406  Biso   1.000  H
  H168     1.0000 0.28081  0.18738  0.73500  Biso   1.000  H
  H169     1.0000 0.22709  0.17388  0.60099  Biso   1.000  H
  H170     1.0000 0.22460  0.18201  0.80392  Biso   1.000  H
  H171     1.0000 0.22457  0.18196  0.80406  Biso   1.000  H
  H172     1.0000 0.28077  0.18738  0.73500  Biso   1.000  H
  H173     1.0000 0.22457  0.18196  0.80392  Biso   1.000  H
  H174     1.0000 0.12128  0.07708  0.68306  Biso   1.000  H
  H175     1.0000 0.13141  0.08278  0.89504  Biso   1.000  H
  H176     1.0000 0.12441  0.02509  0.78994  Biso   1.000  H
  H177     1.0000 0.12128  0.07708  0.68293  Biso   1.000  H
  H178     1.0000 0.13137  0.08278  0.89504  Biso   1.000  H
  H179     1.0000 0.12437  0.02509  0.78994  Biso   1.000  H
  H180     1.0000 0.81800  0.04261  0.80406  Biso   1.000  H
  H181     1.0000 0.81260  0.09339  0.73500  Biso   1.000  H
  H182     1.0000 0.82610  0.05321  0.60099  Biso   1.000  H
  H183     1.0000 0.81800  0.04261  0.80392  Biso   1.000  H
  H184     1.0000 0.81798  0.04256  0.80406  Biso   1.000  H
  H185     1.0000 0.81256  0.09339  0.73500  Biso   1.000  H
  H186     1.0000 0.82607  0.05316  0.60099  Biso   1.000  H
  H187     1.0000 0.81798  0.04256  0.80392  Biso   1.000  H
  H188     1.0000 0.92289  0.04419  0.68306  Biso   1.000  H
  H189     1.0000 0.91720  0.04859  0.89504  Biso   1.000  H
  H190     1.0000 0.97489  0.09932  0.78994  Biso   1.000  H
  H191     1.0000 0.92289  0.04419  0.68293  Biso   1.000  H
  H192     1.0000 0.91716  0.04859  0.89504  Biso   1.000  H
  H193     1.0000 0.97487  0.09927  0.78994  Biso   1.000  H
  O123     1.0000 0.78463  0.97902  0.98616  Biso   1.000  O
  O124     1.0000 0.78974  0.00210  0.39627  Biso   1.000  O
  O125     1.0000 0.71009  0.03700  0.07399  Biso   1.000  O
  O126     1.0000 0.78974  0.00210  0.39614  Biso   1.000  O
  O127     1.0000 0.78970  0.00210  0.39627  Biso   1.000  O
  O128     1.0000 0.71005  0.03700  0.07399  Biso   1.000  O
  O129     1.0000 0.78970  0.00210  0.39614  Biso   1.000  O
  P32      1.0000 0.08907  0.84242  0.02521  Biso   1.000  P
  P33      1.0000 0.08905  0.84238  0.02521  Biso   1.000  P
  H194     1.0000 0.27898  0.93240  0.98205  Biso   1.000  H
  H195     1.0000 0.30408  0.98940  0.99301  Biso   1.000  H
  H196     1.0000 0.27898  0.93240  0.98191  Biso   1.000  H
  H197     1.0000 0.19889  0.08400  0.33406  Biso   1.000  H
  H198     1.0000 0.19889  0.08400  0.33393  Biso   1.000  H
  P34      1.0000 0.75339  0.91096  0.02521  Biso   1.000  P
  P35      1.0000 0.77045  0.93586  0.43971  Biso   1.000  P
  P36      1.0000 0.77043  0.93581  0.43971  Biso   1.000  P
  H199     1.0000 0.72102  0.06760  0.01795  Biso   1.000  H
  H200     1.0000 0.69592  0.01060  0.00699  Biso   1.000  H
  H201     1.0000 0.72098  0.06760  0.01795  Biso   1.000  H
  H202     1.0000 0.69586  0.01056  0.00699  Biso   1.000  H
  O130     1.0000 0.02098  0.80561  0.98616  Biso   1.000  O
  O131     1.0000 0.11281  0.79547  0.06605  Biso   1.000  O
  C44      1.0000 0.09854  0.88596  0.24007  Biso   1.000  C
  O132     1.0000 0.11279  0.79543  0.06605  Biso   1.000  O
  C45      1.0000 0.09852  0.88592  0.24007  Biso   1.000  C
  O133     1.0000 0.76007  0.87027  0.88463  Biso   1.000  O
  O134     1.0000 0.76007  0.87027  0.88449  Biso   1.000  O
  O135     1.0000 0.68268  0.88718  0.06605  Biso   1.000  O
  C46      1.0000 0.78741  0.90147  0.24007  Biso   1.000  C
  O136     1.0000 0.70341  0.89442  0.49657  Biso   1.000  O
  O137     1.0000 0.81488  0.93441  0.58989  Biso   1.000  O
  O138     1.0000 0.81480  0.93441  0.58989  Biso   1.000  O
  Li19     1.0000 0.95934  0.74754  0.17142  Biso   1.000  Li
  Li20     1.0000 0.95932  0.74750  0.17142  Biso   1.000  Li
  H203     1.0000 0.14742  0.81089  0.07906  Biso   1.000  H
  H204     1.0000 0.14742  0.81089  0.07893  Biso   1.000  H
  P37      1.0000 0.06419  0.83458  0.43971  Biso   1.000  P
  N17      1.0000 0.16736  0.92820  0.27693  Biso   1.000  N
  C47      1.0000 0.06852  0.92675  0.21444  Biso   1.000  C
  P38      1.0000 0.06413  0.83453  0.43971  Biso   1.000  P
  C48      1.0000 0.06848  0.92675  0.21444  Biso   1.000  C
  Li21     1.0000 0.74751  0.78819  0.82858  Biso   1.000  Li
  Li22     1.0000 0.74749  0.78814  0.82858  Biso   1.000  Li
  H205     1.0000 0.66353  0.85261  0.07906  Biso   1.000  H
  H206     1.0000 0.66353  0.85261  0.07893  Biso   1.000  H
  H207     1.0000 0.66351  0.85256  0.07906  Biso   1.000  H
  H208     1.0000 0.66351  0.85256  0.07893  Biso   1.000  H
  N18      1.0000 0.76087  0.83261  0.27693  Biso   1.000  N
  C49      1.0000 0.85834  0.93151  0.21444  Biso   1.000  C
  N19      1.0000 0.76079  0.83261  0.27693  Biso   1.000  N
  C50      1.0000 0.85830  0.93151  0.21444  Biso   1.000  C
  H209     1.0000 0.80115  0.91600  0.66594  Biso   1.000  H
  H210     1.0000 0.80108  0.91596  0.66594  Biso   1.000  H
  O139     1.0000 0.99795  0.78763  0.39627  Biso   1.000  O
  O140     1.0000 0.88978  0.76006  0.11537  Biso   1.000  O
  O141     1.0000 0.96301  0.67308  0.07399  Biso   1.000  O
  O142     1.0000 0.99795  0.78763  0.39614  Biso   1.000  O
  O143     1.0000 0.99785  0.78758  0.39627  Biso   1.000  O
  O144     1.0000 0.88976  0.76002  0.11537  Biso   1.000  O
  O145     1.0000 0.99785  0.78758  0.39614  Biso   1.000  O
  O146     1.0000 0.06558  0.88040  0.58989  Biso   1.000  O
  O147     1.0000 0.10563  0.80902  0.49657  Biso   1.000  O
  O148     1.0000 0.10556  0.80897  0.49657  Biso   1.000  O
  H211     1.0000 0.18204  0.95739  0.19594  Biso   1.000  H
  H212     1.0000 0.18744  0.90661  0.26500  Biso   1.000  H
  H213     1.0000 0.17394  0.94679  0.39901  Biso   1.000  H
  H214     1.0000 0.18196  0.95739  0.19594  Biso   1.000  H
  H215     1.0000 0.18741  0.90657  0.26500  Biso   1.000  H
  H216     1.0000 0.17386  0.94679  0.39901  Biso   1.000  H
  H217     1.0000 0.07715  0.95581  0.31694  Biso   1.000  H
  H218     1.0000 0.08280  0.95141  0.10496  Biso   1.000  H
  H219     1.0000 0.02515  0.90068  0.21006  Biso   1.000  H
  H220     1.0000 0.02515  0.90068  0.20992  Biso   1.000  H
  H221     1.0000 0.07704  0.95576  0.31694  Biso   1.000  H
  H222     1.0000 0.08278  0.95137  0.10496  Biso   1.000  H
  H223     1.0000 0.02507  0.90068  0.21006  Biso   1.000  H
  H224     1.0000 0.02507  0.90068  0.20992  Biso   1.000  H
  O149     1.0000 0.80562  0.78464  0.01384  Biso   1.000  O
  O150     1.0000 0.78761  0.78973  0.60373  Biso   1.000  O
  O151     1.0000 0.78759  0.78968  0.60373  Biso   1.000  O
  O152     1.0000 0.67310  0.71008  0.92601  Biso   1.000  O
  H225     1.0000 0.77544  0.81799  0.19594  Biso   1.000  H
  H226     1.0000 0.71919  0.81262  0.26500  Biso   1.000  H
  H227     1.0000 0.77295  0.82612  0.39901  Biso   1.000  H
  H228     1.0000 0.77536  0.81799  0.19594  Biso   1.000  H
  H229     1.0000 0.71917  0.81257  0.26500  Biso   1.000  H
  H230     1.0000 0.77285  0.82607  0.39901  Biso   1.000  H
  H231     1.0000 0.87872  0.92292  0.31694  Biso   1.000  H
  H232     1.0000 0.86863  0.91722  0.10496  Biso   1.000  H
  H233     1.0000 0.87563  0.97491  0.21006  Biso   1.000  H
  H234     1.0000 0.87563  0.97491  0.20992  Biso   1.000  H
  H235     1.0000 0.87866  0.92287  0.31694  Biso   1.000  H
  H236     1.0000 0.86861  0.91717  0.10496  Biso   1.000  H
  H237     1.0000 0.87561  0.97487  0.21006  Biso   1.000  H
  H238     1.0000 0.87561  0.97487  0.20992  Biso   1.000  H
  P39      1.0000 0.84242  0.75338  0.97479  Biso   1.000  P
  P40      1.0000 0.84236  0.75333  0.97479  Biso   1.000  P
  H239     1.0000 0.93246  0.65341  0.01795  Biso   1.000  H
  H240     1.0000 0.98940  0.68532  0.00699  Biso   1.000  H
  H241     1.0000 0.93236  0.65336  0.01795  Biso   1.000  H
  H242     1.0000 0.98938  0.68527  0.00699  Biso   1.000  H
  H243     1.0000 0.08404  0.88512  0.66594  Biso   1.000  H
  H244     1.0000 0.08402  0.88508  0.66594  Biso   1.000  H
  P41      1.0000 0.83456  0.77043  0.56029  Biso   1.000  P
  P42      1.0000 0.83454  0.77039  0.56029  Biso   1.000  P
  H245     1.0000 0.65340  0.72101  0.98205  Biso   1.000  H
  H246     1.0000 0.68536  0.69592  0.99301  Biso   1.000  H
  H247     1.0000 0.65340  0.72101  0.98191  Biso   1.000  H
  H248     1.0000 0.65338  0.72096  0.98205  Biso   1.000  H
  H249     1.0000 0.68526  0.69587  0.99301  Biso   1.000  H
  H250     1.0000 0.65338  0.72096  0.98191  Biso   1.000  H
  O153     1.0000 0.79549  0.68265  0.93395  Biso   1.000  O
  C51      1.0000 0.88595  0.78744  0.75993  Biso   1.000  C
  C52      1.0000 0.88593  0.78739  0.75993  Biso   1.000  C
  O154     1.0000 0.80900  0.70344  0.50343  Biso   1.000  O
  O155     1.0000 0.88049  0.81486  0.41011  Biso   1.000  O
  O156     1.0000 0.88042  0.81481  0.41011  Biso   1.000  O
  H251     1.0000 0.81095  0.66350  0.92094  Biso   1.000  H
  H252     1.0000 0.81091  0.66350  0.92094  Biso   1.000  H
  N20      1.0000 0.92819  0.76081  0.72307  Biso   1.000  N
  C53      1.0000 0.92677  0.85831  0.78556  Biso   1.000  C
  C54      1.0000 0.92677  0.85831  0.78542  Biso   1.000  C
  C55      1.0000 0.92674  0.85826  0.78556  Biso   1.000  C
  C56      1.0000 0.92674  0.85826  0.78542  Biso   1.000  C
  H253     1.0000 0.88508  0.80108  0.33406  Biso   1.000  H
  H254     1.0000 0.88508  0.80108  0.33393  Biso   1.000  H
  H255     1.0000 0.95744  0.77539  0.80406  Biso   1.000  H
  H256     1.0000 0.90665  0.71918  0.73500  Biso   1.000  H
  H257     1.0000 0.94682  0.77291  0.60099  Biso   1.000  H
  H258     1.0000 0.95744  0.77539  0.80392  Biso   1.000  H
  H259     1.0000 0.95736  0.77539  0.80406  Biso   1.000  H
  H260     1.0000 0.90656  0.71918  0.73500  Biso   1.000  H
  H261     1.0000 0.94679  0.77286  0.60099  Biso   1.000  H
  H262     1.0000 0.95736  0.77539  0.80392  Biso   1.000  H
  H263     1.0000 0.95583  0.87872  0.68306  Biso   1.000  H
  H264     1.0000 0.95141  0.86859  0.89504  Biso   1.000  H
  H265     1.0000 0.90074  0.87559  0.78994  Biso   1.000  H
  H266     1.0000 0.95583  0.87872  0.68293  Biso   1.000  H
  H267     1.0000 0.95576  0.87868  0.68306  Biso   1.000  H
  H268     1.0000 0.95137  0.86859  0.89504  Biso   1.000  H
  H269     1.0000 0.90070  0.87559  0.78994  Biso   1.000  H
  H270     1.0000 0.95576  0.87868  0.68293  Biso   1.000  H
  C57      1.0000 0.07323  0.14169  0.21444  Biso   1.000  C
  C58      1.0000 0.11405  0.21256  0.24007  Biso   1.000  C
  C59      1.0000 0.11401  0.21256  0.24007  Biso   1.000  C
  H271     1.0000 0.04417  0.12128  0.31694  Biso   1.000  H
  H272     1.0000 0.04859  0.13141  0.10496  Biso   1.000  H
  H273     1.0000 0.04857  0.13137  0.10496  Biso   1.000  H
  H274     1.0000 0.09930  0.12441  0.21006  Biso   1.000  H
  H275     1.0000 0.09930  0.12441  0.20992  Biso   1.000  H
  H276     1.0000 0.09928  0.12436  0.21006  Biso   1.000  H
  H277     1.0000 0.09928  0.12436  0.20992  Biso   1.000  H
  P43      1.0000 0.15758  0.24662  0.02521  Biso   1.000  P
  P44      1.0000 0.16544  0.22957  0.43971  Biso   1.000  P
  P45      1.0000 0.16540  0.22957  0.43971  Biso   1.000  P
  N21      1.0000 0.07181  0.23919  0.27693  Biso   1.000  N
  N22      1.0000 0.07175  0.23914  0.27693  Biso   1.000  N
  C60      1.0000 0.07319  0.14169  0.21444  Biso   1.000  C
  O157     1.0000 0.19438  0.21536  0.98616  Biso   1.000  O
  O158     1.0000 0.19436  0.21532  0.98616  Biso   1.000  O
  O159     1.0000 0.20455  0.31735  0.06605  Biso   1.000  O
  O160     1.0000 0.20449  0.31730  0.06605  Biso   1.000  O
  O161     1.0000 0.11022  0.23994  0.88463  Biso   1.000  O
  O162     1.0000 0.11022  0.23994  0.88449  Biso   1.000  O
  O163     1.0000 0.11018  0.23994  0.88463  Biso   1.000  O
  O164     1.0000 0.11018  0.23994  0.88449  Biso   1.000  O
  O165     1.0000 0.21239  0.21027  0.39627  Biso   1.000  O
  O166     1.0000 0.21239  0.21027  0.39614  Biso   1.000  O
  O167     1.0000 0.21235  0.21027  0.39627  Biso   1.000  O
  O168     1.0000 0.21235  0.21027  0.39614  Biso   1.000  O
  O169     1.0000 0.11955  0.18514  0.58989  Biso   1.000  O
  O170     1.0000 0.19100  0.29656  0.49657  Biso   1.000  O
  O171     1.0000 0.19096  0.29656  0.49657  Biso   1.000  O
  H278     1.0000 0.05318  0.22709  0.39901  Biso   1.000  H
  H279     1.0000 0.04260  0.22461  0.19594  Biso   1.000  H
  H280     1.0000 0.09340  0.28082  0.26500  Biso   1.000  H
  H281     1.0000 0.04257  0.22457  0.19594  Biso   1.000  H
  H282     1.0000 0.09337  0.28077  0.26500  Biso   1.000  H
  Li23     1.0000 0.25245  0.21181  0.17142  Biso   1.000  Li
  Li24     1.0000 0.25249  0.21181  0.17142  Biso   1.000  Li
  H283     1.0000 0.18909  0.33650  0.07906  Biso   1.000  H
  H284     1.0000 0.18909  0.33650  0.07893  Biso   1.000  H
  Li25     1.0000 0.04066  0.25246  0.82858  Biso   1.000  Li
  Li26     1.0000 0.04062  0.25246  0.82858  Biso   1.000  Li
  H285     1.0000 0.11492  0.19892  0.66594  Biso   1.000  H
  H286     1.0000 0.11485  0.19887  0.66594  Biso   1.000  H
  O172     1.0000 0.23997  0.12973  0.11537  Biso   1.000  O
  O173     1.0000 0.32694  0.28992  0.07399  Biso   1.000  O
  O174     1.0000 0.23990  0.12969  0.11537  Biso   1.000  O
  O175     1.0000 0.32688  0.28988  0.07399  Biso   1.000  O
  O176     1.0000 0.97902  0.19439  0.01384  Biso   1.000  O
  O177     1.0000 0.00209  0.21237  0.60373  Biso   1.000  O
  O178     1.0000 0.03703  0.32692  0.92601  Biso   1.000  O
  O179     1.0000 0.03697  0.32688  0.92601  Biso   1.000  O
  P46      1.0000 0.24665  0.08904  0.97479  Biso   1.000  P
  P47      1.0000 0.24659  0.08900  0.97479  Biso   1.000  P
  H287     1.0000 0.31468  0.30408  0.00699  Biso   1.000  H
  H288     1.0000 0.34660  0.27899  0.01795  Biso   1.000  H
  H289     1.0000 0.34656  0.27899  0.01795  Biso   1.000  H
  P48      1.0000 0.91097  0.15758  0.97479  Biso   1.000  P
  P49      1.0000 0.91093  0.15758  0.97479  Biso   1.000  P
  P50      1.0000 0.93585  0.16542  0.56029  Biso   1.000  P
  H290     1.0000 0.06758  0.34659  0.98205  Biso   1.000  H
  H291     1.0000 0.01060  0.31468  0.99301  Biso   1.000  H
  H292     1.0000 0.06758  0.34659  0.98191  Biso   1.000  H
  H293     1.0000 0.01056  0.31468  0.99301  Biso   1.000  H
  O180     1.0000 0.21537  0.02098  0.01384  Biso   1.000  O
  O181     1.0000 0.21530  0.02093  0.01384  Biso   1.000  O
  O182     1.0000 0.31736  0.11282  0.93395  Biso   1.000  O
  C61      1.0000 0.21259  0.09853  0.75993  Biso   1.000  C
  O183     1.0000 0.31730  0.11277  0.93395  Biso   1.000  O
  C62      1.0000 0.21253  0.09848  0.75993  Biso   1.000  C
  O184     1.0000 0.88719  0.20453  0.93395  Biso   1.000  O
  C63      1.0000 0.90146  0.11404  0.75993  Biso   1.000  C
  O185     1.0000 0.88715  0.20453  0.93395  Biso   1.000  O
  O186     1.0000 0.87025  0.11021  0.11537  Biso   1.000  O
  O187     1.0000 0.89441  0.19098  0.50343  Biso   1.000  O
  O188     1.0000 0.93442  0.11960  0.41011  Biso   1.000  O
  O189     1.0000 0.93439  0.11955  0.41011  Biso   1.000  O
  Li27     1.0000 0.21187  0.95936  0.82858  Biso   1.000  Li
  Li28     1.0000 0.21176  0.95931  0.82858  Biso   1.000  Li
  H294     1.0000 0.33651  0.14739  0.92094  Biso   1.000  H
  H295     1.0000 0.33647  0.14739  0.92094  Biso   1.000  H
  P51      1.0000 0.22959  0.06414  0.56029  Biso   1.000  P
  N23      1.0000 0.23917  0.16739  0.72307  Biso   1.000  N
  C64      1.0000 0.14170  0.06849  0.78556  Biso   1.000  C
  C65      1.0000 0.14170  0.06849  0.78542  Biso   1.000  C
  P52      1.0000 0.22955  0.06414  0.56029  Biso   1.000  P
  N24      1.0000 0.23915  0.16734  0.72307  Biso   1.000  N
  C66      1.0000 0.14168  0.06844  0.78556  Biso   1.000  C
  C67      1.0000 0.14168  0.06844  0.78542  Biso   1.000  C
  H296     1.0000 0.85262  0.18911  0.92094  Biso   1.000  H
  H297     1.0000 0.85255  0.18906  0.92094  Biso   1.000  H
  N25      1.0000 0.83264  0.07180  0.72307  Biso   1.000  N
  C68      1.0000 0.93152  0.07325  0.78556  Biso   1.000  C
  C69      1.0000 0.93152  0.07325  0.78542  Biso   1.000  C
  N26      1.0000 0.83258  0.07176  0.72307  Biso   1.000  N
  C70      1.0000 0.93149  0.07321  0.78556  Biso   1.000  C
  C71      1.0000 0.93149  0.07321  0.78542  Biso   1.000  C
  Li29     1.0000 0.78817  0.04064  0.17142  Biso   1.000  Li
  H298     1.0000 0.91600  0.11488  0.33406  Biso   1.000  H
  H299     1.0000 0.91600  0.11488  0.33393  Biso   1.000  H
  H300     1.0000 0.91596  0.11488  0.33406  Biso   1.000  H
  H301     1.0000 0.91596  0.11488  0.33393  Biso   1.000  H
  O190     1.0000 0.12975  0.88979  0.88463  Biso   1.000  O
  O191     1.0000 0.28991  0.96300  0.92601  Biso   1.000  O
  O192     1.0000 0.21026  0.99790  0.60373  Biso   1.000  O
  O193     1.0000 0.12975  0.88979  0.88449  Biso   1.000  O
  O194     1.0000 0.12973  0.88975  0.88463  Biso   1.000  O
  O195     1.0000 0.28989  0.96295  0.92601  Biso   1.000  O
  O196     1.0000 0.12973  0.88975  0.88449  Biso   1.000  O
  O197     1.0000 0.29659  0.10558  0.50343  Biso   1.000  O
  O198     1.0000 0.18516  0.06559  0.41011  Biso   1.000  O
  O199     1.0000 0.29653  0.10553  0.50343  Biso   1.000  O
  O200     1.0000 0.18514  0.06554  0.41011  Biso   1.000  O
  H302     1.0000 0.22460  0.18201  0.80406  Biso   1.000  H
  H303     1.0000 0.28081  0.18738  0.73500  Biso   1.000  H
  H304     1.0000 0.22709  0.17388  0.60099  Biso   1.000  H
  H305     1.0000 0.22460  0.18201  0.80392  Biso   1.000  H
  H306     1.0000 0.22457  0.18196  0.80406  Biso   1.000  H
  H307     1.0000 0.28077  0.18738  0.73500  Biso   1.000  H
  H308     1.0000 0.22457  0.18196  0.80392  Biso   1.000  H
  H309     1.0000 0.12128  0.07708  0.68306  Biso   1.000  H
  H310     1.0000 0.13141  0.08278  0.89504  Biso   1.000  H
  H311     1.0000 0.12441  0.02509  0.78994  Biso   1.000  H
  H312     1.0000 0.12128  0.07708  0.68293  Biso   1.000  H
  H313     1.0000 0.13137  0.08278  0.89504  Biso   1.000  H
  H314     1.0000 0.12437  0.02509  0.78994  Biso   1.000  H
  H315     1.0000 0.81800  0.04261  0.80406  Biso   1.000  H
  H316     1.0000 0.81260  0.09339  0.73500  Biso   1.000  H
  H317     1.0000 0.82610  0.05321  0.60099  Biso   1.000  H
  H318     1.0000 0.81800  0.04261  0.80392  Biso   1.000  H
  H319     1.0000 0.81798  0.04256  0.80406  Biso   1.000  H
  H320     1.0000 0.81256  0.09339  0.73500  Biso   1.000  H
  H321     1.0000 0.82607  0.05316  0.60099  Biso   1.000  H
  H322     1.0000 0.81798  0.04256  0.80392  Biso   1.000  H
  H323     1.0000 0.92289  0.04419  0.68306  Biso   1.000  H
  H324     1.0000 0.91720  0.04859  0.89504  Biso   1.000  H
  H325     1.0000 0.97489  0.09932  0.78994  Biso   1.000  H
  H326     1.0000 0.92289  0.04419  0.68293  Biso   1.000  H
  H327     1.0000 0.91716  0.04859  0.89504  Biso   1.000  H
  H328     1.0000 0.97487  0.09927  0.78994  Biso   1.000  H
  O201     1.0000 0.78463  0.97902  0.98616  Biso   1.000  O
  O202     1.0000 0.78974  0.00210  0.39627  Biso   1.000  O
  O203     1.0000 0.71009  0.03700  0.07399  Biso   1.000  O
  O204     1.0000 0.78974  0.00210  0.39614  Biso   1.000  O
  O205     1.0000 0.78970  0.00210  0.39627  Biso   1.000  O
  O206     1.0000 0.71005  0.03700  0.07399  Biso   1.000  O
  O207     1.0000 0.78970  0.00210  0.39614  Biso   1.000  O
  P53      1.0000 0.08907  0.84242  0.02521  Biso   1.000  P
  P54      1.0000 0.08905  0.84238  0.02521  Biso   1.000  P
  H329     1.0000 0.27898  0.93240  0.98205  Biso   1.000  H
  H330     1.0000 0.30408  0.98940  0.99301  Biso   1.000  H
  H331     1.0000 0.27898  0.93240  0.98191  Biso   1.000  H
  H332     1.0000 0.19889  0.08400  0.33406  Biso   1.000  H
  H333     1.0000 0.19889  0.08400  0.33393  Biso   1.000  H
  P55      1.0000 0.75339  0.91096  0.02521  Biso   1.000  P
  P56      1.0000 0.77045  0.93586  0.43971  Biso   1.000  P
  P57      1.0000 0.77043  0.93581  0.43971  Biso   1.000  P
  H334     1.0000 0.72102  0.06760  0.01795  Biso   1.000  H
  H335     1.0000 0.69592  0.01060  0.00699  Biso   1.000  H
  H336     1.0000 0.72098  0.06760  0.01795  Biso   1.000  H
  H337     1.0000 0.69586  0.01056  0.00699  Biso   1.000  H
  O208     1.0000 0.02098  0.80561  0.98616  Biso   1.000  O
  O209     1.0000 0.11281  0.79547  0.06605  Biso   1.000  O
  C72      1.0000 0.09854  0.88596  0.24007  Biso   1.000  C
  O210     1.0000 0.11279  0.79543  0.06605  Biso   1.000  O
  C73      1.0000 0.09852  0.88592  0.24007  Biso   1.000  C
  O211     1.0000 0.76007  0.87027  0.88463  Biso   1.000  O
  O212     1.0000 0.76007  0.87027  0.88449  Biso   1.000  O
  O213     1.0000 0.68268  0.88718  0.06605  Biso   1.000  O
  C74      1.0000 0.78741  0.90147  0.24007  Biso   1.000  C
  O214     1.0000 0.70341  0.89442  0.49657  Biso   1.000  O
  O215     1.0000 0.81488  0.93441  0.58989  Biso   1.000  O
  O216     1.0000 0.81480  0.93441  0.58989  Biso   1.000  O
  Li30     1.0000 0.95934  0.74754  0.17142  Biso   1.000  Li
  Li31     1.0000 0.95932  0.74750  0.17142  Biso   1.000  Li
  H338     1.0000 0.14742  0.81089  0.07906  Biso   1.000  H
  H339     1.0000 0.14742  0.81089  0.07893  Biso   1.000  H
  P58      1.0000 0.06419  0.83458  0.43971  Biso   1.000  P
  N27      1.0000 0.16736  0.92820  0.27693  Biso   1.000  N
  C75      1.0000 0.06852  0.92675  0.21444  Biso   1.000  C
  P59      1.0000 0.06413  0.83453  0.43971  Biso   1.000  P
  C76      1.0000 0.06848  0.92675  0.21444  Biso   1.000  C
  Li32     1.0000 0.74751  0.78819  0.82858  Biso   1.000  Li
  Li33     1.0000 0.74749  0.78814  0.82858  Biso   1.000  Li
  H340     1.0000 0.66353  0.85261  0.07906  Biso   1.000  H
  H341     1.0000 0.66353  0.85261  0.07893  Biso   1.000  H
  H342     1.0000 0.66351  0.85256  0.07906  Biso   1.000  H
  H343     1.0000 0.66351  0.85256  0.07893  Biso   1.000  H
  N28      1.0000 0.76087  0.83261  0.27693  Biso   1.000  N
  C77      1.0000 0.85834  0.93151  0.21444  Biso   1.000  C
  N29      1.0000 0.76079  0.83261  0.27693  Biso   1.000  N
  C78      1.0000 0.85830  0.93151  0.21444  Biso   1.000  C
  H344     1.0000 0.80115  0.91600  0.66594  Biso   1.000  H
  H345     1.0000 0.80108  0.91596  0.66594  Biso   1.000  H
  O217     1.0000 0.99795  0.78763  0.39627  Biso   1.000  O
  O218     1.0000 0.88978  0.76006  0.11537  Biso   1.000  O
  O219     1.0000 0.96301  0.67308  0.07399  Biso   1.000  O
  O220     1.0000 0.99795  0.78763  0.39614  Biso   1.000  O
  O221     1.0000 0.99785  0.78758  0.39627  Biso   1.000  O
  O222     1.0000 0.88976  0.76002  0.11537  Biso   1.000  O
  O223     1.0000 0.99785  0.78758  0.39614  Biso   1.000  O
  O224     1.0000 0.06558  0.88040  0.58989  Biso   1.000  O
  O225     1.0000 0.10563  0.80902  0.49657  Biso   1.000  O
  O226     1.0000 0.10556  0.80897  0.49657  Biso   1.000  O
  H346     1.0000 0.18204  0.95739  0.19594  Biso   1.000  H
  H347     1.0000 0.18744  0.90661  0.26500  Biso   1.000  H
  H348     1.0000 0.17394  0.94679  0.39901  Biso   1.000  H
  H349     1.0000 0.18196  0.95739  0.19594  Biso   1.000  H
  H350     1.0000 0.18741  0.90657  0.26500  Biso   1.000  H
  H351     1.0000 0.17386  0.94679  0.39901  Biso   1.000  H
  H352     1.0000 0.07715  0.95581  0.31694  Biso   1.000  H
  H353     1.0000 0.08280  0.95141  0.10496  Biso   1.000  H
  H354     1.0000 0.02515  0.90068  0.21006  Biso   1.000  H
  H355     1.0000 0.02515  0.90068  0.20992  Biso   1.000  H
  H356     1.0000 0.07704  0.95576  0.31694  Biso   1.000  H
  H357     1.0000 0.08278  0.95137  0.10496  Biso   1.000  H
  H358     1.0000 0.02507  0.90068  0.21006  Biso   1.000  H
  H359     1.0000 0.02507  0.90068  0.20992  Biso   1.000  H
  O227     1.0000 0.80562  0.78464  0.01384  Biso   1.000  O
  O228     1.0000 0.78761  0.78973  0.60373  Biso   1.000  O
  O229     1.0000 0.78759  0.78968  0.60373  Biso   1.000  O
  O230     1.0000 0.67310  0.71008  0.92601  Biso   1.000  O
  H360     1.0000 0.77544  0.81799  0.19594  Biso   1.000  H
  H361     1.0000 0.71919  0.81262  0.26500  Biso   1.000  H
  H362     1.0000 0.77295  0.82612  0.39901  Biso   1.000  H
  H363     1.0000 0.77536  0.81799  0.19594  Biso   1.000  H
  H364     1.0000 0.71917  0.81257  0.26500  Biso   1.000  H
  H365     1.0000 0.77285  0.82607  0.39901  Biso   1.000  H
  H366     1.0000 0.87872  0.92292  0.31694  Biso   1.000  H
  H367     1.0000 0.86863  0.91722  0.10496  Biso   1.000  H
  H368     1.0000 0.87563  0.97491  0.21006  Biso   1.000  H
  H369     1.0000 0.87563  0.97491  0.20992  Biso   1.000  H
  H370     1.0000 0.87866  0.92287  0.31694  Biso   1.000  H
  H371     1.0000 0.86861  0.91717  0.10496  Biso   1.000  H
  H372     1.0000 0.87561  0.97487  0.21006  Biso   1.000  H
  H373     1.0000 0.87561  0.97487  0.20992  Biso   1.000  H
  P60      1.0000 0.84242  0.75338  0.97479  Biso   1.000  P
  P61      1.0000 0.84236  0.75333  0.97479  Biso   1.000  P
  H374     1.0000 0.93246  0.65341  0.01795  Biso   1.000  H
  H375     1.0000 0.98940  0.68532  0.00699  Biso   1.000  H
  H376     1.0000 0.93236  0.65336  0.01795  Biso   1.000  H
  H377     1.0000 0.98938  0.68527  0.00699  Biso   1.000  H
  H378     1.0000 0.08404  0.88512  0.66594  Biso   1.000  H
  H379     1.0000 0.08402  0.88508  0.66594  Biso   1.000  H
  P62      1.0000 0.83456  0.77043  0.56029  Biso   1.000  P
  P63      1.0000 0.83454  0.77039  0.56029  Biso   1.000  P
  H380     1.0000 0.65340  0.72101  0.98205  Biso   1.000  H
  H381     1.0000 0.68536  0.69592  0.99301  Biso   1.000  H
  H382     1.0000 0.65340  0.72101  0.98191  Biso   1.000  H
  H383     1.0000 0.65338  0.72096  0.98205  Biso   1.000  H
  H384     1.0000 0.68526  0.69587  0.99301  Biso   1.000  H
  H385     1.0000 0.65338  0.72096  0.98191  Biso   1.000  H
  O231     1.0000 0.79549  0.68265  0.93395  Biso   1.000  O
  C79      1.0000 0.88595  0.78744  0.75993  Biso   1.000  C
  C80      1.0000 0.88593  0.78739  0.75993  Biso   1.000  C
  O232     1.0000 0.80900  0.70344  0.50343  Biso   1.000  O
  O233     1.0000 0.88049  0.81486  0.41011  Biso   1.000  O
  O234     1.0000 0.88042  0.81481  0.41011  Biso   1.000  O
  H386     1.0000 0.81095  0.66350  0.92094  Biso   1.000  H
  H387     1.0000 0.81091  0.66350  0.92094  Biso   1.000  H
  N30      1.0000 0.92819  0.76081  0.72307  Biso   1.000  N
  C81      1.0000 0.92677  0.85831  0.78556  Biso   1.000  C
  C82      1.0000 0.92677  0.85831  0.78542  Biso   1.000  C
  C83      1.0000 0.92674  0.85826  0.78556  Biso   1.000  C
  C84      1.0000 0.92674  0.85826  0.78542  Biso   1.000  C
  H388     1.0000 0.88508  0.80108  0.33406  Biso   1.000  H
  H389     1.0000 0.88508  0.80108  0.33393  Biso   1.000  H
  H390     1.0000 0.95744  0.77539  0.80406  Biso   1.000  H
  H391     1.0000 0.90665  0.71918  0.73500  Biso   1.000  H
  H392     1.0000 0.94682  0.77291  0.60099  Biso   1.000  H
  H393     1.0000 0.95744  0.77539  0.80392  Biso   1.000  H
  H394     1.0000 0.95736  0.77539  0.80406  Biso   1.000  H
  H395     1.0000 0.90656  0.71918  0.73500  Biso   1.000  H
  H396     1.0000 0.94679  0.77286  0.60099  Biso   1.000  H
  H397     1.0000 0.95736  0.77539  0.80392  Biso   1.000  H
  H398     1.0000 0.95583  0.87872  0.68306  Biso   1.000  H
  H399     1.0000 0.95141  0.86859  0.89504  Biso   1.000  H
  H400     1.0000 0.90074  0.87559  0.78994  Biso   1.000  H
  H401     1.0000 0.95583  0.87872  0.68293  Biso   1.000  H
  H402     1.0000 0.95576  0.87868  0.68306  Biso   1.000  H
  H403     1.0000 0.95137  0.86859  0.89504  Biso   1.000  H
  H404     1.0000 0.90070  0.87559  0.78994  Biso   1.000  H
  H405     1.0000 0.95576  0.87868  0.68293  Biso   1.000  H
  C85      1.0000 0.07323  0.14169  0.21444  Biso   1.000  C
  C86      1.0000 0.11405  0.21256  0.24007  Biso   1.000  C
  C87      1.0000 0.11401  0.21256  0.24007  Biso   1.000  C
  H406     1.0000 0.04417  0.12128  0.31694  Biso   1.000  H
  H407     1.0000 0.04859  0.13141  0.10496  Biso   1.000  H
  H408     1.0000 0.04857  0.13137  0.10496  Biso   1.000  H
  H409     1.0000 0.09930  0.12441  0.21006  Biso   1.000  H
  H410     1.0000 0.09930  0.12441  0.20992  Biso   1.000  H
  H411     1.0000 0.09928  0.12436  0.21006  Biso   1.000  H
  H412     1.0000 0.09928  0.12436  0.20992  Biso   1.000  H
  P64      1.0000 0.15758  0.24662  0.02521  Biso   1.000  P
  P65      1.0000 0.16544  0.22957  0.43971  Biso   1.000  P
  P66      1.0000 0.16540  0.22957  0.43971  Biso   1.000  P
  N31      1.0000 0.07181  0.23919  0.27693  Biso   1.000  N
  N32      1.0000 0.07175  0.23914  0.27693  Biso   1.000  N
  C88      1.0000 0.07319  0.14169  0.21444  Biso   1.000  C
  O235     1.0000 0.19438  0.21536  0.98616  Biso   1.000  O
  O236     1.0000 0.19436  0.21532  0.98616  Biso   1.000  O
  O237     1.0000 0.20455  0.31735  0.06605  Biso   1.000  O
  O238     1.0000 0.20449  0.31730  0.06605  Biso   1.000  O
  O239     1.0000 0.11022  0.23994  0.88463  Biso   1.000  O
  O240     1.0000 0.11022  0.23994  0.88449  Biso   1.000  O
  O241     1.0000 0.11018  0.23994  0.88463  Biso   1.000  O
  O242     1.0000 0.11018  0.23994  0.88449  Biso   1.000  O
  O243     1.0000 0.21239  0.21027  0.39627  Biso   1.000  O
  O244     1.0000 0.21239  0.21027  0.39614  Biso   1.000  O
  O245     1.0000 0.21235  0.21027  0.39627  Biso   1.000  O
  O246     1.0000 0.21235  0.21027  0.39614  Biso   1.000  O
  O247     1.0000 0.11955  0.18514  0.58989  Biso   1.000  O
  O248     1.0000 0.19100  0.29656  0.49657  Biso   1.000  O
  O249     1.0000 0.19096  0.29656  0.49657  Biso   1.000  O
  H413     1.0000 0.05318  0.22709  0.39901  Biso   1.000  H
  H414     1.0000 0.04260  0.22461  0.19594  Biso   1.000  H
  H415     1.0000 0.09340  0.28082  0.26500  Biso   1.000  H
  H416     1.0000 0.04257  0.22457  0.19594  Biso   1.000  H
  H417     1.0000 0.09337  0.28077  0.26500  Biso   1.000  H
  Li34     1.0000 0.25245  0.21181  0.17142  Biso   1.000  Li
  Li35     1.0000 0.25249  0.21181  0.17142  Biso   1.000  Li
  H418     1.0000 0.18909  0.33650  0.07906  Biso   1.000  H
  H419     1.0000 0.18909  0.33650  0.07893  Biso   1.000  H
  Li36     1.0000 0.04066  0.25246  0.82858  Biso   1.000  Li
  Li37     1.0000 0.04062  0.25246  0.82858  Biso   1.000  Li
  H420     1.0000 0.11492  0.19892  0.66594  Biso   1.000  H
  H421     1.0000 0.11485  0.19887  0.66594  Biso   1.000  H
  O250     1.0000 0.23997  0.12973  0.11537  Biso   1.000  O
  O251     1.0000 0.32694  0.28992  0.07399  Biso   1.000  O
  O252     1.0000 0.23990  0.12969  0.11537  Biso   1.000  O
  O253     1.0000 0.32688  0.28988  0.07399  Biso   1.000  O
  O254     1.0000 0.97902  0.19439  0.01384  Biso   1.000  O
  O255     1.0000 0.00209  0.21237  0.60373  Biso   1.000  O
  O256     1.0000 0.03703  0.32692  0.92601  Biso   1.000  O
  O257     1.0000 0.03697  0.32688  0.92601  Biso   1.000  O
  P67      1.0000 0.24665  0.08904  0.97479  Biso   1.000  P
  P68      1.0000 0.24659  0.08900  0.97479  Biso   1.000  P
  H422     1.0000 0.31468  0.30408  0.00699  Biso   1.000  H
  H423     1.0000 0.34660  0.27899  0.01795  Biso   1.000  H
  H424     1.0000 0.34656  0.27899  0.01795  Biso   1.000  H
  P69      1.0000 0.91097  0.15758  0.97479  Biso   1.000  P
  P70      1.0000 0.91093  0.15758  0.97479  Biso   1.000  P
  P71      1.0000 0.93585  0.16542  0.56029  Biso   1.000  P
  H425     1.0000 0.06758  0.34659  0.98205  Biso   1.000  H
  H426     1.0000 0.01060  0.31468  0.99301  Biso   1.000  H
  H427     1.0000 0.06758  0.34659  0.98191  Biso   1.000  H
  H428     1.0000 0.01056  0.31468  0.99301  Biso   1.000  H
  O258     1.0000 0.21537  0.02098  0.01384  Biso   1.000  O
  O259     1.0000 0.21530  0.02093  0.01384  Biso   1.000  O
  O260     1.0000 0.31736  0.11282  0.93395  Biso   1.000  O
  C89      1.0000 0.21259  0.09853  0.75993  Biso   1.000  C
  O261     1.0000 0.31730  0.11277  0.93395  Biso   1.000  O
  C90      1.0000 0.21253  0.09848  0.75993  Biso   1.000  C
  O262     1.0000 0.88719  0.20453  0.93395  Biso   1.000  O
  C91      1.0000 0.90146  0.11404  0.75993  Biso   1.000  C
  O263     1.0000 0.88715  0.20453  0.93395  Biso   1.000  O
  O264     1.0000 0.87025  0.11021  0.11537  Biso   1.000  O
  O265     1.0000 0.89441  0.19098  0.50343  Biso   1.000  O
  O266     1.0000 0.93442  0.11960  0.41011  Biso   1.000  O
  O267     1.0000 0.93439  0.11955  0.41011  Biso   1.000  O
  Li38     1.0000 0.21187  0.95936  0.82858  Biso   1.000  Li
  Li39     1.0000 0.21176  0.95931  0.82858  Biso   1.000  Li
  H429     1.0000 0.33651  0.14739  0.92094  Biso   1.000  H
  H430     1.0000 0.33647  0.14739  0.92094  Biso   1.000  H
  P72      1.0000 0.22959  0.06414  0.56029  Biso   1.000  P
  N33      1.0000 0.23917  0.16739  0.72307  Biso   1.000  N
  C92      1.0000 0.14170  0.06849  0.78556  Biso   1.000  C
  C93      1.0000 0.14170  0.06849  0.78542  Biso   1.000  C
  P73      1.0000 0.22955  0.06414  0.56029  Biso   1.000  P
  N34      1.0000 0.23915  0.16734  0.72307  Biso   1.000  N
  C94      1.0000 0.14168  0.06844  0.78556  Biso   1.000  C
  C95      1.0000 0.14168  0.06844  0.78542  Biso   1.000  C
  H431     1.0000 0.85262  0.18911  0.92094  Biso   1.000  H
  H432     1.0000 0.85255  0.18906  0.92094  Biso   1.000  H
  N35      1.0000 0.83264  0.07180  0.72307  Biso   1.000  N
  C96      1.0000 0.93152  0.07325  0.78556  Biso   1.000  C
  C97      1.0000 0.93152  0.07325  0.78542  Biso   1.000  C
  N36      1.0000 0.83258  0.07176  0.72307  Biso   1.000  N
  C98      1.0000 0.93149  0.07321  0.78556  Biso   1.000  C
  C99      1.0000 0.93149  0.07321  0.78542  Biso   1.000  C
  Li40     1.0000 0.78817  0.04064  0.17142  Biso   1.000  Li
  H433     1.0000 0.91600  0.11488  0.33406  Biso   1.000  H
  H434     1.0000 0.91600  0.11488  0.33393  Biso   1.000  H
  H435     1.0000 0.91596  0.11488  0.33406  Biso   1.000  H
  H436     1.0000 0.91596  0.11488  0.33393  Biso   1.000  H
  O268     1.0000 0.12975  0.88979  0.88463  Biso   1.000  O
  O269     1.0000 0.28991  0.96300  0.92601  Biso   1.000  O
  O270     1.0000 0.21026  0.99790  0.60373  Biso   1.000  O
  O271     1.0000 0.12975  0.88979  0.88449  Biso   1.000  O
  O272     1.0000 0.12973  0.88975  0.88463  Biso   1.000  O
  O273     1.0000 0.28989  0.96295  0.92601  Biso   1.000  O
  O274     1.0000 0.12973  0.88975  0.88449  Biso   1.000  O
  O275     1.0000 0.29659  0.10558  0.50343  Biso   1.000  O
  O276     1.0000 0.18516  0.06559  0.41011  Biso   1.000  O
  O277     1.0000 0.29653  0.10553  0.50343  Biso   1.000  O
  O278     1.0000 0.18514  0.06554  0.41011  Biso   1.000  O
  H437     1.0000 0.22460  0.18201  0.80406  Biso   1.000  H
  H438     1.0000 0.28081  0.18738  0.73500  Biso   1.000  H
  H439     1.0000 0.22709  0.17388  0.60099  Biso   1.000  H
  H440     1.0000 0.22460  0.18201  0.80392  Biso   1.000  H
  H441     1.0000 0.22457  0.18196  0.80406  Biso   1.000  H
  H442     1.0000 0.28077  0.18738  0.73500  Biso   1.000  H
  H443     1.0000 0.22457  0.18196  0.80392  Biso   1.000  H
  H444     1.0000 0.12128  0.07708  0.68306  Biso   1.000  H
  H445     1.0000 0.13141  0.08278  0.89504  Biso   1.000  H
  H446     1.0000 0.12441  0.02509  0.78994  Biso   1.000  H
  H447     1.0000 0.12128  0.07708  0.68293  Biso   1.000  H
  H448     1.0000 0.13137  0.08278  0.89504  Biso   1.000  H
  H449     1.0000 0.12437  0.02509  0.78994  Biso   1.000  H
  H450     1.0000 0.81800  0.04261  0.80406  Biso   1.000  H
  H451     1.0000 0.81260  0.09339  0.73500  Biso   1.000  H
  H452     1.0000 0.82610  0.05321  0.60099  Biso   1.000  H
  H453     1.0000 0.81800  0.04261  0.80392  Biso   1.000  H
  H454     1.0000 0.81798  0.04256  0.80406  Biso   1.000  H
  H455     1.0000 0.81256  0.09339  0.73500  Biso   1.000  H
  H456     1.0000 0.82607  0.05316  0.60099  Biso   1.000  H
  H457     1.0000 0.81798  0.04256  0.80392  Biso   1.000  H
  H458     1.0000 0.92289  0.04419  0.68306  Biso   1.000  H
  H459     1.0000 0.91720  0.04859  0.89504  Biso   1.000  H
  H460     1.0000 0.97489  0.09932  0.78994  Biso   1.000  H
  H461     1.0000 0.92289  0.04419  0.68293  Biso   1.000  H
  H462     1.0000 0.91716  0.04859  0.89504  Biso   1.000  H
  H463     1.0000 0.97487  0.09927  0.78994  Biso   1.000  H
  O279     1.0000 0.78463  0.97902  0.98616  Biso   1.000  O
  O280     1.0000 0.78974  0.00210  0.39627  Biso   1.000  O
  O281     1.0000 0.71009  0.03700  0.07399  Biso   1.000  O
  O282     1.0000 0.78974  0.00210  0.39614  Biso   1.000  O
  O283     1.0000 0.78970  0.00210  0.39627  Biso   1.000  O
  O284     1.0000 0.71005  0.03700  0.07399  Biso   1.000  O
  O285     1.0000 0.78970  0.00210  0.39614  Biso   1.000  O
  P74      1.0000 0.08907  0.84242  0.02521  Biso   1.000  P
  P75      1.0000 0.08905  0.84238  0.02521  Biso   1.000  P
  H464     1.0000 0.27898  0.93240  0.98205  Biso   1.000  H
  H465     1.0000 0.30408  0.98940  0.99301  Biso   1.000  H
  H466     1.0000 0.27898  0.93240  0.98191  Biso   1.000  H
  H467     1.0000 0.19889  0.08400  0.33406  Biso   1.000  H
  H468     1.0000 0.19889  0.08400  0.33393  Biso   1.000  H
  P76      1.0000 0.75339  0.91096  0.02521  Biso   1.000  P
  P77      1.0000 0.77045  0.93586  0.43971  Biso   1.000  P
  P78      1.0000 0.77043  0.93581  0.43971  Biso   1.000  P
  H469     1.0000 0.72102  0.06760  0.01795  Biso   1.000  H
  H470     1.0000 0.69592  0.01060  0.00699  Biso   1.000  H
  H471     1.0000 0.72098  0.06760  0.01795  Biso   1.000  H
  H472     1.0000 0.69586  0.01056  0.00699  Biso   1.000  H
  O286     1.0000 0.02098  0.80561  0.98616  Biso   1.000  O
  O287     1.0000 0.11281  0.79547  0.06605  Biso   1.000  O
  C100     1.0000 0.09854  0.88596  0.24007  Biso   1.000  C
  O288     1.0000 0.11279  0.79543  0.06605  Biso   1.000  O
  C101     1.0000 0.09852  0.88592  0.24007  Biso   1.000  C
  O289     1.0000 0.76007  0.87027  0.88463  Biso   1.000  O
  O290     1.0000 0.76007  0.87027  0.88449  Biso   1.000  O
  O291     1.0000 0.68268  0.88718  0.06605  Biso   1.000  O
  C102     1.0000 0.78741  0.90147  0.24007  Biso   1.000  C
  O292     1.0000 0.70341  0.89442  0.49657  Biso   1.000  O
  O293     1.0000 0.81488  0.93441  0.58989  Biso   1.000  O
  O294     1.0000 0.81480  0.93441  0.58989  Biso   1.000  O
  Li41     1.0000 0.95934  0.74754  0.17142  Biso   1.000  Li
  Li42     1.0000 0.95932  0.74750  0.17142  Biso   1.000  Li
  H473     1.0000 0.14742  0.81089  0.07906  Biso   1.000  H
  H474     1.0000 0.14742  0.81089  0.07893  Biso   1.000  H
  P79      1.0000 0.06419  0.83458  0.43971  Biso   1.000  P
  N37      1.0000 0.16736  0.92820  0.27693  Biso   1.000  N
  C103     1.0000 0.06852  0.92675  0.21444  Biso   1.000  C
  P80      1.0000 0.06413  0.83453  0.43971  Biso   1.000  P
  C104     1.0000 0.06848  0.92675  0.21444  Biso   1.000  C
  Li43     1.0000 0.74751  0.78819  0.82858  Biso   1.000  Li
  Li44     1.0000 0.74749  0.78814  0.82858  Biso   1.000  Li
  H475     1.0000 0.66353  0.85261  0.07906  Biso   1.000  H
  H476     1.0000 0.66353  0.85261  0.07893  Biso   1.000  H
  H477     1.0000 0.66351  0.85256  0.07906  Biso   1.000  H
  H478     1.0000 0.66351  0.85256  0.07893  Biso   1.000  H
  N38      1.0000 0.76087  0.83261  0.27693  Biso   1.000  N
  C105     1.0000 0.85834  0.93151  0.21444  Biso   1.000  C
  N39      1.0000 0.76079  0.83261  0.27693  Biso   1.000  N
  C106     1.0000 0.85830  0.93151  0.21444  Biso   1.000  C
  H479     1.0000 0.80115  0.91600  0.66594  Biso   1.000  H
  H480     1.0000 0.80108  0.91596  0.66594  Biso   1.000  H
  O295     1.0000 0.99795  0.78763  0.39627  Biso   1.000  O
  O296     1.0000 0.88978  0.76006  0.11537  Biso   1.000  O
  O297     1.0000 0.96301  0.67308  0.07399  Biso   1.000  O
  O298     1.0000 0.99795  0.78763  0.39614  Biso   1.000  O
  O299     1.0000 0.99785  0.78758  0.39627  Biso   1.000  O
  O300     1.0000 0.88976  0.76002  0.11537  Biso   1.000  O
  O301     1.0000 0.99785  0.78758  0.39614  Biso   1.000  O
  O302     1.0000 0.06558  0.88040  0.58989  Biso   1.000  O
  O303     1.0000 0.10563  0.80902  0.49657  Biso   1.000  O
  O304     1.0000 0.10556  0.80897  0.49657  Biso   1.000  O
  H481     1.0000 0.18204  0.95739  0.19594  Biso   1.000  H
  H482     1.0000 0.18744  0.90661  0.26500  Biso   1.000  H
  H483     1.0000 0.17394  0.94679  0.39901  Biso   1.000  H
  H484     1.0000 0.18196  0.95739  0.19594  Biso   1.000  H
  H485     1.0000 0.18741  0.90657  0.26500  Biso   1.000  H
  H486     1.0000 0.17386  0.94679  0.39901  Biso   1.000  H
  H487     1.0000 0.07715  0.95581  0.31694  Biso   1.000  H
  H488     1.0000 0.08280  0.95141  0.10496  Biso   1.000  H
  H489     1.0000 0.02515  0.90068  0.21006  Biso   1.000  H
  H490     1.0000 0.02515  0.90068  0.20992  Biso   1.000  H
  H491     1.0000 0.07704  0.95576  0.31694  Biso   1.000  H
  H492     1.0000 0.08278  0.95137  0.10496  Biso   1.000  H
  H493     1.0000 0.02507  0.90068  0.21006  Biso   1.000  H
  H494     1.0000 0.02507  0.90068  0.20992  Biso   1.000  H
  O305     1.0000 0.80562  0.78464  0.01384  Biso   1.000  O
  O306     1.0000 0.78761  0.78973  0.60373  Biso   1.000  O
  O307     1.0000 0.78759  0.78968  0.60373  Biso   1.000  O
  O308     1.0000 0.67310  0.71008  0.92601  Biso   1.000  O
  H495     1.0000 0.77544  0.81799  0.19594  Biso   1.000  H
  H496     1.0000 0.71919  0.81262  0.26500  Biso   1.000  H
  H497     1.0000 0.77295  0.82612  0.39901  Biso   1.000  H
  H498     1.0000 0.77536  0.81799  0.19594  Biso   1.000  H
  H499     1.0000 0.71917  0.81257  0.26500  Biso   1.000  H
  H500     1.0000 0.77285  0.82607  0.39901  Biso   1.000  H
  H501     1.0000 0.87872  0.92292  0.31694  Biso   1.000  H
  H502     1.0000 0.86863  0.91722  0.10496  Biso   1.000  H
  H503     1.0000 0.87563  0.97491  0.21006  Biso   1.000  H
  H504     1.0000 0.87563  0.97491  0.20992  Biso   1.000  H
  H505     1.0000 0.87866  0.92287  0.31694  Biso   1.000  H
  H506     1.0000 0.86861  0.91717  0.10496  Biso   1.000  H
  H507     1.0000 0.87561  0.97487  0.21006  Biso   1.000  H
  H508     1.0000 0.87561  0.97487  0.20992  Biso   1.000  H
  P81      1.0000 0.84242  0.75338  0.97479  Biso   1.000  P
  P82      1.0000 0.84236  0.75333  0.97479  Biso   1.000  P
  H509     1.0000 0.93246  0.65341  0.01795  Biso   1.000  H
  H510     1.0000 0.98940  0.68532  0.00699  Biso   1.000  H
  H511     1.0000 0.93236  0.65336  0.01795  Biso   1.000  H
  H512     1.0000 0.98938  0.68527  0.00699  Biso   1.000  H
  H513     1.0000 0.08404  0.88512  0.66594  Biso   1.000  H
  H514     1.0000 0.08402  0.88508  0.66594  Biso   1.000  H
  P83      1.0000 0.83456  0.77043  0.56029  Biso   1.000  P
  P84      1.0000 0.83454  0.77039  0.56029  Biso   1.000  P
  H515     1.0000 0.65340  0.72101  0.98205  Biso   1.000  H
  H516     1.0000 0.68536  0.69592  0.99301  Biso   1.000  H
  H517     1.0000 0.65340  0.72101  0.98191  Biso   1.000  H
  H518     1.0000 0.65338  0.72096  0.98205  Biso   1.000  H
  H519     1.0000 0.68526  0.69587  0.99301  Biso   1.000  H
  H520     1.0000 0.65338  0.72096  0.98191  Biso   1.000  H
  O309     1.0000 0.79549  0.68265  0.93395  Biso   1.000  O
  C107     1.0000 0.88595  0.78744  0.75993  Biso   1.000  C
  C108     1.0000 0.88593  0.78739  0.75993  Biso   1.000  C
  O310     1.0000 0.80900  0.70344  0.50343  Biso   1.000  O
  O311     1.0000 0.88049  0.81486  0.41011  Biso   1.000  O
  O312     1.0000 0.88042  0.81481  0.41011  Biso   1.000  O
  H521     1.0000 0.81095  0.66350  0.92094  Biso   1.000  H
  H522     1.0000 0.81091  0.66350  0.92094  Biso   1.000  H
  N40      1.0000 0.92819  0.76081  0.72307  Biso   1.000  N
  C109     1.0000 0.92677  0.85831  0.78556  Biso   1.000  C
  C110     1.0000 0.92677  0.85831  0.78542  Biso   1.000  C
  C111     1.0000 0.92674  0.85826  0.78556  Biso   1.000  C
  C112     1.0000 0.92674  0.85826  0.78542  Biso   1.000  C
  H523     1.0000 0.88508  0.80108  0.33406  Biso   1.000  H
  H524     1.0000 0.88508  0.80108  0.33393  Biso   1.000  H
  H525     1.0000 0.95744  0.77539  0.80406  Biso   1.000  H
  H526     1.0000 0.90665  0.71918  0.73500  Biso   1.000  H
  H527     1.0000 0.94682  0.77291  0.60099  Biso   1.000  H
  H528     1.0000 0.95744  0.77539  0.80392  Biso   1.000  H
  H529     1.0000 0.95736  0.77539  0.80406  Biso   1.000  H
  H530     1.0000 0.90656  0.71918  0.73500  Biso   1.000  H
  H531     1.0000 0.94679  0.77286  0.60099  Biso   1.000  H
  H532     1.0000 0.95736  0.77539  0.80392  Biso   1.000  H
  H533     1.0000 0.95583  0.87872  0.68306  Biso   1.000  H
  H534     1.0000 0.95141  0.86859  0.89504  Biso   1.000  H
  H535     1.0000 0.90074  0.87559  0.78994  Biso   1.000  H
  H536     1.0000 0.95583  0.87872  0.68293  Biso   1.000  H
  H537     1.0000 0.95576  0.87868  0.68306  Biso   1.000  H
  H538     1.0000 0.95137  0.86859  0.89504  Biso   1.000  H
  H539     1.0000 0.90070  0.87559  0.78994  Biso   1.000  H
  H540     1.0000 0.95576  0.87868  0.68293  Biso   1.000  H
  C113     1.0000 0.07323  0.14169  0.21444  Biso   1.000  C
  C114     1.0000 0.11405  0.21256  0.24007  Biso   1.000  C
  C115     1.0000 0.11401  0.21256  0.24007  Biso   1.000  C
  H541     1.0000 0.04417  0.12128  0.31694  Biso   1.000  H
  H542     1.0000 0.04859  0.13141  0.10496  Biso   1.000  H
  H543     1.0000 0.09930  0.12441  0.21006  Biso   1.000  H
  H544     1.0000 0.09930  0.12441  0.20992  Biso   1.000  H
  H545     1.0000 0.04857  0.13137  0.10496  Biso   1.000  H
  H546     1.0000 0.09928  0.12436  0.21006  Biso   1.000  H
  H547     1.0000 0.09928  0.12436  0.20992  Biso   1.000  H
  P85      1.0000 0.15758  0.24662  0.02521  Biso   1.000  P
  P86      1.0000 0.16544  0.22957  0.43971  Biso   1.000  P
  N41      1.0000 0.07181  0.23919  0.27693  Biso   1.000  N
  P87      1.0000 0.16540  0.22957  0.43971  Biso   1.000  P
  N42      1.0000 0.07175  0.23914  0.27693  Biso   1.000  N
  C116     1.0000 0.07319  0.14169  0.21444  Biso   1.000  C
  O313     1.0000 0.11022  0.23994  0.88463  Biso   1.000  O
  O314     1.0000 0.19438  0.21536  0.98616  Biso   1.000  O
  O315     1.0000 0.11022  0.23994  0.88449  Biso   1.000  O
  O316     1.0000 0.11018  0.23994  0.88463  Biso   1.000  O
  O317     1.0000 0.19436  0.21532  0.98616  Biso   1.000  O
  O318     1.0000 0.11018  0.23994  0.88449  Biso   1.000  O
  O319     1.0000 0.20455  0.31735  0.06605  Biso   1.000  O
  O320     1.0000 0.20449  0.31730  0.06605  Biso   1.000  O
  O321     1.0000 0.21239  0.21027  0.39627  Biso   1.000  O
  O322     1.0000 0.21239  0.21027  0.39614  Biso   1.000  O
  O323     1.0000 0.21235  0.21027  0.39627  Biso   1.000  O
  O324     1.0000 0.21235  0.21027  0.39614  Biso   1.000  O
  O325     1.0000 0.11955  0.18514  0.58989  Biso   1.000  O
  O326     1.0000 0.19100  0.29656  0.49657  Biso   1.000  O
  O327     1.0000 0.19096  0.29656  0.49657  Biso   1.000  O
  H548     1.0000 0.05318  0.22709  0.39901  Biso   1.000  H
  H549     1.0000 0.04260  0.22461  0.19594  Biso   1.000  H
  H550     1.0000 0.09340  0.28082  0.26500  Biso   1.000  H
  H551     1.0000 0.04257  0.22457  0.19594  Biso   1.000  H
  H552     1.0000 0.09337  0.28077  0.26500  Biso   1.000  H
  Li45     1.0000 0.04066  0.25246  0.82858  Biso   1.000  Li
  Li46     1.0000 0.04062  0.25246  0.82858  Biso   1.000  Li
  Li47     1.0000 0.25249  0.21181  0.17142  Biso   1.000  Li
  Li48     1.0000 0.25245  0.21181  0.17142  Biso   1.000  Li
  H553     1.0000 0.18909  0.33650  0.07906  Biso   1.000  H
  H554     1.0000 0.18909  0.33650  0.07893  Biso   1.000  H
  H555     1.0000 0.11492  0.19892  0.66594  Biso   1.000  H
  H556     1.0000 0.11485  0.19887  0.66594  Biso   1.000  H
  O328     1.0000 0.97902  0.19439  0.01384  Biso   1.000  O
  O329     1.0000 0.00209  0.21237  0.60373  Biso   1.000  O
  O330     1.0000 0.03703  0.32692  0.92601  Biso   1.000  O
  O331     1.0000 0.03697  0.32688  0.92601  Biso   1.000  O
  O332     1.0000 0.23997  0.12973  0.11537  Biso   1.000  O
  O333     1.0000 0.32694  0.28992  0.07399  Biso   1.000  O
  O334     1.0000 0.23990  0.12969  0.11537  Biso   1.000  O
  O335     1.0000 0.32688  0.28988  0.07399  Biso   1.000  O
  P88      1.0000 0.91097  0.15758  0.97479  Biso   1.000  P
  P89      1.0000 0.91093  0.15758  0.97479  Biso   1.000  P
  P90      1.0000 0.93585  0.16542  0.56029  Biso   1.000  P
  H557     1.0000 0.06758  0.34659  0.98205  Biso   1.000  H
  H558     1.0000 0.01060  0.31468  0.99301  Biso   1.000  H
  H559     1.0000 0.06758  0.34659  0.98191  Biso   1.000  H
  H560     1.0000 0.01056  0.31468  0.99301  Biso   1.000  H
  P91      1.0000 0.24665  0.08904  0.97479  Biso   1.000  P
  P92      1.0000 0.24659  0.08900  0.97479  Biso   1.000  P
  H561     1.0000 0.31468  0.30408  0.00699  Biso   1.000  H
  H562     1.0000 0.34660  0.27899  0.01795  Biso   1.000  H
  H563     1.0000 0.34656  0.27899  0.01795  Biso   1.000  H
  O336     1.0000 0.88719  0.20453  0.93395  Biso   1.000  O
  C117     1.0000 0.90146  0.11404  0.75993  Biso   1.000  C
  O337     1.0000 0.88715  0.20453  0.93395  Biso   1.000  O
  O338     1.0000 0.87025  0.11021  0.11537  Biso   1.000  O
  O339     1.0000 0.89441  0.19098  0.50343  Biso   1.000  O
  O340     1.0000 0.93442  0.11960  0.41011  Biso   1.000  O
  O341     1.0000 0.93439  0.11955  0.41011  Biso   1.000  O
  O342     1.0000 0.31736  0.11282  0.93395  Biso   1.000  O
  C118     1.0000 0.21259  0.09853  0.75993  Biso   1.000  C
  O343     1.0000 0.31730  0.11277  0.93395  Biso   1.000  O
  C119     1.0000 0.21253  0.09848  0.75993  Biso   1.000  C
  O344     1.0000 0.21537  0.02098  0.01384  Biso   1.000  O
  O345     1.0000 0.21530  0.02093  0.01384  Biso   1.000  O
  H564     1.0000 0.85262  0.18911  0.92094  Biso   1.000  H
  H565     1.0000 0.85255  0.18906  0.92094  Biso   1.000  H
  N43      1.0000 0.83264  0.07180  0.72307  Biso   1.000  N
  C120     1.0000 0.93152  0.07325  0.78556  Biso   1.000  C
  C121     1.0000 0.93152  0.07325  0.78542  Biso   1.000  C
  N44      1.0000 0.83258  0.07176  0.72307  Biso   1.000  N
  C122     1.0000 0.93149  0.07321  0.78556  Biso   1.000  C
  C123     1.0000 0.93149  0.07321  0.78542  Biso   1.000  C
  Li49     1.0000 0.78817  0.04064  0.17142  Biso   1.000  Li
  H566     1.0000 0.91600  0.11488  0.33406  Biso   1.000  H
  H567     1.0000 0.91600  0.11488  0.33393  Biso   1.000  H
  H568     1.0000 0.91596  0.11488  0.33406  Biso   1.000  H
  H569     1.0000 0.91596  0.11488  0.33393  Biso   1.000  H
  H570     1.0000 0.33651  0.14739  0.92094  Biso   1.000  H
  H571     1.0000 0.33647  0.14739  0.92094  Biso   1.000  H
  P93      1.0000 0.22959  0.06414  0.56029  Biso   1.000  P
  N45      1.0000 0.23917  0.16739  0.72307  Biso   1.000  N
  C124     1.0000 0.14170  0.06849  0.78556  Biso   1.000  C
  C125     1.0000 0.14170  0.06849  0.78542  Biso   1.000  C
  P94      1.0000 0.22955  0.06414  0.56029  Biso   1.000  P
  N46      1.0000 0.23915  0.16734  0.72307  Biso   1.000  N
  C126     1.0000 0.14168  0.06844  0.78556  Biso   1.000  C
  C127     1.0000 0.14168  0.06844  0.78542  Biso   1.000  C
  Li50     1.0000 0.21187  0.95936  0.82858  Biso   1.000  Li
  Li51     1.0000 0.21176  0.95931  0.82858  Biso   1.000  Li
  H572     1.0000 0.81800  0.04261  0.80406  Biso   1.000  H
  H573     1.0000 0.81260  0.09339  0.73500  Biso   1.000  H
  H574     1.0000 0.82610  0.05321  0.60099  Biso   1.000  H
  H575     1.0000 0.81800  0.04261  0.80392  Biso   1.000  H
  H576     1.0000 0.81798  0.04256  0.80406  Biso   1.000  H
  H577     1.0000 0.81256  0.09339  0.73500  Biso   1.000  H
  H578     1.0000 0.82607  0.05316  0.60099  Biso   1.000  H
  H579     1.0000 0.81798  0.04256  0.80392  Biso   1.000  H
  H580     1.0000 0.92289  0.04419  0.68306  Biso   1.000  H
  H581     1.0000 0.91720  0.04859  0.89504  Biso   1.000  H
  H582     1.0000 0.97489  0.09932  0.78994  Biso   1.000  H
  H583     1.0000 0.92289  0.04419  0.68293  Biso   1.000  H
  H584     1.0000 0.91716  0.04859  0.89504  Biso   1.000  H
  H585     1.0000 0.97487  0.09927  0.78994  Biso   1.000  H
  O346     1.0000 0.78463  0.97902  0.98616  Biso   1.000  O
  O347     1.0000 0.78974  0.00210  0.39627  Biso   1.000  O
  O348     1.0000 0.71009  0.03700  0.07399  Biso   1.000  O
  O349     1.0000 0.78974  0.00210  0.39614  Biso   1.000  O
  O350     1.0000 0.78970  0.00210  0.39627  Biso   1.000  O
  O351     1.0000 0.71005  0.03700  0.07399  Biso   1.000  O
  O352     1.0000 0.78970  0.00210  0.39614  Biso   1.000  O
  O353     1.0000 0.21026  0.99790  0.60373  Biso   1.000  O
  O354     1.0000 0.29659  0.10558  0.50343  Biso   1.000  O
  O355     1.0000 0.18516  0.06559  0.41011  Biso   1.000  O
  O356     1.0000 0.29653  0.10553  0.50343  Biso   1.000  O
  O357     1.0000 0.18514  0.06554  0.41011  Biso   1.000  O
  H586     1.0000 0.22460  0.18201  0.80406  Biso   1.000  H
  H587     1.0000 0.28081  0.18738  0.73500  Biso   1.000  H
  H588     1.0000 0.22709  0.17388  0.60099  Biso   1.000  H
  H589     1.0000 0.22460  0.18201  0.80392  Biso   1.000  H
  H590     1.0000 0.22457  0.18196  0.80406  Biso   1.000  H
  H591     1.0000 0.28077  0.18738  0.73500  Biso   1.000  H
  H592     1.0000 0.22457  0.18196  0.80392  Biso   1.000  H
  H593     1.0000 0.12128  0.07708  0.68306  Biso   1.000  H
  H594     1.0000 0.13141  0.08278  0.89504  Biso   1.000  H
  H595     1.0000 0.12441  0.02509  0.78994  Biso   1.000  H
  H596     1.0000 0.12128  0.07708  0.68293  Biso   1.000  H
  H597     1.0000 0.13137  0.08278  0.89504  Biso   1.000  H
  H598     1.0000 0.12437  0.02509  0.78994  Biso   1.000  H
  O358     1.0000 0.12975  0.88979  0.88463  Biso   1.000  O
  O359     1.0000 0.28991  0.96300  0.92601  Biso   1.000  O
  O360     1.0000 0.12975  0.88979  0.88449  Biso   1.000  O
  O361     1.0000 0.12973  0.88975  0.88463  Biso   1.000  O
  O362     1.0000 0.28989  0.96295  0.92601  Biso   1.000  O
  O363     1.0000 0.12973  0.88975  0.88449  Biso   1.000  O
  P95      1.0000 0.75339  0.91096  0.02521  Biso   1.000  P
  P96      1.0000 0.77045  0.93586  0.43971  Biso   1.000  P
  P97      1.0000 0.77043  0.93581  0.43971  Biso   1.000  P
  H599     1.0000 0.72102  0.06760  0.01795  Biso   1.000  H
  H600     1.0000 0.69592  0.01060  0.00699  Biso   1.000  H
  H601     1.0000 0.72098  0.06760  0.01795  Biso   1.000  H
  H602     1.0000 0.69586  0.01056  0.00699  Biso   1.000  H
  H603     1.0000 0.19889  0.08400  0.33406  Biso   1.000  H
  H604     1.0000 0.19889  0.08400  0.33393  Biso   1.000  H
  P98      1.0000 0.08907  0.84242  0.02521  Biso   1.000  P
  P99      1.0000 0.08905  0.84238  0.02521  Biso   1.000  P
  H605     1.0000 0.27898  0.93240  0.98205  Biso   1.000  H
  H606     1.0000 0.30408  0.98940  0.99301  Biso   1.000  H
  H607     1.0000 0.27898  0.93240  0.98191  Biso   1.000  H
  O364     1.0000 0.76007  0.87027  0.88463  Biso   1.000  O
  O365     1.0000 0.76007  0.87027  0.88449  Biso   1.000  O
  O366     1.0000 0.68268  0.88718  0.06605  Biso   1.000  O
  C128     1.0000 0.78741  0.90147  0.24007  Biso   1.000  C
  O367     1.0000 0.70341  0.89442  0.49657  Biso   1.000  O
  O368     1.0000 0.81488  0.93441  0.58989  Biso   1.000  O
  O369     1.0000 0.81480  0.93441  0.58989  Biso   1.000  O
  O370     1.0000 0.02098  0.80561  0.98616  Biso   1.000  O
  O371     1.0000 0.11281  0.79547  0.06605  Biso   1.000  O
  C129     1.0000 0.09854  0.88596  0.24007  Biso   1.000  C
  O372     1.0000 0.11279  0.79543  0.06605  Biso   1.000  O
  C130     1.0000 0.09852  0.88592  0.24007  Biso   1.000  C
  Li52     1.0000 0.74751  0.78819  0.82858  Biso   1.000  Li
  Li53     1.0000 0.74749  0.78814  0.82858  Biso   1.000  Li
  H608     1.0000 0.66353  0.85261  0.07906  Biso   1.000  H
  H609     1.0000 0.66353  0.85261  0.07893  Biso   1.000  H
  H610     1.0000 0.66351  0.85256  0.07906  Biso   1.000  H
  H611     1.0000 0.66351  0.85256  0.07893  Biso   1.000  H
  N47      1.0000 0.76087  0.83261  0.27693  Biso   1.000  N
  C131     1.0000 0.85834  0.93151  0.21444  Biso   1.000  C
  N48      1.0000 0.76079  0.83261  0.27693  Biso   1.000  N
  C132     1.0000 0.85830  0.93151  0.21444  Biso   1.000  C
  H612     1.0000 0.80115  0.91600  0.66594  Biso   1.000  H
  H613     1.0000 0.80108  0.91596  0.66594  Biso   1.000  H
  Li54     1.0000 0.95934  0.74754  0.17142  Biso   1.000  Li
  Li55     1.0000 0.95932  0.74750  0.17142  Biso   1.000  Li
  H614     1.0000 0.14742  0.81089  0.07906  Biso   1.000  H
  H615     1.0000 0.14742  0.81089  0.07893  Biso   1.000  H
  P100     1.0000 0.06419  0.83458  0.43971  Biso   1.000  P
  N49      1.0000 0.16736  0.92820  0.27693  Biso   1.000  N
  C133     1.0000 0.06852  0.92675  0.21444  Biso   1.000  C
  P101     1.0000 0.06413  0.83453  0.43971  Biso   1.000  P
  C134     1.0000 0.06848  0.92675  0.21444  Biso   1.000  C
  O373     1.0000 0.80562  0.78464  0.01384  Biso   1.000  O
  O374     1.0000 0.78761  0.78973  0.60373  Biso   1.000  O
  O375     1.0000 0.67310  0.71008  0.92601  Biso   1.000  O
  O376     1.0000 0.78759  0.78968  0.60373  Biso   1.000  O
  H616     1.0000 0.77544  0.81799  0.19594  Biso   1.000  H
  H617     1.0000 0.71919  0.81262  0.26500  Biso   1.000  H
  H618     1.0000 0.77295  0.82612  0.39901  Biso   1.000  H
  H619     1.0000 0.77536  0.81799  0.19594  Biso   1.000  H
  H620     1.0000 0.71917  0.81257  0.26500  Biso   1.000  H
  H621     1.0000 0.77285  0.82607  0.39901  Biso   1.000  H
  H622     1.0000 0.87872  0.92292  0.31694  Biso   1.000  H
  H623     1.0000 0.86863  0.91722  0.10496  Biso   1.000  H
  H624     1.0000 0.87563  0.97491  0.21006  Biso   1.000  H
  H625     1.0000 0.87563  0.97491  0.20992  Biso   1.000  H
  H626     1.0000 0.87866  0.92287  0.31694  Biso   1.000  H
  H627     1.0000 0.86861  0.91717  0.10496  Biso   1.000  H
  H628     1.0000 0.87561  0.97487  0.21006  Biso   1.000  H
  H629     1.0000 0.87561  0.97487  0.20992  Biso   1.000  H
  O377     1.0000 0.99795  0.78763  0.39627  Biso   1.000  O
  O378     1.0000 0.88978  0.76006  0.11537  Biso   1.000  O
  O379     1.0000 0.96301  0.67308  0.07399  Biso   1.000  O
  O380     1.0000 0.99795  0.78763  0.39614  Biso   1.000  O
  O381     1.0000 0.99785  0.78758  0.39627  Biso   1.000  O
  O382     1.0000 0.88976  0.76002  0.11537  Biso   1.000  O
  O383     1.0000 0.99785  0.78758  0.39614  Biso   1.000  O
  O384     1.0000 0.06558  0.88040  0.58989  Biso   1.000  O
  O385     1.0000 0.10563  0.80902  0.49657  Biso   1.000  O
  O386     1.0000 0.10556  0.80897  0.49657  Biso   1.000  O
  H630     1.0000 0.18204  0.95739  0.19594  Biso   1.000  H
  H631     1.0000 0.18744  0.90661  0.26500  Biso   1.000  H
  H632     1.0000 0.17394  0.94679  0.39901  Biso   1.000  H
  H633     1.0000 0.18196  0.95739  0.19594  Biso   1.000  H
  H634     1.0000 0.18741  0.90657  0.26500  Biso   1.000  H
  H635     1.0000 0.17386  0.94679  0.39901  Biso   1.000  H
  H636     1.0000 0.07715  0.95581  0.31694  Biso   1.000  H
  H637     1.0000 0.08280  0.95141  0.10496  Biso   1.000  H
  H638     1.0000 0.02515  0.90068  0.21006  Biso   1.000  H
  H639     1.0000 0.02515  0.90068  0.20992  Biso   1.000  H
  H640     1.0000 0.07704  0.95576  0.31694  Biso   1.000  H
  H641     1.0000 0.08278  0.95137  0.10496  Biso   1.000  H
  H642     1.0000 0.02507  0.90068  0.21006  Biso   1.000  H
  H643     1.0000 0.02507  0.90068  0.20992  Biso   1.000  H
  P102     1.0000 0.84242  0.75338  0.97479  Biso   1.000  P
  P103     1.0000 0.84236  0.75333  0.97479  Biso   1.000  P
  P104     1.0000 0.83456  0.77043  0.56029  Biso   1.000  P
  P105     1.0000 0.83454  0.77039  0.56029  Biso   1.000  P
  H644     1.0000 0.65340  0.72101  0.98205  Biso   1.000  H
  H645     1.0000 0.68536  0.69592  0.99301  Biso   1.000  H
  H646     1.0000 0.65340  0.72101  0.98191  Biso   1.000  H
  H647     1.0000 0.65338  0.72096  0.98205  Biso   1.000  H
  H648     1.0000 0.68526  0.69587  0.99301  Biso   1.000  H
  H649     1.0000 0.65338  0.72096  0.98191  Biso   1.000  H
  H650     1.0000 0.93246  0.65341  0.01795  Biso   1.000  H
  H651     1.0000 0.98940  0.68532  0.00699  Biso   1.000  H
  H652     1.0000 0.93236  0.65336  0.01795  Biso   1.000  H
  H653     1.0000 0.98938  0.68527  0.00699  Biso   1.000  H
  H654     1.0000 0.08404  0.88512  0.66594  Biso   1.000  H
  H655     1.0000 0.08402  0.88508  0.66594  Biso   1.000  H
  C135     1.0000 0.88595  0.78744  0.75993  Biso   1.000  C
  C136     1.0000 0.88593  0.78739  0.75993  Biso   1.000  C
  O387     1.0000 0.79549  0.68265  0.93395  Biso   1.000  O
  O388     1.0000 0.80900  0.70344  0.50343  Biso   1.000  O
  O389     1.0000 0.88049  0.81486  0.41011  Biso   1.000  O
  O390     1.0000 0.88042  0.81481  0.41011  Biso   1.000  O
  N50      1.0000 0.92819  0.76081  0.72307  Biso   1.000  N
  C137     1.0000 0.92677  0.85831  0.78556  Biso   1.000  C
  C138     1.0000 0.92677  0.85831  0.78542  Biso   1.000  C
  C139     1.0000 0.92674  0.85826  0.78556  Biso   1.000  C
  C140     1.0000 0.92674  0.85826  0.78542  Biso   1.000  C
  H656     1.0000 0.81095  0.66350  0.92094  Biso   1.000  H
  H657     1.0000 0.81091  0.66350  0.92094  Biso   1.000  H
  H658     1.0000 0.88508  0.80108  0.33406  Biso   1.000  H
  H659     1.0000 0.88508  0.80108  0.33393  Biso   1.000  H
  H660     1.0000 0.95744  0.77539  0.80406  Biso   1.000  H
  H661     1.0000 0.90665  0.71918  0.73500  Biso   1.000  H
  H662     1.0000 0.94682  0.77291  0.60099  Biso   1.000  H
  H663     1.0000 0.95744  0.77539  0.80392  Biso   1.000  H
  H664     1.0000 0.95736  0.77539  0.80406  Biso   1.000  H
  H665     1.0000 0.90656  0.71918  0.73500  Biso   1.000  H
  H666     1.0000 0.94679  0.77286  0.60099  Biso   1.000  H
  H667     1.0000 0.95736  0.77539  0.80392  Biso   1.000  H
  H668     1.0000 0.95583  0.87872  0.68306  Biso   1.000  H
  H669     1.0000 0.95141  0.86859  0.89504  Biso   1.000  H
  H670     1.0000 0.90074  0.87559  0.78994  Biso   1.000  H
  H671     1.0000 0.95583  0.87872  0.68293  Biso   1.000  H
  H672     1.0000 0.95576  0.87868  0.68306  Biso   1.000  H
  H673     1.0000 0.95137  0.86859  0.89504  Biso   1.000  H
  H674     1.0000 0.90070  0.87559  0.78994  Biso   1.000  H
  H675     1.0000 0.95576  0.87868  0.68293  Biso   1.000  H
  C141     1.0000 0.07323  0.14169  0.21444  Biso   1.000  C
  C142     1.0000 0.11405  0.21256  0.24007  Biso   1.000  C
  C143     1.0000 0.11401  0.21256  0.24007  Biso   1.000  C
  H676     1.0000 0.04417  0.12128  0.31694  Biso   1.000  H
  H677     1.0000 0.04859  0.13141  0.10496  Biso   1.000  H
  H678     1.0000 0.09930  0.12441  0.21006  Biso   1.000  H
  H679     1.0000 0.09930  0.12441  0.20992  Biso   1.000  H
  H680     1.0000 0.04857  0.13137  0.10496  Biso   1.000  H
  H681     1.0000 0.09928  0.12436  0.21006  Biso   1.000  H
  H682     1.0000 0.09928  0.12436  0.20992  Biso   1.000  H
  P106     1.0000 0.15758  0.24662  0.02521  Biso   1.000  P
  P107     1.0000 0.16544  0.22957  0.43971  Biso   1.000  P
  N51      1.0000 0.07181  0.23919  0.27693  Biso   1.000  N
  P108     1.0000 0.16540  0.22957  0.43971  Biso   1.000  P
  N52      1.0000 0.07175  0.23914  0.27693  Biso   1.000  N
  C144     1.0000 0.07319  0.14169  0.21444  Biso   1.000  C
  O391     1.0000 0.11022  0.23994  0.88463  Biso   1.000  O
  O392     1.0000 0.19438  0.21536  0.98616  Biso   1.000  O
  O393     1.0000 0.11022  0.23994  0.88449  Biso   1.000  O
  O394     1.0000 0.11018  0.23994  0.88463  Biso   1.000  O
  O395     1.0000 0.19436  0.21532  0.98616  Biso   1.000  O
  O396     1.0000 0.11018  0.23994  0.88449  Biso   1.000  O
  O397     1.0000 0.20455  0.31735  0.06605  Biso   1.000  O
  O398     1.0000 0.20449  0.31730  0.06605  Biso   1.000  O
  O399     1.0000 0.21239  0.21027  0.39627  Biso   1.000  O
  O400     1.0000 0.21239  0.21027  0.39614  Biso   1.000  O
  O401     1.0000 0.21235  0.21027  0.39627  Biso   1.000  O
  O402     1.0000 0.21235  0.21027  0.39614  Biso   1.000  O
  O403     1.0000 0.11955  0.18514  0.58989  Biso   1.000  O
  O404     1.0000 0.19100  0.29656  0.49657  Biso   1.000  O
  O405     1.0000 0.19096  0.29656  0.49657  Biso   1.000  O
  H683     1.0000 0.05318  0.22709  0.39901  Biso   1.000  H
  H684     1.0000 0.04260  0.22461  0.19594  Biso   1.000  H
  H685     1.0000 0.09340  0.28082  0.26500  Biso   1.000  H
  H686     1.0000 0.04257  0.22457  0.19594  Biso   1.000  H
  H687     1.0000 0.09337  0.28077  0.26500  Biso   1.000  H
  Li56     1.0000 0.04066  0.25246  0.82858  Biso   1.000  Li
  Li57     1.0000 0.04062  0.25246  0.82858  Biso   1.000  Li
  Li58     1.0000 0.25249  0.21181  0.17142  Biso   1.000  Li
  Li59     1.0000 0.25245  0.21181  0.17142  Biso   1.000  Li
  H688     1.0000 0.18909  0.33650  0.07906  Biso   1.000  H
  H689     1.0000 0.18909  0.33650  0.07893  Biso   1.000  H
  H690     1.0000 0.11492  0.19892  0.66594  Biso   1.000  H
  H691     1.0000 0.11485  0.19887  0.66594  Biso   1.000  H
  O406     1.0000 0.97902  0.19439  0.01384  Biso   1.000  O
  O407     1.0000 0.00209  0.21237  0.60373  Biso   1.000  O
  O408     1.0000 0.03703  0.32692  0.92601  Biso   1.000  O
  O409     1.0000 0.03697  0.32688  0.92601  Biso   1.000  O
  O410     1.0000 0.23997  0.12973  0.11537  Biso   1.000  O
  O411     1.0000 0.32694  0.28992  0.07399  Biso   1.000  O
  O412     1.0000 0.23990  0.12969  0.11537  Biso   1.000  O
  O413     1.0000 0.32688  0.28988  0.07399  Biso   1.000  O
  P109     1.0000 0.91097  0.15758  0.97479  Biso   1.000  P
  P110     1.0000 0.91093  0.15758  0.97479  Biso   1.000  P
  P111     1.0000 0.93585  0.16542  0.56029  Biso   1.000  P
  H692     1.0000 0.06758  0.34659  0.98205  Biso   1.000  H
  H693     1.0000 0.01060  0.31468  0.99301  Biso   1.000  H
  H694     1.0000 0.06758  0.34659  0.98191  Biso   1.000  H
  H695     1.0000 0.01056  0.31468  0.99301  Biso   1.000  H
  P112     1.0000 0.24665  0.08904  0.97479  Biso   1.000  P
  P113     1.0000 0.24659  0.08900  0.97479  Biso   1.000  P
  H696     1.0000 0.31468  0.30408  0.00699  Biso   1.000  H
  H697     1.0000 0.34660  0.27899  0.01795  Biso   1.000  H
  H698     1.0000 0.34656  0.27899  0.01795  Biso   1.000  H
  O414     1.0000 0.88719  0.20453  0.93395  Biso   1.000  O
  C145     1.0000 0.90146  0.11404  0.75993  Biso   1.000  C
  O415     1.0000 0.88715  0.20453  0.93395  Biso   1.000  O
  O416     1.0000 0.87025  0.11021  0.11537  Biso   1.000  O
  O417     1.0000 0.89441  0.19098  0.50343  Biso   1.000  O
  O418     1.0000 0.93442  0.11960  0.41011  Biso   1.000  O
  O419     1.0000 0.93439  0.11955  0.41011  Biso   1.000  O
  O420     1.0000 0.31736  0.11282  0.93395  Biso   1.000  O
  C146     1.0000 0.21259  0.09853  0.75993  Biso   1.000  C
  O421     1.0000 0.31730  0.11277  0.93395  Biso   1.000  O
  C147     1.0000 0.21253  0.09848  0.75993  Biso   1.000  C
  O422     1.0000 0.21537  0.02098  0.01384  Biso   1.000  O
  O423     1.0000 0.21530  0.02093  0.01384  Biso   1.000  O
  H699     1.0000 0.85262  0.18911  0.92094  Biso   1.000  H
  H700     1.0000 0.85255  0.18906  0.92094  Biso   1.000  H
  N53      1.0000 0.83264  0.07180  0.72307  Biso   1.000  N
  C148     1.0000 0.93152  0.07325  0.78556  Biso   1.000  C
  C149     1.0000 0.93152  0.07325  0.78542  Biso   1.000  C
  N54      1.0000 0.83258  0.07176  0.72307  Biso   1.000  N
  C150     1.0000 0.93149  0.07321  0.78556  Biso   1.000  C
  C151     1.0000 0.93149  0.07321  0.78542  Biso   1.000  C
  Li60     1.0000 0.78817  0.04064  0.17142  Biso   1.000  Li
  H701     1.0000 0.91600  0.11488  0.33406  Biso   1.000  H
  H702     1.0000 0.91600  0.11488  0.33393  Biso   1.000  H
  H703     1.0000 0.91596  0.11488  0.33406  Biso   1.000  H
  H704     1.0000 0.91596  0.11488  0.33393  Biso   1.000  H
  H705     1.0000 0.33651  0.14739  0.92094  Biso   1.000  H
  H706     1.0000 0.33647  0.14739  0.92094  Biso   1.000  H
  P114     1.0000 0.22959  0.06414  0.56029  Biso   1.000  P
  N55      1.0000 0.23917  0.16739  0.72307  Biso   1.000  N
  C152     1.0000 0.14170  0.06849  0.78556  Biso   1.000  C
  C153     1.0000 0.14170  0.06849  0.78542  Biso   1.000  C
  P115     1.0000 0.22955  0.06414  0.56029  Biso   1.000  P
  N56      1.0000 0.23915  0.16734  0.72307  Biso   1.000  N
  C154     1.0000 0.14168  0.06844  0.78556  Biso   1.000  C
  C155     1.0000 0.14168  0.06844  0.78542  Biso   1.000  C
  Li61     1.0000 0.21187  0.95936  0.82858  Biso   1.000  Li
  Li62     1.0000 0.21176  0.95931  0.82858  Biso   1.000  Li
  H707     1.0000 0.81800  0.04261  0.80406  Biso   1.000  H
  H708     1.0000 0.81260  0.09339  0.73500  Biso   1.000  H
  H709     1.0000 0.82610  0.05321  0.60099  Biso   1.000  H
  H710     1.0000 0.81800  0.04261  0.80392  Biso   1.000  H
  H711     1.0000 0.81798  0.04256  0.80406  Biso   1.000  H
  H712     1.0000 0.81256  0.09339  0.73500  Biso   1.000  H
  H713     1.0000 0.82607  0.05316  0.60099  Biso   1.000  H
  H714     1.0000 0.81798  0.04256  0.80392  Biso   1.000  H
  H715     1.0000 0.92289  0.04419  0.68306  Biso   1.000  H
  H716     1.0000 0.91720  0.04859  0.89504  Biso   1.000  H
  H717     1.0000 0.97489  0.09932  0.78994  Biso   1.000  H
  H718     1.0000 0.92289  0.04419  0.68293  Biso   1.000  H
  H719     1.0000 0.91716  0.04859  0.89504  Biso   1.000  H
  H720     1.0000 0.97487  0.09927  0.78994  Biso   1.000  H
  O424     1.0000 0.78463  0.97902  0.98616  Biso   1.000  O
  O425     1.0000 0.78974  0.00210  0.39627  Biso   1.000  O
  O426     1.0000 0.71009  0.03700  0.07399  Biso   1.000  O
  O427     1.0000 0.78974  0.00210  0.39614  Biso   1.000  O
  O428     1.0000 0.78970  0.00210  0.39627  Biso   1.000  O
  O429     1.0000 0.71005  0.03700  0.07399  Biso   1.000  O
  O430     1.0000 0.78970  0.00210  0.39614  Biso   1.000  O
  O431     1.0000 0.21026  0.99790  0.60373  Biso   1.000  O
  O432     1.0000 0.29659  0.10558  0.50343  Biso   1.000  O
  O433     1.0000 0.18516  0.06559  0.41011  Biso   1.000  O
  O434     1.0000 0.29653  0.10553  0.50343  Biso   1.000  O
  O435     1.0000 0.18514  0.06554  0.41011  Biso   1.000  O
  H721     1.0000 0.22460  0.18201  0.80406  Biso   1.000  H
  H722     1.0000 0.28081  0.18738  0.73500  Biso   1.000  H
  H723     1.0000 0.22709  0.17388  0.60099  Biso   1.000  H
  H724     1.0000 0.22460  0.18201  0.80392  Biso   1.000  H
  H725     1.0000 0.22457  0.18196  0.80406  Biso   1.000  H
  H726     1.0000 0.28077  0.18738  0.73500  Biso   1.000  H
  H727     1.0000 0.22457  0.18196  0.80392  Biso   1.000  H
  H728     1.0000 0.12128  0.07708  0.68306  Biso   1.000  H
  H729     1.0000 0.13141  0.08278  0.89504  Biso   1.000  H
  H730     1.0000 0.12441  0.02509  0.78994  Biso   1.000  H
  H731     1.0000 0.12128  0.07708  0.68293  Biso   1.000  H
  H732     1.0000 0.13137  0.08278  0.89504  Biso   1.000  H
  H733     1.0000 0.12437  0.02509  0.78994  Biso   1.000  H
  O436     1.0000 0.12975  0.88979  0.88463  Biso   1.000  O
  O437     1.0000 0.28991  0.96300  0.92601  Biso   1.000  O
  O438     1.0000 0.12975  0.88979  0.88449  Biso   1.000  O
  O439     1.0000 0.12973  0.88975  0.88463  Biso   1.000  O
  O440     1.0000 0.28989  0.96295  0.92601  Biso   1.000  O
  O441     1.0000 0.12973  0.88975  0.88449  Biso   1.000  O
  P116     1.0000 0.75339  0.91096  0.02521  Biso   1.000  P
  P117     1.0000 0.77045  0.93586  0.43971  Biso   1.000  P
  P118     1.0000 0.77043  0.93581  0.43971  Biso   1.000  P
  H734     1.0000 0.72102  0.06760  0.01795  Biso   1.000  H
  H735     1.0000 0.69592  0.01060  0.00699  Biso   1.000  H
  H736     1.0000 0.72098  0.06760  0.01795  Biso   1.000  H
  H737     1.0000 0.69586  0.01056  0.00699  Biso   1.000  H
  H738     1.0000 0.19889  0.08400  0.33406  Biso   1.000  H
  H739     1.0000 0.19889  0.08400  0.33393  Biso   1.000  H
  P119     1.0000 0.08907  0.84242  0.02521  Biso   1.000  P
  P120     1.0000 0.08905  0.84238  0.02521  Biso   1.000  P
  H740     1.0000 0.27898  0.93240  0.98205  Biso   1.000  H
  H741     1.0000 0.30408  0.98940  0.99301  Biso   1.000  H
  H742     1.0000 0.27898  0.93240  0.98191  Biso   1.000  H
  O442     1.0000 0.76007  0.87027  0.88463  Biso   1.000  O
  O443     1.0000 0.76007  0.87027  0.88449  Biso   1.000  O
  O444     1.0000 0.68268  0.88718  0.06605  Biso   1.000  O
  C156     1.0000 0.78741  0.90147  0.24007  Biso   1.000  C
  O445     1.0000 0.70341  0.89442  0.49657  Biso   1.000  O
  O446     1.0000 0.81488  0.93441  0.58989  Biso   1.000  O
  O447     1.0000 0.81480  0.93441  0.58989  Biso   1.000  O
  O448     1.0000 0.02098  0.80561  0.98616  Biso   1.000  O
  O449     1.0000 0.11281  0.79547  0.06605  Biso   1.000  O
  C157     1.0000 0.09854  0.88596  0.24007  Biso   1.000  C
  O450     1.0000 0.11279  0.79543  0.06605  Biso   1.000  O
  C158     1.0000 0.09852  0.88592  0.24007  Biso   1.000  C
  Li63     1.0000 0.74751  0.78819  0.82858  Biso   1.000  Li
  Li64     1.0000 0.74749  0.78814  0.82858  Biso   1.000  Li
  H743     1.0000 0.66353  0.85261  0.07906  Biso   1.000  H
  H744     1.0000 0.66353  0.85261  0.07893  Biso   1.000  H
  H745     1.0000 0.66351  0.85256  0.07906  Biso   1.000  H
  H746     1.0000 0.66351  0.85256  0.07893  Biso   1.000  H
  N57      1.0000 0.76087  0.83261  0.27693  Biso   1.000  N
  C159     1.0000 0.85834  0.93151  0.21444  Biso   1.000  C
  N58      1.0000 0.76079  0.83261  0.27693  Biso   1.000  N
  C160     1.0000 0.85830  0.93151  0.21444  Biso   1.000  C
  H747     1.0000 0.80115  0.91600  0.66594  Biso   1.000  H
  H748     1.0000 0.80108  0.91596  0.66594  Biso   1.000  H
  Li65     1.0000 0.95934  0.74754  0.17142  Biso   1.000  Li
  Li66     1.0000 0.95932  0.74750  0.17142  Biso   1.000  Li
  H749     1.0000 0.14742  0.81089  0.07906  Biso   1.000  H
  H750     1.0000 0.14742  0.81089  0.07893  Biso   1.000  H
  P121     1.0000 0.06419  0.83458  0.43971  Biso   1.000  P
  N59      1.0000 0.16736  0.92820  0.27693  Biso   1.000  N
  C161     1.0000 0.06852  0.92675  0.21444  Biso   1.000  C
  P122     1.0000 0.06413  0.83453  0.43971  Biso   1.000  P
  C162     1.0000 0.06848  0.92675  0.21444  Biso   1.000  C
  O451     1.0000 0.80562  0.78464  0.01384  Biso   1.000  O
  O452     1.0000 0.78761  0.78973  0.60373  Biso   1.000  O
  O453     1.0000 0.67310  0.71008  0.92601  Biso   1.000  O
  O454     1.0000 0.78759  0.78968  0.60373  Biso   1.000  O
  H751     1.0000 0.77544  0.81799  0.19594  Biso   1.000  H
  H752     1.0000 0.71919  0.81262  0.26500  Biso   1.000  H
  H753     1.0000 0.77295  0.82612  0.39901  Biso   1.000  H
  H754     1.0000 0.77536  0.81799  0.19594  Biso   1.000  H
  H755     1.0000 0.71917  0.81257  0.26500  Biso   1.000  H
  H756     1.0000 0.77285  0.82607  0.39901  Biso   1.000  H
  H757     1.0000 0.87872  0.92292  0.31694  Biso   1.000  H
  H758     1.0000 0.86863  0.91722  0.10496  Biso   1.000  H
  H759     1.0000 0.87563  0.97491  0.21006  Biso   1.000  H
  H760     1.0000 0.87563  0.97491  0.20992  Biso   1.000  H
  H761     1.0000 0.87866  0.92287  0.31694  Biso   1.000  H
  H762     1.0000 0.86861  0.91717  0.10496  Biso   1.000  H
  H763     1.0000 0.87561  0.97487  0.21006  Biso   1.000  H
  H764     1.0000 0.87561  0.97487  0.20992  Biso   1.000  H
  O455     1.0000 0.99795  0.78763  0.39627  Biso   1.000  O
  O456     1.0000 0.88978  0.76006  0.11537  Biso   1.000  O
  O457     1.0000 0.96301  0.67308  0.07399  Biso   1.000  O
  O458     1.0000 0.99795  0.78763  0.39614  Biso   1.000  O
  O459     1.0000 0.99785  0.78758  0.39627  Biso   1.000  O
  O460     1.0000 0.88976  0.76002  0.11537  Biso   1.000  O
  O461     1.0000 0.99785  0.78758  0.39614  Biso   1.000  O
  O462     1.0000 0.06558  0.88040  0.58989  Biso   1.000  O
  O463     1.0000 0.10563  0.80902  0.49657  Biso   1.000  O
  O464     1.0000 0.10556  0.80897  0.49657  Biso   1.000  O
  H765     1.0000 0.18204  0.95739  0.19594  Biso   1.000  H
  H766     1.0000 0.18744  0.90661  0.26500  Biso   1.000  H
  H767     1.0000 0.17394  0.94679  0.39901  Biso   1.000  H
  H768     1.0000 0.18196  0.95739  0.19594  Biso   1.000  H
  H769     1.0000 0.18741  0.90657  0.26500  Biso   1.000  H
  H770     1.0000 0.17386  0.94679  0.39901  Biso   1.000  H
  H771     1.0000 0.07715  0.95581  0.31694  Biso   1.000  H
  H772     1.0000 0.08280  0.95141  0.10496  Biso   1.000  H
  H773     1.0000 0.02515  0.90068  0.21006  Biso   1.000  H
  H774     1.0000 0.02515  0.90068  0.20992  Biso   1.000  H
  H775     1.0000 0.07704  0.95576  0.31694  Biso   1.000  H
  H776     1.0000 0.08278  0.95137  0.10496  Biso   1.000  H
  H777     1.0000 0.02507  0.90068  0.21006  Biso   1.000  H
  H778     1.0000 0.02507  0.90068  0.20992  Biso   1.000  H
  P123     1.0000 0.84242  0.75338  0.97479  Biso   1.000  P
  P124     1.0000 0.84236  0.75333  0.97479  Biso   1.000  P
  P125     1.0000 0.83456  0.77043  0.56029  Biso   1.000  P
  P126     1.0000 0.83454  0.77039  0.56029  Biso   1.000  P
  H779     1.0000 0.65340  0.72101  0.98205  Biso   1.000  H
  H780     1.0000 0.68536  0.69592  0.99301  Biso   1.000  H
  H781     1.0000 0.65340  0.72101  0.98191  Biso   1.000  H
  H782     1.0000 0.65338  0.72096  0.98205  Biso   1.000  H
  H783     1.0000 0.68526  0.69587  0.99301  Biso   1.000  H
  H784     1.0000 0.65338  0.72096  0.98191  Biso   1.000  H
  H785     1.0000 0.93246  0.65341  0.01795  Biso   1.000  H
  H786     1.0000 0.98940  0.68532  0.00699  Biso   1.000  H
  H787     1.0000 0.93236  0.65336  0.01795  Biso   1.000  H
  H788     1.0000 0.98938  0.68527  0.00699  Biso   1.000  H
  H789     1.0000 0.08404  0.88512  0.66594  Biso   1.000  H
  H790     1.0000 0.08402  0.88508  0.66594  Biso   1.000  H
  C163     1.0000 0.88595  0.78744  0.75993  Biso   1.000  C
  C164     1.0000 0.88593  0.78739  0.75993  Biso   1.000  C
  O465     1.0000 0.79549  0.68265  0.93395  Biso   1.000  O
  O466     1.0000 0.80900  0.70344  0.50343  Biso   1.000  O
  O467     1.0000 0.88049  0.81486  0.41011  Biso   1.000  O
  O468     1.0000 0.88042  0.81481  0.41011  Biso   1.000  O
  N60      1.0000 0.92819  0.76081  0.72307  Biso   1.000  N
  C165     1.0000 0.92677  0.85831  0.78556  Biso   1.000  C
  C166     1.0000 0.92677  0.85831  0.78542  Biso   1.000  C
  C167     1.0000 0.92674  0.85826  0.78556  Biso   1.000  C
  C168     1.0000 0.92674  0.85826  0.78542  Biso   1.000  C
  H791     1.0000 0.81095  0.66350  0.92094  Biso   1.000  H
  H792     1.0000 0.81091  0.66350  0.92094  Biso   1.000  H
  H793     1.0000 0.88508  0.80108  0.33406  Biso   1.000  H
  H794     1.0000 0.88508  0.80108  0.33393  Biso   1.000  H
  H795     1.0000 0.95744  0.77539  0.80406  Biso   1.000  H
  H796     1.0000 0.90665  0.71918  0.73500  Biso   1.000  H
  H797     1.0000 0.94682  0.77291  0.60099  Biso   1.000  H
  H798     1.0000 0.95744  0.77539  0.80392  Biso   1.000  H
  H799     1.0000 0.95736  0.77539  0.80406  Biso   1.000  H
  H800     1.0000 0.90656  0.71918  0.73500  Biso   1.000  H
  H801     1.0000 0.94679  0.77286  0.60099  Biso   1.000  H
  H802     1.0000 0.95736  0.77539  0.80392  Biso   1.000  H
  H803     1.0000 0.95583  0.87872  0.68306  Biso   1.000  H
  H804     1.0000 0.95141  0.86859  0.89504  Biso   1.000  H
  H805     1.0000 0.90074  0.87559  0.78994  Biso   1.000  H
  H806     1.0000 0.95583  0.87872  0.68293  Biso   1.000  H
  H807     1.0000 0.95576  0.87868  0.68306  Biso   1.000  H
  H808     1.0000 0.95137  0.86859  0.89504  Biso   1.000  H
  H809     1.0000 0.90070  0.87559  0.78994  Biso   1.000  H
  H810     1.0000 0.95576  0.87868  0.68293  Biso   1.000  H
  C169     1.0000 0.07323  0.14169  0.21444  Biso   1.000  C
  C170     1.0000 0.11405  0.21256  0.24007  Biso   1.000  C
  C171     1.0000 0.11401  0.21256  0.24007  Biso   1.000  C
  H811     1.0000 0.04417  0.12128  0.31694  Biso   1.000  H
  H812     1.0000 0.04859  0.13141  0.10496  Biso   1.000  H
  H813     1.0000 0.09930  0.12441  0.21006  Biso   1.000  H
  H814     1.0000 0.09930  0.12441  0.20992  Biso   1.000  H
  H815     1.0000 0.04857  0.13137  0.10496  Biso   1.000  H
  H816     1.0000 0.09928  0.12436  0.21006  Biso   1.000  H
  H817     1.0000 0.09928  0.12436  0.20992  Biso   1.000  H
  P127     1.0000 0.15758  0.24662  0.02521  Biso   1.000  P
  P128     1.0000 0.16544  0.22957  0.43971  Biso   1.000  P
  N61      1.0000 0.07181  0.23919  0.27693  Biso   1.000  N
  P129     1.0000 0.16540  0.22957  0.43971  Biso   1.000  P
  N62      1.0000 0.07175  0.23914  0.27693  Biso   1.000  N
  C172     1.0000 0.07319  0.14169  0.21444  Biso   1.000  C
  O469     1.0000 0.11022  0.23994  0.88463  Biso   1.000  O
  O470     1.0000 0.19438  0.21536  0.98616  Biso   1.000  O
  O471     1.0000 0.11022  0.23994  0.88449  Biso   1.000  O
  O472     1.0000 0.11018  0.23994  0.88463  Biso   1.000  O
  O473     1.0000 0.19436  0.21532  0.98616  Biso   1.000  O
  O474     1.0000 0.11018  0.23994  0.88449  Biso   1.000  O
  O475     1.0000 0.20455  0.31735  0.06605  Biso   1.000  O
  O476     1.0000 0.20449  0.31730  0.06605  Biso   1.000  O
  O477     1.0000 0.21239  0.21027  0.39627  Biso   1.000  O
  O478     1.0000 0.21239  0.21027  0.39614  Biso   1.000  O
  O479     1.0000 0.21235  0.21027  0.39627  Biso   1.000  O
  O480     1.0000 0.21235  0.21027  0.39614  Biso   1.000  O
  O481     1.0000 0.11955  0.18514  0.58989  Biso   1.000  O
  O482     1.0000 0.19100  0.29656  0.49657  Biso   1.000  O
  O483     1.0000 0.19096  0.29656  0.49657  Biso   1.000  O
  H818     1.0000 0.05318  0.22709  0.39901  Biso   1.000  H
  H819     1.0000 0.04260  0.22461  0.19594  Biso   1.000  H
  H820     1.0000 0.09340  0.28082  0.26500  Biso   1.000  H
  H821     1.0000 0.04257  0.22457  0.19594  Biso   1.000  H
  H822     1.0000 0.09337  0.28077  0.26500  Biso   1.000  H
  Li67     1.0000 0.04066  0.25246  0.82858  Biso   1.000  Li
  Li68     1.0000 0.04062  0.25246  0.82858  Biso   1.000  Li
  Li69     1.0000 0.25249  0.21181  0.17142  Biso   1.000  Li
  Li70     1.0000 0.25245  0.21181  0.17142  Biso   1.000  Li
  H823     1.0000 0.18909  0.33650  0.07906  Biso   1.000  H
  H824     1.0000 0.18909  0.33650  0.07893  Biso   1.000  H
  H825     1.0000 0.11492  0.19892  0.66594  Biso   1.000  H
  H826     1.0000 0.11485  0.19887  0.66594  Biso   1.000  H
  O484     1.0000 0.97902  0.19439  0.01384  Biso   1.000  O
  O485     1.0000 0.00209  0.21237  0.60373  Biso   1.000  O
  O486     1.0000 0.03703  0.32692  0.92601  Biso   1.000  O
  O487     1.0000 0.03697  0.32688  0.92601  Biso   1.000  O
  O488     1.0000 0.23997  0.12973  0.11537  Biso   1.000  O
  O489     1.0000 0.32694  0.28992  0.07399  Biso   1.000  O
  O490     1.0000 0.23990  0.12969  0.11537  Biso   1.000  O
  O491     1.0000 0.32688  0.28988  0.07399  Biso   1.000  O
  P130     1.0000 0.91097  0.15758  0.97479  Biso   1.000  P
  P131     1.0000 0.91093  0.15758  0.97479  Biso   1.000  P
  P132     1.0000 0.93585  0.16542  0.56029  Biso   1.000  P
  H827     1.0000 0.06758  0.34659  0.98205  Biso   1.000  H
  H828     1.0000 0.01060  0.31468  0.99301  Biso   1.000  H
  H829     1.0000 0.06758  0.34659  0.98191  Biso   1.000  H
  H830     1.0000 0.01056  0.31468  0.99301  Biso   1.000  H
  P133     1.0000 0.24665  0.08904  0.97479  Biso   1.000  P
  P134     1.0000 0.24659  0.08900  0.97479  Biso   1.000  P
  H831     1.0000 0.31468  0.30408  0.00699  Biso   1.000  H
  H832     1.0000 0.34660  0.27899  0.01795  Biso   1.000  H
  H833     1.0000 0.34656  0.27899  0.01795  Biso   1.000  H
  O492     1.0000 0.88719  0.20453  0.93395  Biso   1.000  O
  C173     1.0000 0.90146  0.11404  0.75993  Biso   1.000  C
  O493     1.0000 0.88715  0.20453  0.93395  Biso   1.000  O
  O494     1.0000 0.87025  0.11021  0.11537  Biso   1.000  O
  O495     1.0000 0.89441  0.19098  0.50343  Biso   1.000  O
  O496     1.0000 0.93442  0.11960  0.41011  Biso   1.000  O
  O497     1.0000 0.93439  0.11955  0.41011  Biso   1.000  O
  O498     1.0000 0.31736  0.11282  0.93395  Biso   1.000  O
  C174     1.0000 0.21259  0.09853  0.75993  Biso   1.000  C
  O499     1.0000 0.31730  0.11277  0.93395  Biso   1.000  O
  C175     1.0000 0.21253  0.09848  0.75993  Biso   1.000  C
  O500     1.0000 0.21537  0.02098  0.01384  Biso   1.000  O
  O501     1.0000 0.21530  0.02093  0.01384  Biso   1.000  O
  H834     1.0000 0.85262  0.18911  0.92094  Biso   1.000  H
  H835     1.0000 0.85255  0.18906  0.92094  Biso   1.000  H
  N63      1.0000 0.83264  0.07180  0.72307  Biso   1.000  N
  C176     1.0000 0.93152  0.07325  0.78556  Biso   1.000  C
  C177     1.0000 0.93152  0.07325  0.78542  Biso   1.000  C
  N64      1.0000 0.83258  0.07176  0.72307  Biso   1.000  N
  C178     1.0000 0.93149  0.07321  0.78556  Biso   1.000  C
  C179     1.0000 0.93149  0.07321  0.78542  Biso   1.000  C
  Li71     1.0000 0.78817  0.04064  0.17142  Biso   1.000  Li
  H836     1.0000 0.91600  0.11488  0.33406  Biso   1.000  H
  H837     1.0000 0.91600  0.11488  0.33393  Biso   1.000  H
  H838     1.0000 0.91596  0.11488  0.33406  Biso   1.000  H
  H839     1.0000 0.91596  0.11488  0.33393  Biso   1.000  H
  H840     1.0000 0.33651  0.14739  0.92094  Biso   1.000  H
  H841     1.0000 0.33647  0.14739  0.92094  Biso   1.000  H
  P135     1.0000 0.22959  0.06414  0.56029  Biso   1.000  P
  N65      1.0000 0.23917  0.16739  0.72307  Biso   1.000  N
  C180     1.0000 0.14170  0.06849  0.78556  Biso   1.000  C
  C181     1.0000 0.14170  0.06849  0.78542  Biso   1.000  C
  P136     1.0000 0.22955  0.06414  0.56029  Biso   1.000  P
  N66      1.0000 0.23915  0.16734  0.72307  Biso   1.000  N
  C182     1.0000 0.14168  0.06844  0.78556  Biso   1.000  C
  C183     1.0000 0.14168  0.06844  0.78542  Biso   1.000  C
  Li72     1.0000 0.21187  0.95936  0.82858  Biso   1.000  Li
  Li73     1.0000 0.21176  0.95931  0.82858  Biso   1.000  Li
  H842     1.0000 0.81800  0.04261  0.80406  Biso   1.000  H
  H843     1.0000 0.81260  0.09339  0.73500  Biso   1.000  H
  H844     1.0000 0.82610  0.05321  0.60099  Biso   1.000  H
  H845     1.0000 0.81800  0.04261  0.80392  Biso   1.000  H
  H846     1.0000 0.81798  0.04256  0.80406  Biso   1.000  H
  H847     1.0000 0.81256  0.09339  0.73500  Biso   1.000  H
  H848     1.0000 0.82607  0.05316  0.60099  Biso   1.000  H
  H849     1.0000 0.81798  0.04256  0.80392  Biso   1.000  H
  H850     1.0000 0.92289  0.04419  0.68306  Biso   1.000  H
  H851     1.0000 0.91720  0.04859  0.89504  Biso   1.000  H
  H852     1.0000 0.97489  0.09932  0.78994  Biso   1.000  H
  H853     1.0000 0.92289  0.04419  0.68293  Biso   1.000  H
  H854     1.0000 0.91716  0.04859  0.89504  Biso   1.000  H
  H855     1.0000 0.97487  0.09927  0.78994  Biso   1.000  H
  O502     1.0000 0.78463  0.97902  0.98616  Biso   1.000  O
  O503     1.0000 0.78974  0.00210  0.39627  Biso   1.000  O
  O504     1.0000 0.71009  0.03700  0.07399  Biso   1.000  O
  O505     1.0000 0.78974  0.00210  0.39614  Biso   1.000  O
  O506     1.0000 0.78970  0.00210  0.39627  Biso   1.000  O
  O507     1.0000 0.71005  0.03700  0.07399  Biso   1.000  O
  O508     1.0000 0.78970  0.00210  0.39614  Biso   1.000  O
  O509     1.0000 0.21026  0.99790  0.60373  Biso   1.000  O
  O510     1.0000 0.29659  0.10558  0.50343  Biso   1.000  O
  O511     1.0000 0.18516  0.06559  0.41011  Biso   1.000  O
  O512     1.0000 0.29653  0.10553  0.50343  Biso   1.000  O
  O513     1.0000 0.18514  0.06554  0.41011  Biso   1.000  O
  H856     1.0000 0.22460  0.18201  0.80406  Biso   1.000  H
  H857     1.0000 0.28081  0.18738  0.73500  Biso   1.000  H
  H858     1.0000 0.22709  0.17388  0.60099  Biso   1.000  H
  H859     1.0000 0.22460  0.18201  0.80392  Biso   1.000  H
  H860     1.0000 0.22457  0.18196  0.80406  Biso   1.000  H
  H861     1.0000 0.28077  0.18738  0.73500  Biso   1.000  H
  H862     1.0000 0.22457  0.18196  0.80392  Biso   1.000  H
  H863     1.0000 0.12128  0.07708  0.68306  Biso   1.000  H
  H864     1.0000 0.13141  0.08278  0.89504  Biso   1.000  H
  H865     1.0000 0.12441  0.02509  0.78994  Biso   1.000  H
  H866     1.0000 0.12128  0.07708  0.68293  Biso   1.000  H
  H867     1.0000 0.13137  0.08278  0.89504  Biso   1.000  H
  H868     1.0000 0.12437  0.02509  0.78994  Biso   1.000  H
  O514     1.0000 0.12975  0.88979  0.88463  Biso   1.000  O
  O515     1.0000 0.28991  0.96300  0.92601  Biso   1.000  O
  O516     1.0000 0.12975  0.88979  0.88449  Biso   1.000  O
  O517     1.0000 0.12973  0.88975  0.88463  Biso   1.000  O
  O518     1.0000 0.28989  0.96295  0.92601  Biso   1.000  O
  O519     1.0000 0.12973  0.88975  0.88449  Biso   1.000  O
  P137     1.0000 0.75339  0.91096  0.02521  Biso   1.000  P
  P138     1.0000 0.77045  0.93586  0.43971  Biso   1.000  P
  P139     1.0000 0.77043  0.93581  0.43971  Biso   1.000  P
  H869     1.0000 0.72102  0.06760  0.01795  Biso   1.000  H
  H870     1.0000 0.69592  0.01060  0.00699  Biso   1.000  H
  H871     1.0000 0.72098  0.06760  0.01795  Biso   1.000  H
  H872     1.0000 0.69586  0.01056  0.00699  Biso   1.000  H
  H873     1.0000 0.19889  0.08400  0.33406  Biso   1.000  H
  H874     1.0000 0.19889  0.08400  0.33393  Biso   1.000  H
  P140     1.0000 0.08907  0.84242  0.02521  Biso   1.000  P
  P141     1.0000 0.08905  0.84238  0.02521  Biso   1.000  P
  H875     1.0000 0.27898  0.93240  0.98205  Biso   1.000  H
  H876     1.0000 0.30408  0.98940  0.99301  Biso   1.000  H
  H877     1.0000 0.27898  0.93240  0.98191  Biso   1.000  H
  O520     1.0000 0.76007  0.87027  0.88463  Biso   1.000  O
  O521     1.0000 0.76007  0.87027  0.88449  Biso   1.000  O
  O522     1.0000 0.68268  0.88718  0.06605  Biso   1.000  O
  C184     1.0000 0.78741  0.90147  0.24007  Biso   1.000  C
  O523     1.0000 0.70341  0.89442  0.49657  Biso   1.000  O
  O524     1.0000 0.81488  0.93441  0.58989  Biso   1.000  O
  O525     1.0000 0.81480  0.93441  0.58989  Biso   1.000  O
  O526     1.0000 0.02098  0.80561  0.98616  Biso   1.000  O
  O527     1.0000 0.11281  0.79547  0.06605  Biso   1.000  O
  C185     1.0000 0.09854  0.88596  0.24007  Biso   1.000  C
  O528     1.0000 0.11279  0.79543  0.06605  Biso   1.000  O
  C186     1.0000 0.09852  0.88592  0.24007  Biso   1.000  C
  Li74     1.0000 0.74751  0.78819  0.82858  Biso   1.000  Li
  Li75     1.0000 0.74749  0.78814  0.82858  Biso   1.000  Li
  H878     1.0000 0.66353  0.85261  0.07906  Biso   1.000  H
  H879     1.0000 0.66353  0.85261  0.07893  Biso   1.000  H
  H880     1.0000 0.66351  0.85256  0.07906  Biso   1.000  H
  H881     1.0000 0.66351  0.85256  0.07893  Biso   1.000  H
  N67      1.0000 0.76087  0.83261  0.27693  Biso   1.000  N
  C187     1.0000 0.85834  0.93151  0.21444  Biso   1.000  C
  N68      1.0000 0.76079  0.83261  0.27693  Biso   1.000  N
  C188     1.0000 0.85830  0.93151  0.21444  Biso   1.000  C
  H882     1.0000 0.80115  0.91600  0.66594  Biso   1.000  H
  H883     1.0000 0.80108  0.91596  0.66594  Biso   1.000  H
  Li76     1.0000 0.95934  0.74754  0.17142  Biso   1.000  Li
  Li77     1.0000 0.95932  0.74750  0.17142  Biso   1.000  Li
  H884     1.0000 0.14742  0.81089  0.07906  Biso   1.000  H
  H885     1.0000 0.14742  0.81089  0.07893  Biso   1.000  H
  P142     1.0000 0.06419  0.83458  0.43971  Biso   1.000  P
  N69      1.0000 0.16736  0.92820  0.27693  Biso   1.000  N
  C189     1.0000 0.06852  0.92675  0.21444  Biso   1.000  C
  P143     1.0000 0.06413  0.83453  0.43971  Biso   1.000  P
  C190     1.0000 0.06848  0.92675  0.21444  Biso   1.000  C
  O529     1.0000 0.80562  0.78464  0.01384  Biso   1.000  O
  O530     1.0000 0.78761  0.78973  0.60373  Biso   1.000  O
  O531     1.0000 0.67310  0.71008  0.92601  Biso   1.000  O
  O532     1.0000 0.78759  0.78968  0.60373  Biso   1.000  O
  H886     1.0000 0.77544  0.81799  0.19594  Biso   1.000  H
  H887     1.0000 0.71919  0.81262  0.26500  Biso   1.000  H
  H888     1.0000 0.77295  0.82612  0.39901  Biso   1.000  H
  H889     1.0000 0.77536  0.81799  0.19594  Biso   1.000  H
  H890     1.0000 0.71917  0.81257  0.26500  Biso   1.000  H
  H891     1.0000 0.77285  0.82607  0.39901  Biso   1.000  H
  H892     1.0000 0.87872  0.92292  0.31694  Biso   1.000  H
  H893     1.0000 0.86863  0.91722  0.10496  Biso   1.000  H
  H894     1.0000 0.87563  0.97491  0.21006  Biso   1.000  H
  H895     1.0000 0.87563  0.97491  0.20992  Biso   1.000  H
  H896     1.0000 0.87866  0.92287  0.31694  Biso   1.000  H
  H897     1.0000 0.86861  0.91717  0.10496  Biso   1.000  H
  H898     1.0000 0.87561  0.97487  0.21006  Biso   1.000  H
  H899     1.0000 0.87561  0.97487  0.20992  Biso   1.000  H
  O533     1.0000 0.99795  0.78763  0.39627  Biso   1.000  O
  O534     1.0000 0.88978  0.76006  0.11537  Biso   1.000  O
  O535     1.0000 0.96301  0.67308  0.07399  Biso   1.000  O
  O536     1.0000 0.99795  0.78763  0.39614  Biso   1.000  O
  O537     1.0000 0.99785  0.78758  0.39627  Biso   1.000  O
  O538     1.0000 0.88976  0.76002  0.11537  Biso   1.000  O
  O539     1.0000 0.99785  0.78758  0.39614  Biso   1.000  O
  O540     1.0000 0.06558  0.88040  0.58989  Biso   1.000  O
  O541     1.0000 0.10563  0.80902  0.49657  Biso   1.000  O
  O542     1.0000 0.10556  0.80897  0.49657  Biso   1.000  O
  H900     1.0000 0.18204  0.95739  0.19594  Biso   1.000  H
  H901     1.0000 0.18744  0.90661  0.26500  Biso   1.000  H
  H902     1.0000 0.17394  0.94679  0.39901  Biso   1.000  H
  H903     1.0000 0.18196  0.95739  0.19594  Biso   1.000  H
  H904     1.0000 0.18741  0.90657  0.26500  Biso   1.000  H
  H905     1.0000 0.17386  0.94679  0.39901  Biso   1.000  H
  H906     1.0000 0.07715  0.95581  0.31694  Biso   1.000  H
  H907     1.0000 0.08280  0.95141  0.10496  Biso   1.000  H
  H908     1.0000 0.02515  0.90068  0.21006  Biso   1.000  H
  H909     1.0000 0.02515  0.90068  0.20992  Biso   1.000  H
  H910     1.0000 0.07704  0.95576  0.31694  Biso   1.000  H
  H911     1.0000 0.08278  0.95137  0.10496  Biso   1.000  H
  H912     1.0000 0.02507  0.90068  0.21006  Biso   1.000  H
  H913     1.0000 0.02507  0.90068  0.20992  Biso   1.000  H
  P144     1.0000 0.84242  0.75338  0.97479  Biso   1.000  P
  P145     1.0000 0.84236  0.75333  0.97479  Biso   1.000  P
  P146     1.0000 0.83456  0.77043  0.56029  Biso   1.000  P
  P147     1.0000 0.83454  0.77039  0.56029  Biso   1.000  P
  H914     1.0000 0.65340  0.72101  0.98205  Biso   1.000  H
  H915     1.0000 0.68536  0.69592  0.99301  Biso   1.000  H
  H916     1.0000 0.65340  0.72101  0.98191  Biso   1.000  H
  H917     1.0000 0.65338  0.72096  0.98205  Biso   1.000  H
  H918     1.0000 0.68526  0.69587  0.99301  Biso   1.000  H
  H919     1.0000 0.65338  0.72096  0.98191  Biso   1.000  H
  H920     1.0000 0.93246  0.65341  0.01795  Biso   1.000  H
  H921     1.0000 0.98940  0.68532  0.00699  Biso   1.000  H
  H922     1.0000 0.93236  0.65336  0.01795  Biso   1.000  H
  H923     1.0000 0.98938  0.68527  0.00699  Biso   1.000  H
  H924     1.0000 0.08404  0.88512  0.66594  Biso   1.000  H
  H925     1.0000 0.08402  0.88508  0.66594  Biso   1.000  H
  C191     1.0000 0.88595  0.78744  0.75993  Biso   1.000  C
  C192     1.0000 0.88593  0.78739  0.75993  Biso   1.000  C
  O543     1.0000 0.79549  0.68265  0.93395  Biso   1.000  O
  O544     1.0000 0.80900  0.70344  0.50343  Biso   1.000  O
  O545     1.0000 0.88049  0.81486  0.41011  Biso   1.000  O
  O546     1.0000 0.88042  0.81481  0.41011  Biso   1.000  O
  N70      1.0000 0.92819  0.76081  0.72307  Biso   1.000  N
  C193     1.0000 0.92677  0.85831  0.78556  Biso   1.000  C
  C194     1.0000 0.92677  0.85831  0.78542  Biso   1.000  C
  C195     1.0000 0.92674  0.85826  0.78556  Biso   1.000  C
  C196     1.0000 0.92674  0.85826  0.78542  Biso   1.000  C
  H926     1.0000 0.81095  0.66350  0.92094  Biso   1.000  H
  H927     1.0000 0.81091  0.66350  0.92094  Biso   1.000  H
  H928     1.0000 0.88508  0.80108  0.33406  Biso   1.000  H
  H929     1.0000 0.88508  0.80108  0.33393  Biso   1.000  H
  H930     1.0000 0.95744  0.77539  0.80406  Biso   1.000  H
  H931     1.0000 0.90665  0.71918  0.73500  Biso   1.000  H
  H932     1.0000 0.94682  0.77291  0.60099  Biso   1.000  H
  H933     1.0000 0.95744  0.77539  0.80392  Biso   1.000  H
  H934     1.0000 0.95736  0.77539  0.80406  Biso   1.000  H
  H935     1.0000 0.90656  0.71918  0.73500  Biso   1.000  H
  H936     1.0000 0.94679  0.77286  0.60099  Biso   1.000  H
  H937     1.0000 0.95736  0.77539  0.80392  Biso   1.000  H
  H938     1.0000 0.95583  0.87872  0.68306  Biso   1.000  H
  H939     1.0000 0.95141  0.86859  0.89504  Biso   1.000  H
  H940     1.0000 0.90074  0.87559  0.78994  Biso   1.000  H
  H941     1.0000 0.95583  0.87872  0.68293  Biso   1.000  H
  H942     1.0000 0.95576  0.87868  0.68306  Biso   1.000  H
  H943     1.0000 0.95137  0.86859  0.89504  Biso   1.000  H
  H944     1.0000 0.90070  0.87559  0.78994  Biso   1.000  H
  H945     1.0000 0.95576  0.87868  0.68293  Biso   1.000  H
  C197     1.0000 0.07323  0.14169  0.21444  Biso   1.000  C
  C198     1.0000 0.11405  0.21256  0.24007  Biso   1.000  C
  C199     1.0000 0.11401  0.21256  0.24007  Biso   1.000  C
  H946     1.0000 0.04417  0.12128  0.31694  Biso   1.000  H
  H947     1.0000 0.04859  0.13141  0.10496  Biso   1.000  H
  H948     1.0000 0.09930  0.12441  0.21006  Biso   1.000  H
  H949     1.0000 0.09930  0.12441  0.20992  Biso   1.000  H
  H950     1.0000 0.04857  0.13137  0.10496  Biso   1.000  H
  H951     1.0000 0.09928  0.12436  0.21006  Biso   1.000  H
  H952     1.0000 0.09928  0.12436  0.20992  Biso   1.000  H
  P148     1.0000 0.15758  0.24662  0.02521  Biso   1.000  P
  P149     1.0000 0.16544  0.22957  0.43971  Biso   1.000  P
  N71      1.0000 0.07181  0.23919  0.27693  Biso   1.000  N
  P150     1.0000 0.16540  0.22957  0.43971  Biso   1.000  P
  N72      1.0000 0.07175  0.23914  0.27693  Biso   1.000  N
  C200     1.0000 0.07319  0.14169  0.21444  Biso   1.000  C
  O547     1.0000 0.11022  0.23994  0.88463  Biso   1.000  O
  O548     1.0000 0.19438  0.21536  0.98616  Biso   1.000  O
  O549     1.0000 0.11022  0.23994  0.88449  Biso   1.000  O
  O550     1.0000 0.11018  0.23994  0.88463  Biso   1.000  O
  O551     1.0000 0.19436  0.21532  0.98616  Biso   1.000  O
  O552     1.0000 0.11018  0.23994  0.88449  Biso   1.000  O
  O553     1.0000 0.20455  0.31735  0.06605  Biso   1.000  O
  O554     1.0000 0.20449  0.31730  0.06605  Biso   1.000  O
  O555     1.0000 0.21239  0.21027  0.39627  Biso   1.000  O
  O556     1.0000 0.21239  0.21027  0.39614  Biso   1.000  O
  O557     1.0000 0.21235  0.21027  0.39627  Biso   1.000  O
  O558     1.0000 0.21235  0.21027  0.39614  Biso   1.000  O
  O559     1.0000 0.11955  0.18514  0.58989  Biso   1.000  O
  O560     1.0000 0.19100  0.29656  0.49657  Biso   1.000  O
  O561     1.0000 0.19096  0.29656  0.49657  Biso   1.000  O
  H953     1.0000 0.05318  0.22709  0.39901  Biso   1.000  H
  H954     1.0000 0.04260  0.22461  0.19594  Biso   1.000  H
  H955     1.0000 0.09340  0.28082  0.26500  Biso   1.000  H
  H956     1.0000 0.04257  0.22457  0.19594  Biso   1.000  H
  H957     1.0000 0.09337  0.28077  0.26500  Biso   1.000  H
  Li78     1.0000 0.04066  0.25246  0.82858  Biso   1.000  Li
  Li79     1.0000 0.04062  0.25246  0.82858  Biso   1.000  Li
  Li80     1.0000 0.25249  0.21181  0.17142  Biso   1.000  Li
  Li81     1.0000 0.25245  0.21181  0.17142  Biso   1.000  Li
  H958     1.0000 0.18909  0.33650  0.07906  Biso   1.000  H
  H959     1.0000 0.18909  0.33650  0.07893  Biso   1.000  H
  H960     1.0000 0.11492  0.19892  0.66594  Biso   1.000  H
  H961     1.0000 0.11485  0.19887  0.66594  Biso   1.000  H
  O562     1.0000 0.97902  0.19439  0.01384  Biso   1.000  O
  O563     1.0000 0.00209  0.21237  0.60373  Biso   1.000  O
  O564     1.0000 0.03703  0.32692  0.92601  Biso   1.000  O
  O565     1.0000 0.03697  0.32688  0.92601  Biso   1.000  O
  O566     1.0000 0.23997  0.12973  0.11537  Biso   1.000  O
  O567     1.0000 0.32694  0.28992  0.07399  Biso   1.000  O
  O568     1.0000 0.23990  0.12969  0.11537  Biso   1.000  O
  O569     1.0000 0.32688  0.28988  0.07399  Biso   1.000  O
  P151     1.0000 0.91097  0.15758  0.97479  Biso   1.000  P
  P152     1.0000 0.91093  0.15758  0.97479  Biso   1.000  P
  P153     1.0000 0.93585  0.16542  0.56029  Biso   1.000  P
  H962     1.0000 0.06758  0.34659  0.98205  Biso   1.000  H
  H963     1.0000 0.01060  0.31468  0.99301  Biso   1.000  H
  H964     1.0000 0.06758  0.34659  0.98191  Biso   1.000  H
  H965     1.0000 0.01056  0.31468  0.99301  Biso   1.000  H
  P154     1.0000 0.24665  0.08904  0.97479  Biso   1.000  P
  P155     1.0000 0.24659  0.08900  0.97479  Biso   1.000  P
  H966     1.0000 0.31468  0.30408  0.00699  Biso   1.000  H
  H967     1.0000 0.34660  0.27899  0.01795  Biso   1.000  H
  H968     1.0000 0.34656  0.27899  0.01795  Biso   1.000  H
  O570     1.0000 0.88719  0.20453  0.93395  Biso   1.000  O
  C201     1.0000 0.90146  0.11404  0.75993  Biso   1.000  C
  O571     1.0000 0.88715  0.20453  0.93395  Biso   1.000  O
  O572     1.0000 0.87025  0.11021  0.11537  Biso   1.000  O
  O573     1.0000 0.89441  0.19098  0.50343  Biso   1.000  O
  O574     1.0000 0.93442  0.11960  0.41011  Biso   1.000  O
  O575     1.0000 0.93439  0.11955  0.41011  Biso   1.000  O
  O576     1.0000 0.31736  0.11282  0.93395  Biso   1.000  O
  C202     1.0000 0.21259  0.09853  0.75993  Biso   1.000  C
  O577     1.0000 0.31730  0.11277  0.93395  Biso   1.000  O
  C203     1.0000 0.21253  0.09848  0.75993  Biso   1.000  C
  O578     1.0000 0.21537  0.02098  0.01384  Biso   1.000  O
  O579     1.0000 0.21530  0.02093  0.01384  Biso   1.000  O
  H969     1.0000 0.85262  0.18911  0.92094  Biso   1.000  H
  H970     1.0000 0.85255  0.18906  0.92094  Biso   1.000  H
  N73      1.0000 0.83264  0.07180  0.72307  Biso   1.000  N
  C204     1.0000 0.93152  0.07325  0.78556  Biso   1.000  C
  C205     1.0000 0.93152  0.07325  0.78542  Biso   1.000  C
  N74      1.0000 0.83258  0.07176  0.72307  Biso   1.000  N
  C206     1.0000 0.93149  0.07321  0.78556  Biso   1.000  C
  C207     1.0000 0.93149  0.07321  0.78542  Biso   1.000  C
  Li82     1.0000 0.78817  0.04064  0.17142  Biso   1.000  Li
  H971     1.0000 0.91600  0.11488  0.33406  Biso   1.000  H
  H972     1.0000 0.91600  0.11488  0.33393  Biso   1.000  H
  H973     1.0000 0.91596  0.11488  0.33406  Biso   1.000  H
  H974     1.0000 0.91596  0.11488  0.33393  Biso   1.000  H
  H975     1.0000 0.33651  0.14739  0.92094  Biso   1.000  H
  H976     1.0000 0.33647  0.14739  0.92094  Biso   1.000  H
  P156     1.0000 0.22959  0.06414  0.56029  Biso   1.000  P
  N75      1.0000 0.23917  0.16739  0.72307  Biso   1.000  N
  C208     1.0000 0.14170  0.06849  0.78556  Biso   1.000  C
  C209     1.0000 0.14170  0.06849  0.78542  Biso   1.000  C
  P157     1.0000 0.22955  0.06414  0.56029  Biso   1.000  P
  N76      1.0000 0.23915  0.16734  0.72307  Biso   1.000  N
  C210     1.0000 0.14168  0.06844  0.78556  Biso   1.000  C
  C211     1.0000 0.14168  0.06844  0.78542  Biso   1.000  C
  Li83     1.0000 0.21187  0.95936  0.82858  Biso   1.000  Li
  Li84     1.0000 0.21176  0.95931  0.82858  Biso   1.000  Li
  H977     1.0000 0.81800  0.04261  0.80406  Biso   1.000  H
  H978     1.0000 0.81260  0.09339  0.73500  Biso   1.000  H
  H979     1.0000 0.82610  0.05321  0.60099  Biso   1.000  H
  H980     1.0000 0.81800  0.04261  0.80392  Biso   1.000  H
  H981     1.0000 0.81798  0.04256  0.80406  Biso   1.000  H
  H982     1.0000 0.81256  0.09339  0.73500  Biso   1.000  H
  H983     1.0000 0.82607  0.05316  0.60099  Biso   1.000  H
  H984     1.0000 0.81798  0.04256  0.80392  Biso   1.000  H
  H985     1.0000 0.92289  0.04419  0.68306  Biso   1.000  H
  H986     1.0000 0.91720  0.04859  0.89504  Biso   1.000  H
  H987     1.0000 0.97489  0.09932  0.78994  Biso   1.000  H
  H988     1.0000 0.92289  0.04419  0.68293  Biso   1.000  H
  H989     1.0000 0.91716  0.04859  0.89504  Biso   1.000  H
  H990     1.0000 0.97487  0.09927  0.78994  Biso   1.000  H
  O580     1.0000 0.78463  0.97902  0.98616  Biso   1.000  O
  O581     1.0000 0.78974  0.00210  0.39627  Biso   1.000  O
  O582     1.0000 0.71009  0.03700  0.07399  Biso   1.000  O
  O583     1.0000 0.78974  0.00210  0.39614  Biso   1.000  O
  O584     1.0000 0.78970  0.00210  0.39627  Biso   1.000  O
  O585     1.0000 0.71005  0.03700  0.07399  Biso   1.000  O
  O586     1.0000 0.78970  0.00210  0.39614  Biso   1.000  O
  O587     1.0000 0.21026  0.99790  0.60373  Biso   1.000  O
  O588     1.0000 0.29659  0.10558  0.50343  Biso   1.000  O
  O589     1.0000 0.18516  0.06559  0.41011  Biso   1.000  O
  O590     1.0000 0.29653  0.10553  0.50343  Biso   1.000  O
  O591     1.0000 0.18514  0.06554  0.41011  Biso   1.000  O
  H991     1.0000 0.22460  0.18201  0.80406  Biso   1.000  H
  H992     1.0000 0.28081  0.18738  0.73500  Biso   1.000  H
  H993     1.0000 0.22709  0.17388  0.60099  Biso   1.000  H
  H994     1.0000 0.22460  0.18201  0.80392  Biso   1.000  H
  H995     1.0000 0.22457  0.18196  0.80406  Biso   1.000  H
  H996     1.0000 0.28077  0.18738  0.73500  Biso   1.000  H
  H997     1.0000 0.22457  0.18196  0.80392  Biso   1.000  H
  H998     1.0000 0.12128  0.07708  0.68306  Biso   1.000  H
  H999     1.0000 0.13141  0.08278  0.89504  Biso   1.000  H
  H1000    1.0000 0.12441  0.02509  0.78994  Biso   1.000  H
  H1001    1.0000 0.12128  0.07708  0.68293  Biso   1.000  H
  H1002    1.0000 0.13137  0.08278  0.89504  Biso   1.000  H
  H1003    1.0000 0.12437  0.02509  0.78994  Biso   1.000  H
  O592     1.0000 0.12975  0.88979  0.88463  Biso   1.000  O
  O593     1.0000 0.28991  0.96300  0.92601  Biso   1.000  O
  O594     1.0000 0.12975  0.88979  0.88449  Biso   1.000  O
  O595     1.0000 0.12973  0.88975  0.88463  Biso   1.000  O
  O596     1.0000 0.28989  0.96295  0.92601  Biso   1.000  O
  O597     1.0000 0.12973  0.88975  0.88449  Biso   1.000  O
  P158     1.0000 0.75339  0.91096  0.02521  Biso   1.000  P
  P159     1.0000 0.77045  0.93586  0.43971  Biso   1.000  P
  P160     1.0000 0.77043  0.93581  0.43971  Biso   1.000  P
  H1004    1.0000 0.72102  0.06760  0.01795  Biso   1.000  H
  H1005    1.0000 0.69592  0.01060  0.00699  Biso   1.000  H
  H1006    1.0000 0.72098  0.06760  0.01795  Biso   1.000  H
  H1007    1.0000 0.69586  0.01056  0.00699  Biso   1.000  H
  H1008    1.0000 0.19889  0.08400  0.33406  Biso   1.000  H
  H1009    1.0000 0.19889  0.08400  0.33393  Biso   1.000  H
  P161     1.0000 0.08907  0.84242  0.02521  Biso   1.000  P
  P162     1.0000 0.08905  0.84238  0.02521  Biso   1.000  P
  H1010    1.0000 0.27898  0.93240  0.98205  Biso   1.000  H
  H1011    1.0000 0.30408  0.98940  0.99301  Biso   1.000  H
  H1012    1.0000 0.27898  0.93240  0.98191  Biso   1.000  H
  O598     1.0000 0.76007  0.87027  0.88463  Biso   1.000  O
  O599     1.0000 0.76007  0.87027  0.88449  Biso   1.000  O
  O600     1.0000 0.68268  0.88718  0.06605  Biso   1.000  O
  C212     1.0000 0.78741  0.90147  0.24007  Biso   1.000  C
  O601     1.0000 0.70341  0.89442  0.49657  Biso   1.000  O
  O602     1.0000 0.81488  0.93441  0.58989  Biso   1.000  O
  O603     1.0000 0.81480  0.93441  0.58989  Biso   1.000  O
  O604     1.0000 0.02098  0.80561  0.98616  Biso   1.000  O
  O605     1.0000 0.11281  0.79547  0.06605  Biso   1.000  O
  C213     1.0000 0.09854  0.88596  0.24007  Biso   1.000  C
  O606     1.0000 0.11279  0.79543  0.06605  Biso   1.000  O
  C214     1.0000 0.09852  0.88592  0.24007  Biso   1.000  C
  Li85     1.0000 0.74751  0.78819  0.82858  Biso   1.000  Li
  Li86     1.0000 0.74749  0.78814  0.82858  Biso   1.000  Li
  H1013    1.0000 0.66353  0.85261  0.07906  Biso   1.000  H
  H1014    1.0000 0.66353  0.85261  0.07893  Biso   1.000  H
  H1015    1.0000 0.66351  0.85256  0.07906  Biso   1.000  H
  H1016    1.0000 0.66351  0.85256  0.07893  Biso   1.000  H
  N77      1.0000 0.76087  0.83261  0.27693  Biso   1.000  N
  C215     1.0000 0.85834  0.93151  0.21444  Biso   1.000  C
  N78      1.0000 0.76079  0.83261  0.27693  Biso   1.000  N
  C216     1.0000 0.85830  0.93151  0.21444  Biso   1.000  C
  H1017    1.0000 0.80115  0.91600  0.66594  Biso   1.000  H
  H1018    1.0000 0.80108  0.91596  0.66594  Biso   1.000  H
  Li87     1.0000 0.95934  0.74754  0.17142  Biso   1.000  Li
  Li88     1.0000 0.95932  0.74750  0.17142  Biso   1.000  Li
  H1019    1.0000 0.14742  0.81089  0.07906  Biso   1.000  H
  H1020    1.0000 0.14742  0.81089  0.07893  Biso   1.000  H
  P163     1.0000 0.06419  0.83458  0.43971  Biso   1.000  P
  N79      1.0000 0.16736  0.92820  0.27693  Biso   1.000  N
  C217     1.0000 0.06852  0.92675  0.21444  Biso   1.000  C
  P164     1.0000 0.06413  0.83453  0.43971  Biso   1.000  P
  C218     1.0000 0.06848  0.92675  0.21444  Biso   1.000  C
  O607     1.0000 0.80562  0.78464  0.01384  Biso   1.000  O
  O608     1.0000 0.78761  0.78973  0.60373  Biso   1.000  O
  O609     1.0000 0.67310  0.71008  0.92601  Biso   1.000  O
  O610     1.0000 0.78759  0.78968  0.60373  Biso   1.000  O
  H1021    1.0000 0.77544  0.81799  0.19594  Biso   1.000  H
  H1022    1.0000 0.71919  0.81262  0.26500  Biso   1.000  H
  H1023    1.0000 0.77295  0.82612  0.39901  Biso   1.000  H
  H1024    1.0000 0.77536  0.81799  0.19594  Biso   1.000  H
  H1025    1.0000 0.71917  0.81257  0.26500  Biso   1.000  H
  H1026    1.0000 0.77285  0.82607  0.39901  Biso   1.000  H
  H1027    1.0000 0.87872  0.92292  0.31694  Biso   1.000  H
  H1028    1.0000 0.86863  0.91722  0.10496  Biso   1.000  H
  H1029    1.0000 0.87563  0.97491  0.21006  Biso   1.000  H
  H1030    1.0000 0.87563  0.97491  0.20992  Biso   1.000  H
  H1031    1.0000 0.87866  0.92287  0.31694  Biso   1.000  H
  H1032    1.0000 0.86861  0.91717  0.10496  Biso   1.000  H
  H1033    1.0000 0.87561  0.97487  0.21006  Biso   1.000  H
  H1034    1.0000 0.87561  0.97487  0.20992  Biso   1.000  H
  O611     1.0000 0.99795  0.78763  0.39627  Biso   1.000  O
  O612     1.0000 0.88978  0.76006  0.11537  Biso   1.000  O
  O613     1.0000 0.96301  0.67308  0.07399  Biso   1.000  O
  O614     1.0000 0.99795  0.78763  0.39614  Biso   1.000  O
  O615     1.0000 0.99785  0.78758  0.39627  Biso   1.000  O
  O616     1.0000 0.88976  0.76002  0.11537  Biso   1.000  O
  O617     1.0000 0.99785  0.78758  0.39614  Biso   1.000  O
  O618     1.0000 0.06558  0.88040  0.58989  Biso   1.000  O
  O619     1.0000 0.10563  0.80902  0.49657  Biso   1.000  O
  O620     1.0000 0.10556  0.80897  0.49657  Biso   1.000  O
  H1035    1.0000 0.18204  0.95739  0.19594  Biso   1.000  H
  H1036    1.0000 0.18744  0.90661  0.26500  Biso   1.000  H
  H1037    1.0000 0.17394  0.94679  0.39901  Biso   1.000  H
  H1038    1.0000 0.18196  0.95739  0.19594  Biso   1.000  H
  H1039    1.0000 0.18741  0.90657  0.26500  Biso   1.000  H
  H1040    1.0000 0.17386  0.94679  0.39901  Biso   1.000  H
  H1041    1.0000 0.07715  0.95581  0.31694  Biso   1.000  H
  H1042    1.0000 0.08280  0.95141  0.10496  Biso   1.000  H
  H1043    1.0000 0.02515  0.90068  0.21006  Biso   1.000  H
  H1044    1.0000 0.02515  0.90068  0.20992  Biso   1.000  H
  H1045    1.0000 0.07704  0.95576  0.31694  Biso   1.000  H
  H1046    1.0000 0.08278  0.95137  0.10496  Biso   1.000  H
  H1047    1.0000 0.02507  0.90068  0.21006  Biso   1.000  H
  H1048    1.0000 0.02507  0.90068  0.20992  Biso   1.000  H
  P165     1.0000 0.84242  0.75338  0.97479  Biso   1.000  P
  P166     1.0000 0.84236  0.75333  0.97479  Biso   1.000  P
  P167     1.0000 0.83456  0.77043  0.56029  Biso   1.000  P
  P168     1.0000 0.83454  0.77039  0.56029  Biso   1.000  P
  H1049    1.0000 0.65340  0.72101  0.98205  Biso   1.000  H
  H1050    1.0000 0.68536  0.69592  0.99301  Biso   1.000  H
  H1051    1.0000 0.65340  0.72101  0.98191  Biso   1.000  H
  H1052    1.0000 0.65338  0.72096  0.98205  Biso   1.000  H
  H1053    1.0000 0.68526  0.69587  0.99301  Biso   1.000  H
  H1054    1.0000 0.65338  0.72096  0.98191  Biso   1.000  H
  H1055    1.0000 0.93246  0.65341  0.01795  Biso   1.000  H
  H1056    1.0000 0.98940  0.68532  0.00699  Biso   1.000  H
  H1057    1.0000 0.93236  0.65336  0.01795  Biso   1.000  H
  H1058    1.0000 0.98938  0.68527  0.00699  Biso   1.000  H
  H1059    1.0000 0.08404  0.88512  0.66594  Biso   1.000  H
  H1060    1.0000 0.08402  0.88508  0.66594  Biso   1.000  H
  C219     1.0000 0.88595  0.78744  0.75993  Biso   1.000  C
  C220     1.0000 0.88593  0.78739  0.75993  Biso   1.000  C
  O621     1.0000 0.79549  0.68265  0.93395  Biso   1.000  O
  O622     1.0000 0.80900  0.70344  0.50343  Biso   1.000  O
  O623     1.0000 0.88049  0.81486  0.41011  Biso   1.000  O
  O624     1.0000 0.88042  0.81481  0.41011  Biso   1.000  O
  N80      1.0000 0.92819  0.76081  0.72307  Biso   1.000  N
  C221     1.0000 0.92677  0.85831  0.78556  Biso   1.000  C
  C222     1.0000 0.92677  0.85831  0.78542  Biso   1.000  C
  C223     1.0000 0.92674  0.85826  0.78556  Biso   1.000  C
  C224     1.0000 0.92674  0.85826  0.78542  Biso   1.000  C
  H1061    1.0000 0.81095  0.66350  0.92094  Biso   1.000  H
  H1062    1.0000 0.81091  0.66350  0.92094  Biso   1.000  H
  H1063    1.0000 0.88508  0.80108  0.33406  Biso   1.000  H
  H1064    1.0000 0.88508  0.80108  0.33393  Biso   1.000  H
  H1065    1.0000 0.95744  0.77539  0.80406  Biso   1.000  H
  H1066    1.0000 0.90665  0.71918  0.73500  Biso   1.000  H
  H1067    1.0000 0.94682  0.77291  0.60099  Biso   1.000  H
  H1068    1.0000 0.95744  0.77539  0.80392  Biso   1.000  H
  H1069    1.0000 0.95736  0.77539  0.80406  Biso   1.000  H
  H1070    1.0000 0.90656  0.71918  0.73500  Biso   1.000  H
  H1071    1.0000 0.94679  0.77286  0.60099  Biso   1.000  H
  H1072    1.0000 0.95736  0.77539  0.80392  Biso   1.000  H
  H1073    1.0000 0.95583  0.87872  0.68306  Biso   1.000  H
  H1074    1.0000 0.95141  0.86859  0.89504  Biso   1.000  H
  H1075    1.0000 0.90074  0.87559  0.78994  Biso   1.000  H
  H1076    1.0000 0.95583  0.87872  0.68293  Biso   1.000  H
  H1077    1.0000 0.95576  0.87868  0.68306  Biso   1.000  H
  H1078    1.0000 0.95137  0.86859  0.89504  Biso   1.000  H
  H1079    1.0000 0.90070  0.87559  0.78994  Biso   1.000  H
  H1080    1.0000 0.95576  0.87868  0.68293  Biso   1.000  H
  O625     1.0000 0.34932  0.22050  0.39929  Biso   1.000  O
  P169     1.0000 0.42003  0.24428  0.35859  Biso   1.000  P
  H1081    1.0000 0.33017  0.18593  0.41230  Biso   1.000  H
  O626     1.0000 0.42671  0.20359  0.21787  Biso   1.000  O
  O627     1.0000 0.45132  0.31235  0.31954  Biso   1.000  O
  C225     1.0000 0.45409  0.23480  0.57344  Biso   1.000  C
  Li89     1.0000 0.41420  0.12151  0.16196  Biso   1.000  Li
  Li90     1.0000 0.45486  0.37397  0.50466  Biso   1.000  Li
  P170     1.0000 0.43710  0.26918  0.77309  Biso   1.000  P
  N81      1.0000 0.42747  0.16594  0.61017  Biso   1.000  N
  C226     1.0000 0.52497  0.26488  0.54782  Biso   1.000  C
  O628     1.0000 0.47226  0.11796  0.34722  Biso   1.000  O
  O629     1.0000 0.33976  0.04345  0.25939  Biso   1.000  O
  O630     1.0000 0.45429  0.12305  0.93711  Biso   1.000  O
  O631     1.0000 0.53696  0.44358  0.44875  Biso   1.000  O
  O632     1.0000 0.45638  0.33543  0.72951  Biso   1.000  O
  O633     1.0000 0.37673  0.37032  0.40737  Biso   1.000  O
  O634     1.0000 0.37012  0.22779  0.82995  Biso   1.000  O
  O635     1.0000 0.48151  0.26778  0.92327  Biso   1.000  O
  H1082    1.0000 0.44205  0.15132  0.52932  Biso   1.000  H
  H1083    1.0000 0.38587  0.14594  0.59838  Biso   1.000  H
  H1084    1.0000 0.43956  0.15944  0.73226  Biso   1.000  H
  H1085    1.0000 0.54536  0.25624  0.65032  Biso   1.000  H
  H1086    1.0000 0.53527  0.25054  0.43834  Biso   1.000  H
  H1087    1.0000 0.54227  0.30824  0.54330  Biso   1.000  H
  P171     1.0000 0.50907  0.08671  0.30803  Biso   1.000  P
  H1088    1.0000 0.32008  0.05433  0.31529  Biso   1.000  H
  H1089    1.0000 0.35196  0.02924  0.32639  Biso   1.000  H
  P172     1.0000 0.50125  0.10376  0.89367  Biso   1.000  P
  P173     1.0000 0.57763  0.49095  0.30803  Biso   1.000  P
  H1090    1.0000 0.38766  0.40092  0.35133  Biso   1.000  H
  H1091    1.0000 0.36256  0.34393  0.34037  Biso   1.000  H
  H1092    1.0000 0.46775  0.24933  0.99931  Biso   1.000  H
  O636     1.0000 0.55646  0.09339  0.44875  Biso   1.000  O
  O637     1.0000 0.46213  0.01598  0.26733  Biso   1.000  O
  C227     1.0000 0.55263  0.12076  0.09318  Biso   1.000  C
  O638     1.0000 0.47568  0.03677  0.83667  Biso   1.000  O
  O639     1.0000 0.54709  0.14819  0.74349  Biso   1.000  O
  O640     1.0000 0.55383  0.53785  0.26733  Biso   1.000  O
  O641     1.0000 0.64570  0.52771  0.34722  Biso   1.000  O
  C228     1.0000 0.56814  0.44736  0.09318  Biso   1.000  C
  Li91     1.0000 0.62602  0.08087  0.50466  Biso   1.000  Li
  H1093    1.0000 0.47760  0.99682  0.25432  Biso   1.000  H
  N82      1.0000 0.59487  0.09413  0.05645  Biso   1.000  N
  C229     1.0000 0.59345  0.19163  0.11880  Biso   1.000  C
  H1094    1.0000 0.55179  0.13445  0.66731  Biso   1.000  H
  H1095    1.0000 0.51926  0.52243  0.25432  Biso   1.000  H
  Li92     1.0000 0.70730  0.58578  0.16196  Biso   1.000  Li
  N83      1.0000 0.49928  0.40513  0.05645  Biso   1.000  N
  C230     1.0000 0.59820  0.40658  0.11880  Biso   1.000  C
  P174     1.0000 0.60253  0.49875  0.89367  Biso   1.000  P
  O642     1.0000 0.66455  0.12095  0.72951  Biso   1.000  O
  O643     1.0000 0.68763  0.13894  0.31954  Biso   1.000  O
  O644     1.0000 0.62965  0.00640  0.40737  Biso   1.000  O
  H1096    1.0000 0.62404  0.10871  0.13730  Biso   1.000  H
  H1097    1.0000 0.57327  0.05256  0.06837  Biso   1.000  H
  H1098    1.0000 0.61346  0.10623  0.93437  Biso   1.000  H
  H1099    1.0000 0.62247  0.21205  0.01631  Biso   1.000  H
  H1100    1.0000 0.61805  0.20191  0.22828  Biso   1.000  H
  H1101    1.0000 0.56734  0.20892  0.12332  Biso   1.000  H
  O645     1.0000 0.77686  0.57326  0.21787  Biso   1.000  O
  O646     1.0000 0.70367  0.66025  0.25939  Biso   1.000  O
  O647     1.0000 0.66877  0.54570  0.93711  Biso   1.000  O
  H1102    1.0000 0.48468  0.37593  0.13730  Biso   1.000  H
  H1103    1.0000 0.47925  0.42671  0.06837  Biso   1.000  H
  H1104    1.0000 0.49278  0.38654  0.93437  Biso   1.000  H
  H1105    1.0000 0.58958  0.37752  0.01631  Biso   1.000  H
  H1106    1.0000 0.58384  0.38191  0.22828  Biso   1.000  H
  H1107    1.0000 0.64158  0.43264  0.12332  Biso   1.000  H
  O648     1.0000 0.56112  0.52435  0.83667  Biso   1.000  O
  O649     1.0000 0.60110  0.45292  0.74349  Biso   1.000  O
  P175     1.0000 0.73079  0.16790  0.77309  Biso   1.000  P
  P176     1.0000 0.75571  0.17575  0.35859  Biso   1.000  P
  H1108    1.0000 0.65608  0.01864  0.34037  Biso   1.000  H
  H1109    1.0000 0.59910  0.98673  0.35133  Biso   1.000  H
  P177     1.0000 0.82426  0.57994  0.35859  Biso   1.000  P
  H1110    1.0000 0.73426  0.67992  0.31529  Biso   1.000  H
  H1111    1.0000 0.67727  0.64806  0.32639  Biso   1.000  H
  H1112    1.0000 0.58266  0.44825  0.66731  Biso   1.000  H
  O650     1.0000 0.77223  0.14235  0.82995  Biso   1.000  O
  O651     1.0000 0.73225  0.21378  0.92327  Biso   1.000  O
  C231     1.0000 0.76519  0.21929  0.57344  Biso   1.000  C
  O652     1.0000 0.79639  0.22312  0.21787  Biso   1.000  O
  O653     1.0000 0.77949  0.12880  0.39929  Biso   1.000  O
  O654     1.0000 0.87120  0.65067  0.39929  Biso   1.000  O
  O655     1.0000 0.86107  0.54869  0.31954  Biso   1.000  O
  C232     1.0000 0.78069  0.54589  0.57344  Biso   1.000  C
  H1113    1.0000 0.75069  0.21845  0.99931  Biso   1.000  H
  N84      1.0000 0.83404  0.26152  0.61017  Biso   1.000  N
  C233     1.0000 0.73513  0.26007  0.54782  Biso   1.000  C
  Li93     1.0000 0.87847  0.29268  0.16196  Biso   1.000  Li
  H1114    1.0000 0.81407  0.14421  0.41230  Biso   1.000  H
  H1115    1.0000 0.85577  0.66983  0.41230  Biso   1.000  H
  Li94     1.0000 0.91913  0.54514  0.50466  Biso   1.000  Li
  P178     1.0000 0.83208  0.56289  0.77309  Biso   1.000  P
  N85      1.0000 0.73846  0.57252  0.61017  Biso   1.000  N
  C234     1.0000 0.73990  0.47506  0.54782  Biso   1.000  C
  H1116    1.0000 0.84864  0.29072  0.52932  Biso   1.000  H
  H1117    1.0000 0.85408  0.23994  0.59838  Biso   1.000  H
  H1118    1.0000 0.84055  0.28011  0.73226  Biso   1.000  H
  H1119    1.0000 0.74375  0.28913  0.65032  Biso   1.000  H
  H1120    1.0000 0.74948  0.28474  0.43834  Biso   1.000  H
  H1121    1.0000 0.69177  0.23405  0.54330  Biso   1.000  H
  O656     1.0000 0.95659  0.29633  0.25939  Biso   1.000  O
  O657     1.0000 0.88201  0.35430  0.34722  Biso   1.000  O
  O658     1.0000 0.87694  0.33122  0.93711  Biso   1.000  O
  O659     1.0000 0.90661  0.46306  0.44875  Biso   1.000  O
  O660     1.0000 0.87903  0.54360  0.72951  Biso   1.000  O
  O661     1.0000 0.99358  0.62325  0.40737  Biso   1.000  O
  O662     1.0000 0.85765  0.62988  0.82995  Biso   1.000  O
  O663     1.0000 0.78624  0.51846  0.92327  Biso   1.000  O
  H1122    1.0000 0.70928  0.55794  0.52932  Biso   1.000  H
  H1123    1.0000 0.76008  0.61414  0.59838  Biso   1.000  H
  H1124    1.0000 0.71986  0.56042  0.73226  Biso   1.000  H
  H1125    1.0000 0.71088  0.45465  0.65032  Biso   1.000  H
  H1126    1.0000 0.71528  0.46474  0.43834  Biso   1.000  H
  H1127    1.0000 0.76599  0.45773  0.54330  Biso   1.000  H
  H1128    1.0000 0.94566  0.26573  0.31529  Biso   1.000  H
  H1129    1.0000 0.97076  0.32272  0.32639  Biso   1.000  H
  P179     1.0000 0.91329  0.42237  0.30803  Biso   1.000  P
  P180     1.0000 0.89623  0.39747  0.89367  Biso   1.000  P
  H1130    1.0000 0.98139  0.63745  0.34037  Biso   1.000  H
  H1131    1.0000 0.01324  0.61232  0.35133  Biso   1.000  H
  H1132    1.0000 0.78156  0.53225  0.99931  Biso   1.000  H
  O664     1.0000 0.98401  0.44615  0.26733  Biso   1.000  O
  C235     1.0000 0.87923  0.43185  0.09318  Biso   1.000  C
  O665     1.0000 0.96323  0.43890  0.83667  Biso   1.000  O
  O666     1.0000 0.85184  0.39892  0.74349  Biso   1.000  O
  H1133    1.0000 0.00315  0.48072  0.25432  Biso   1.000  H
  N86      1.0000 0.90586  0.50071  0.05645  Biso   1.000  N
  C236     1.0000 0.80838  0.40181  0.11880  Biso   1.000  C
  H1134    1.0000 0.86558  0.41732  0.66731  Biso   1.000  H
  H1135    1.0000 0.89128  0.51533  0.13730  Biso   1.000  H
  H1136    1.0000 0.94747  0.52075  0.06837  Biso   1.000  H
  H1137    1.0000 0.89379  0.50725  0.93437  Biso   1.000  H
  H1138    1.0000 0.78798  0.41045  0.01631  Biso   1.000  H
  H1139    1.0000 0.79808  0.41615  0.22828  Biso   1.000  H
  H1140    1.0000 0.79105  0.35841  0.12332  Biso   1.000  H
  O667     1.0000 0.14232  0.37009  0.17005  Biso   1.000  O
  P181     1.0000 0.16789  0.43708  0.22691  Biso   1.000  P
  C237     1.0000 0.21928  0.45409  0.42656  Biso   1.000  C
  O668     1.0000 0.12093  0.45638  0.27049  Biso   1.000  O
  O669     1.0000 0.21377  0.48151  0.07673  Biso   1.000  O
  P182     1.0000 0.17575  0.42003  0.64141  Biso   1.000  P
  N87      1.0000 0.26153  0.42751  0.38970  Biso   1.000  N
  C238     1.0000 0.26009  0.52496  0.45218  Biso   1.000  C
  Li95     1.0000 0.08084  0.45484  0.49520  Biso   1.000  Li
  H1141    1.0000 0.21843  0.46778  0.00069  Biso   1.000  H
  O670     1.0000 0.22311  0.42671  0.78213  Biso   1.000  O
  O671     1.0000 0.12879  0.34935  0.60058  Biso   1.000  O
  O672     1.0000 0.13894  0.45128  0.68046  Biso   1.000  O
  H1142    1.0000 0.29075  0.44208  0.47068  Biso   1.000  H
  H1143    1.0000 0.23995  0.38588  0.40162  Biso   1.000  H
  H1144    1.0000 0.28014  0.43956  0.26761  Biso   1.000  H
  H1145    1.0000 0.28915  0.54537  0.34968  Biso   1.000  H
  H1146    1.0000 0.28475  0.53528  0.56166  Biso   1.000  H
  H1147    1.0000 0.23404  0.54229  0.45670  Biso   1.000  H
  O673     1.0000 0.09336  0.53692  0.55125  Biso   1.000  O
  O674     1.0000 0.00641  0.37677  0.59263  Biso   1.000  O
  Li96     1.0000 0.29266  0.41419  0.83804  Biso   1.000  Li
  H1148    1.0000 0.14424  0.33015  0.58770  Biso   1.000  H
  P183     1.0000 0.08668  0.57761  0.69183  Biso   1.000  P
  H1149    1.0000 0.01864  0.36257  0.65963  Biso   1.000  H
  H1150    1.0000 0.98672  0.38766  0.64867  Biso   1.000  H
  O675     1.0000 0.29629  0.33972  0.74061  Biso   1.000  O
  O676     1.0000 0.35431  0.47226  0.65278  Biso   1.000  O
  O677     1.0000 0.33124  0.45427  0.06289  Biso   1.000  O
  O678     1.0000 0.01598  0.55388  0.73267  Biso   1.000  O
  O679     1.0000 0.11796  0.64567  0.65278  Biso   1.000  O
  C239     1.0000 0.12073  0.56812  0.90669  Biso   1.000  C
  H1151    1.0000 0.26575  0.32006  0.68471  Biso   1.000  H
  H1152    1.0000 0.32272  0.35196  0.67361  Biso   1.000  H
  P184     1.0000 0.42236  0.50907  0.69183  Biso   1.000  P
  P185     1.0000 0.39748  0.50123  0.10633  Biso   1.000  P
  H1153    1.0000 0.99681  0.51926  0.74568  Biso   1.000  H
  Li97     1.0000 0.12152  0.70734  0.83804  Biso   1.000  Li
  N88      1.0000 0.09417  0.49931  0.94355  Biso   1.000  N
  C240     1.0000 0.19165  0.59821  0.88120  Biso   1.000  C
  P186     1.0000 0.10374  0.60251  0.10633  Biso   1.000  P
  O680     1.0000 0.46307  0.55644  0.55125  Biso   1.000  O
  O681     1.0000 0.44614  0.46212  0.73267  Biso   1.000  O
  C241     1.0000 0.43187  0.55261  0.90669  Biso   1.000  C
  O682     1.0000 0.43891  0.47567  0.16320  Biso   1.000  O
  O683     1.0000 0.39893  0.54710  0.25651  Biso   1.000  O
  O684     1.0000 0.20360  0.77690  0.78213  Biso   1.000  O
  O685     1.0000 0.04344  0.70370  0.74061  Biso   1.000  O
  O686     1.0000 0.12306  0.66875  0.06289  Biso   1.000  O
  H1154    1.0000 0.10875  0.48469  0.86270  Biso   1.000  H
  H1155    1.0000 0.05252  0.47927  0.93163  Biso   1.000  H
  H1156    1.0000 0.10624  0.49277  0.06563  Biso   1.000  H
  H1157    1.0000 0.21205  0.58957  0.98369  Biso   1.000  H
  H1158    1.0000 0.20191  0.58387  0.77158  Biso   1.000  H
  H1159    1.0000 0.20891  0.64156  0.87668  Biso   1.000  H
  O687     1.0000 0.03676  0.56112  0.16320  Biso   1.000  O
  O688     1.0000 0.14819  0.60111  0.25651  Biso   1.000  O
  Li98     1.0000 0.54515  0.62601  0.49520  Biso   1.000  Li
  H1160    1.0000 0.48073  0.47759  0.74568  Biso   1.000  H
  N89      1.0000 0.50068  0.59485  0.94355  Biso   1.000  N
  C242     1.0000 0.40183  0.59344  0.88120  Biso   1.000  C
  H1161    1.0000 0.41733  0.55177  0.33269  Biso   1.000  H
  P187     1.0000 0.24432  0.82427  0.64141  Biso   1.000  P
  H1162    1.0000 0.05434  0.73425  0.68471  Biso   1.000  H
  H1163    1.0000 0.02924  0.67725  0.67361  Biso   1.000  H
  H1164    1.0000 0.13443  0.58265  0.33269  Biso   1.000  H
  O689     1.0000 0.62324  0.62965  0.59263  Biso   1.000  O
  O690     1.0000 0.54359  0.66455  0.27049  Biso   1.000  O
  O691     1.0000 0.54869  0.68763  0.68046  Biso   1.000  O
  H1165    1.0000 0.51532  0.62404  0.86270  Biso   1.000  H
  H1166    1.0000 0.52072  0.57326  0.93163  Biso   1.000  H
  H1167    1.0000 0.50725  0.61349  0.06563  Biso   1.000  H
  H1168    1.0000 0.41043  0.62246  0.98369  Biso   1.000  H
  H1169    1.0000 0.41612  0.61806  0.77158  Biso   1.000  H
  H1170    1.0000 0.35845  0.56738  0.87668  Biso   1.000  H
  O692     1.0000 0.22051  0.87118  0.60058  Biso   1.000  O
  O693     1.0000 0.31234  0.86104  0.68046  Biso   1.000  O
  C243     1.0000 0.23481  0.78073  0.42656  Biso   1.000  C
  H1171    1.0000 0.61231  0.59905  0.64867  Biso   1.000  H
  H1172    1.0000 0.63740  0.65604  0.65963  Biso   1.000  H
  P188     1.0000 0.56291  0.73079  0.22691  Biso   1.000  P
  P189     1.0000 0.57997  0.75569  0.64141  Biso   1.000  P
  H1173    1.0000 0.18594  0.85576  0.58770  Biso   1.000  H
  Li99     1.0000 0.37401  0.91915  0.49520  Biso   1.000  Li
  P190     1.0000 0.26920  0.83212  0.22691  Biso   1.000  P
  N90      1.0000 0.16597  0.73845  0.38970  Biso   1.000  N
  C244     1.0000 0.26484  0.73990  0.45218  Biso   1.000  C
  O694     1.0000 0.62991  0.77223  0.17005  Biso   1.000  O
  O695     1.0000 0.51848  0.73224  0.07673  Biso   1.000  O
  C245     1.0000 0.54592  0.76518  0.42656  Biso   1.000  C
  O696     1.0000 0.57329  0.79638  0.78213  Biso   1.000  O
  O697     1.0000 0.65069  0.77947  0.60058  Biso   1.000  O
  O698     1.0000 0.44357  0.90663  0.55125  Biso   1.000  O
  O699     1.0000 0.33541  0.87902  0.27049  Biso   1.000  O
  O700     1.0000 0.37036  0.99357  0.59263  Biso   1.000  O
  O701     1.0000 0.22776  0.85767  0.17005  Biso   1.000  O
  O702     1.0000 0.26774  0.78624  0.07673  Biso   1.000  O
  H1174    1.0000 0.15133  0.70926  0.47068  Biso   1.000  H
  H1175    1.0000 0.14595  0.76008  0.40162  Biso   1.000  H
  H1176    1.0000 0.15942  0.71986  0.26761  Biso   1.000  H
  H1177    1.0000 0.25622  0.71084  0.34968  Biso   1.000  H
  H1178    1.0000 0.25055  0.71528  0.56166  Biso   1.000  H
  H1179    1.0000 0.30822  0.76597  0.45670  Biso   1.000  H
  H1180    1.0000 0.53222  0.75065  0.00069  Biso   1.000  H
  N91      1.0000 0.57250  0.83404  0.38970  Biso   1.000  N
  C246     1.0000 0.47502  0.73514  0.45218  Biso   1.000  C
  Li100    1.0000 0.58581  0.87846  0.83804  Biso   1.000  Li
  H1181    1.0000 0.66986  0.81409  0.58770  Biso   1.000  H
  P191     1.0000 0.49093  0.91331  0.69183  Biso   1.000  P
  H1182    1.0000 0.34395  0.98138  0.65963  Biso   1.000  H
  H1183    1.0000 0.40089  0.01329  0.64867  Biso   1.000  H
  H1184    1.0000 0.24935  0.78157  0.00069  Biso   1.000  H
  H1185    1.0000 0.55792  0.84866  0.47068  Biso   1.000  H
  H1186    1.0000 0.61416  0.85408  0.40162  Biso   1.000  H
  H1187    1.0000 0.56043  0.84058  0.26761  Biso   1.000  H
  H1188    1.0000 0.45463  0.74378  0.34968  Biso   1.000  H
  H1189    1.0000 0.46476  0.74948  0.56166  Biso   1.000  H
  H1190    1.0000 0.45776  0.69178  0.45670  Biso   1.000  H
  O703     1.0000 0.52771  0.88201  0.65278  Biso   1.000  O
  O704     1.0000 0.66027  0.95657  0.74061  Biso   1.000  O
  O705     1.0000 0.54574  0.87697  0.06289  Biso   1.000  O
  O706     1.0000 0.53788  0.98400  0.73267  Biso   1.000  O
  C247     1.0000 0.44740  0.87926  0.90669  Biso   1.000  C
  H1191    1.0000 0.67995  0.94569  0.68471  Biso   1.000  H
  H1192    1.0000 0.64803  0.97078  0.67361  Biso   1.000  H
  P192     1.0000 0.49878  0.89626  0.10633  Biso   1.000  P
  H1193    1.0000 0.52237  0.00315  0.74568  Biso   1.000  H
  N92      1.0000 0.40514  0.90584  0.94355  Biso   1.000  N
  C248     1.0000 0.40658  0.80839  0.88120  Biso   1.000  C
  O707     1.0000 0.52433  0.96321  0.16320  Biso   1.000  O
  O708     1.0000 0.45290  0.85184  0.25651  Biso   1.000  O
  H1194    1.0000 0.37592  0.89126  0.86270  Biso   1.000  H
  H1195    1.0000 0.42672  0.94746  0.93163  Biso   1.000  H
  H1196    1.0000 0.38653  0.89379  0.06563  Biso   1.000  H
  H1197    1.0000 0.37752  0.78797  0.98369  Biso   1.000  H
  H1198    1.0000 0.38192  0.79806  0.77158  Biso   1.000  H
  H1199    1.0000 0.43263  0.79106  0.87668  Biso   1.000  H
  H1200    1.0000 0.44824  0.86557  0.33269  Biso   1.000  H
