data_image0
_cell_length_a       11.833
_cell_length_b       15.649
_cell_length_c       52.446
_cell_angle_alpha    90
_cell_angle_beta     91.09
_cell_angle_gamma    90

_symmetry_space_group_name_H-M    "P 1"
_symmetry_int_tables_number       1

loop_
  _symmetry_equiv_pos_as_xyz
  'x, y, z'

loop_
  _atom_site_label
  _atom_site_occupancy
  _atom_site_fract_x
  _atom_site_fract_y
  _atom_site_fract_z
  _atom_site_thermal_displace_type
  _atom_site_B_iso_or_equiv
  _atom_site_type_symbol
  C1       1.0000 0.52289  0.40443  0.42335  Biso   1.000  C
  O1       1.0000 0.57252  0.43236  0.40050  Biso   1.000  O
  H1       1.0000 0.44928  0.43223  0.42530  Biso   1.000  H
  H2       1.0000 0.57229  0.41932  0.43790  Biso   1.000  H
  H3       1.0000 0.51253  0.34232  0.42280  Biso   1.000  H
  C2       1.0000 0.50238  0.42539  0.37851  Biso   1.000  C
  C3       1.0000 0.42017  0.48604  0.37379  Biso   1.000  C
  C4       1.0000 0.52347  0.36047  0.36108  Biso   1.000  C
  C5       1.0000 0.35375  0.48438  0.35178  Biso   1.000  C
  H4       1.0000 0.40878  0.53000  0.38599  Biso   1.000  H
  C6       1.0000 0.45821  0.35843  0.33875  Biso   1.000  C
  C7       1.0000 0.61323  0.29241  0.36517  Biso   1.000  C
  C8       1.0000 0.37408  0.41881  0.33423  Biso   1.000  C
  C9       1.0000 0.26427  0.55115  0.34587  Biso   1.000  C
  H5       1.0000 0.47119  0.31523  0.32639  Biso   1.000  H
  C10      1.0000 0.71747  0.30884  0.34958  Biso   1.000  C
  H6       1.0000 0.63514  0.29050  0.38349  Biso   1.000  H
  H7       1.0000 0.58140  0.23599  0.36049  Biso   1.000  H
  O2       1.0000 0.30334  0.41741  0.31320  Biso   1.000  O
  C11      1.0000 0.29949  0.61129  0.32468  Biso   1.000  C
  H8       1.0000 0.24978  0.58483  0.36150  Biso   1.000  H
  H9       1.0000 0.19301  0.52221  0.34070  Biso   1.000  H
  C12      1.0000 0.72896  0.26609  0.32556  Biso   1.000  C
  C13      1.0000 0.79770  0.36641  0.35697  Biso   1.000  C
  C14      1.0000 0.33877  0.37140  0.29134  Biso   1.000  C
  C15      1.0000 0.26468  0.59914  0.29962  Biso   1.000  C
  C16      1.0000 0.37188  0.68049  0.33017  Biso   1.000  C
  O3       1.0000 0.65808  0.21458  0.31678  Biso   1.000  O
  C17      1.0000 0.83003  0.28545  0.30942  Biso   1.000  C
  N1       1.0000 0.79605  0.41268  0.37859  Biso   1.000  N
  C18      1.0000 0.90277  0.38316  0.34133  Biso   1.000  C
  H10      1.0000 0.41461  0.39038  0.28669  Biso   1.000  H
  H11      1.0000 0.28576  0.38213  0.27710  Biso   1.000  H
  H12      1.0000 0.34045  0.31018  0.29520  Biso   1.000  H
  H13      1.0000 0.21397  0.55384  0.29560  Biso   1.000  H
  C19      1.0000 0.30207  0.65148  0.28009  Biso   1.000  C
  O4       1.0000 0.40249  0.69046  0.35544  Biso   1.000  O
  C20      1.0000 0.40726  0.73353  0.31079  Biso   1.000  C
  N2       1.0000 0.82854  0.24481  0.28680  Biso   1.000  N
  C21      1.0000 0.91436  0.33977  0.31741  Biso   1.000  C
  H14      1.0000 0.73433  0.42169  0.38220  Biso   1.000  H
  H15      1.0000 0.83269  0.46303  0.37609  Biso   1.000  H
  O5       1.0000 0.97204  0.43524  0.34991  Biso   1.000  O
  O6       1.0000 0.27096  0.64036  0.25480  Biso   1.000  O
  C22      1.0000 0.37394  0.72049  0.28549  Biso   1.000  C
  C23      1.0000 0.49936  0.74184  0.36074  Biso   1.000  C
  H16      1.0000 0.45569  0.78024  0.31490  Biso   1.000  H
  H17      1.0000 0.85558  0.27350  0.27670  Biso   1.000  H
  H18      1.0000 0.75580  0.23318  0.28209  Biso   1.000  H
  C24      1.0000 0.01284  0.36277  0.30065  Biso   1.000  C
  C25      1.0000 0.23162  0.55831  0.24733  Biso   1.000  C
  C26      1.0000 0.41839  0.77622  0.26447  Biso   1.000  C
  H19      1.0000 0.56035  0.72541  0.34939  Biso   1.000  H
  H20      1.0000 0.52410  0.73334  0.37850  Biso   1.000  H
  H21      1.0000 0.48028  0.80210  0.35799  Biso   1.000  H
  C27      1.0000 0.98102  0.43607  0.28307  Biso   1.000  C
  H22      1.0000 0.07874  0.37932  0.31150  Biso   1.000  H
  H23      1.0000 0.03446  0.31242  0.29039  Biso   1.000  H
  H24      1.0000 0.28651  0.51479  0.25290  Biso   1.000  H
  H25      1.0000 0.22261  0.55633  0.22870  Biso   1.000  H
  H26      1.0000 0.15868  0.54700  0.25520  Biso   1.000  H
  C28      1.0000 0.53495  0.74605  0.25671  Biso   1.000  C
  H27      1.0000 0.42278  0.83622  0.27040  Biso   1.000  H
  H28      1.0000 0.36584  0.77404  0.24960  Biso   1.000  H
  C29      1.0000 0.94794  0.42431  0.25755  Biso   1.000  C
  C30      1.0000 0.97640  0.51824  0.29338  Biso   1.000  C
  C31      1.0000 0.63224  0.78280  0.26695  Biso   1.000  C
  C32      1.0000 0.54589  0.67704  0.24002  Biso   1.000  C
  O7       1.0000 0.95246  0.34207  0.24809  Biso   1.000  O
  C33      1.0000 0.91165  0.49428  0.24311  Biso   1.000  C
  C34      1.0000 0.93986  0.58675  0.27897  Biso   1.000  C
  H29      1.0000 0.99873  0.52700  0.31070  Biso   1.000  H
  O8       1.0000 0.61722  0.85143  0.28328  Biso   1.000  O
  C35      1.0000 0.73819  0.75238  0.26058  Biso   1.000  C
  C36      1.0000 0.65177  0.64528  0.23388  Biso   1.000  C
  H30      1.0000 0.47994  0.65154  0.23270  Biso   1.000  H
  C37      1.0000 0.89595  0.32699  0.22429  Biso   1.000  C
  H31      1.0000 0.88991  0.48578  0.22580  Biso   1.000  H
  C38      1.0000 0.90635  0.57595  0.25337  Biso   1.000  C
  O9       1.0000 0.93455  0.66912  0.28820  Biso   1.000  O
  C39      1.0000 0.71178  0.87699  0.29813  Biso   1.000  C
  H32      1.0000 0.80384  0.77928  0.26750  Biso   1.000  H
  C40      1.0000 0.74973  0.68298  0.24418  Biso   1.000  C
  O10      1.0000 0.66866  0.57754  0.21771  Biso   1.000  O
  H33      1.0000 0.81785  0.34731  0.22509  Biso   1.000  H
  H34      1.0000 0.89614  0.26558  0.22059  Biso   1.000  H
  H35      1.0000 0.93521  0.35759  0.21081  Biso   1.000  H
  C41      1.0000 0.86629  0.65090  0.23739  Biso   1.000  C
  C42      1.0000 0.96154  0.68139  0.31469  Biso   1.000  C
  H36      1.0000 0.74305  0.82740  0.30719  Biso   1.000  H
  H37      1.0000 0.68856  0.92031  0.31049  Biso   1.000  H
  H38      1.0000 0.76923  0.90114  0.28699  Biso   1.000  H
  C43      1.0000 0.57004  0.53652  0.20776  Biso   1.000  C
  H39      1.0000 0.86535  0.63391  0.21920  Biso   1.000  H
  H40      1.0000 0.92106  0.69832  0.23949  Biso   1.000  H
  H41      1.0000 0.91264  0.64522  0.32500  Biso   1.000  H
  H42      1.0000 0.94976  0.74139  0.31921  Biso   1.000  H
  H43      1.0000 0.04076  0.66599  0.31800  Biso   1.000  H
  H44      1.0000 0.52340  0.51703  0.22191  Biso   1.000  H
  H45      1.0000 0.59207  0.48732  0.19740  Biso   1.000  H
  H46      1.0000 0.52680  0.57684  0.19710  Biso   1.000  H
  C44      1.0000 0.47708  0.59563  0.57664  Biso   1.000  C
  O11      1.0000 0.42737  0.56764  0.59949  Biso   1.000  O
  H47      1.0000 0.55061  0.56783  0.57470  Biso   1.000  H
  H48      1.0000 0.42768  0.58074  0.56209  Biso   1.000  H
  H49      1.0000 0.48735  0.65774  0.57719  Biso   1.000  H
  C45      1.0000 0.49751  0.57461  0.62149  Biso   1.000  C
  C46      1.0000 0.57971  0.51403  0.62620  Biso   1.000  C
  C47      1.0000 0.47642  0.63959  0.63891  Biso   1.000  C
  H50      1.0000 0.59111  0.47000  0.61400  Biso   1.000  H
  C48      1.0000 0.64614  0.51562  0.64823  Biso   1.000  C
  C49      1.0000 0.54176  0.64157  0.66124  Biso   1.000  C
  C50      1.0000 0.38666  0.70759  0.63482  Biso   1.000  C
  C51      1.0000 0.62581  0.58119  0.66578  Biso   1.000  C
  C52      1.0000 0.73562  0.44885  0.65414  Biso   1.000  C
  H51      1.0000 0.52878  0.68484  0.67360  Biso   1.000  H
  C53      1.0000 0.28242  0.69123  0.65042  Biso   1.000  C
  H52      1.0000 0.36475  0.70950  0.61650  Biso   1.000  H
  H53      1.0000 0.41858  0.76401  0.63950  Biso   1.000  H
  O12      1.0000 0.69654  0.58266  0.68681  Biso   1.000  O
  C54      1.0000 0.70048  0.38871  0.67531  Biso   1.000  C
  H54      1.0000 0.75011  0.41523  0.63851  Biso   1.000  H
  H55      1.0000 0.80696  0.47779  0.65929  Biso   1.000  H
  C55      1.0000 0.27093  0.73391  0.67445  Biso   1.000  C
  C56      1.0000 0.20228  0.63359  0.64303  Biso   1.000  C
  C57      1.0000 0.66112  0.62860  0.70867  Biso   1.000  C
  C58      1.0000 0.73521  0.40086  0.70037  Biso   1.000  C
  C59      1.0000 0.62801  0.31951  0.66982  Biso   1.000  C
  O13      1.0000 0.34181  0.78542  0.68323  Biso   1.000  O
  C60      1.0000 0.16986  0.71455  0.69057  Biso   1.000  C
  N3       1.0000 0.20383  0.58732  0.62140  Biso   1.000  N
  C61      1.0000 0.09711  0.61684  0.65868  Biso   1.000  C
  H56      1.0000 0.58537  0.60962  0.71330  Biso   1.000  H
  H57      1.0000 0.71412  0.61793  0.72289  Biso   1.000  H
  H58      1.0000 0.65944  0.68982  0.70480  Biso   1.000  H
  H59      1.0000 0.78592  0.44623  0.70439  Biso   1.000  H
  C62      1.0000 0.69781  0.34852  0.71990  Biso   1.000  C
  O14      1.0000 0.59740  0.30954  0.64455  Biso   1.000  O
  C63      1.0000 0.59263  0.26653  0.68921  Biso   1.000  C
  N4       1.0000 0.17135  0.75526  0.71321  Biso   1.000  N
  C64      1.0000 0.08552  0.66023  0.68258  Biso   1.000  C
  H60      1.0000 0.26556  0.57831  0.61779  Biso   1.000  H
  H61      1.0000 0.16728  0.53703  0.62390  Biso   1.000  H
  O15      1.0000 0.02785  0.56476  0.65008  Biso   1.000  O
  O16      1.0000 0.72893  0.35970  0.74519  Biso   1.000  O
  C65      1.0000 0.62595  0.27951  0.71450  Biso   1.000  C
  C66      1.0000 0.50053  0.25823  0.63925  Biso   1.000  C
  H62      1.0000 0.54420  0.21982  0.68510  Biso   1.000  H
  H63      1.0000 0.14431  0.72650  0.72329  Biso   1.000  H
  H64      1.0000 0.24417  0.76682  0.71790  Biso   1.000  H
  C67      1.0000 0.98705  0.63723  0.69934  Biso   1.000  C
  C68      1.0000 0.76835  0.44169  0.75268  Biso   1.000  C
  C69      1.0000 0.58149  0.22378  0.73552  Biso   1.000  C
  H65      1.0000 0.43954  0.27459  0.65060  Biso   1.000  H
  H66      1.0000 0.47588  0.26673  0.62149  Biso   1.000  H
  H67      1.0000 0.51961  0.19790  0.64200  Biso   1.000  H
  C70      1.0000 0.01887  0.56393  0.71694  Biso   1.000  C
  H68      1.0000 0.92114  0.62074  0.68849  Biso   1.000  H
  H69      1.0000 0.96543  0.68758  0.70960  Biso   1.000  H
  H70      1.0000 0.71346  0.48521  0.74709  Biso   1.000  H
  H71      1.0000 0.77736  0.44373  0.77129  Biso   1.000  H
  H72      1.0000 0.84121  0.45300  0.74481  Biso   1.000  H
  C71      1.0000 0.46493  0.25395  0.74328  Biso   1.000  C
  H73      1.0000 0.57711  0.16378  0.72961  Biso   1.000  H
  H74      1.0000 0.63404  0.22602  0.75039  Biso   1.000  H
  C72      1.0000 0.05195  0.57569  0.74244  Biso   1.000  C
  C73      1.0000 0.02358  0.48182  0.70661  Biso   1.000  C
  C74      1.0000 0.36764  0.21720  0.73304  Biso   1.000  C
  C75      1.0000 0.45400  0.32296  0.75999  Biso   1.000  C
  O17      1.0000 0.04742  0.65793  0.75190  Biso   1.000  O
  C76      1.0000 0.08824  0.50572  0.75690  Biso   1.000  C
  C77      1.0000 0.06003  0.41325  0.72102  Biso   1.000  C
  H75      1.0000 0.00116  0.47300  0.68929  Biso   1.000  H
  O18      1.0000 0.38275  0.14857  0.71673  Biso   1.000  O
  C78      1.0000 0.26170  0.24762  0.73941  Biso   1.000  C
  C79      1.0000 0.34812  0.35478  0.76611  Biso   1.000  C
  H76      1.0000 0.51994  0.34852  0.76729  Biso   1.000  H
  C80      1.0000 0.10394  0.67308  0.77570  Biso   1.000  C
  H77      1.0000 0.11006  0.51422  0.77419  Biso   1.000  H
  C81      1.0000 0.09354  0.42412  0.74664  Biso   1.000  C
  O19      1.0000 0.06534  0.33095  0.71179  Biso   1.000  O
  C82      1.0000 0.28811  0.12301  0.70186  Biso   1.000  C
  H78      1.0000 0.19605  0.22072  0.73250  Biso   1.000  H
  C83      1.0000 0.25015  0.31702  0.75581  Biso   1.000  C
  O20      1.0000 0.33132  0.42246  0.78228  Biso   1.000  O
  H79      1.0000 0.18204  0.65269  0.77490  Biso   1.000  H
  H80      1.0000 0.10374  0.73442  0.77940  Biso   1.000  H
  H81      1.0000 0.06477  0.64241  0.78920  Biso   1.000  H
  C84      1.0000 0.13368  0.34910  0.76260  Biso   1.000  C
  C85      1.0000 0.03834  0.31861  0.68532  Biso   1.000  C
  H82      1.0000 0.25684  0.17260  0.69280  Biso   1.000  H
  H83      1.0000 0.31132  0.07969  0.68950  Biso   1.000  H
  H84      1.0000 0.23065  0.09892  0.71300  Biso   1.000  H
  C86      1.0000 0.42985  0.46348  0.79225  Biso   1.000  C
  H85      1.0000 0.13454  0.36609  0.78079  Biso   1.000  H
  H86      1.0000 0.07882  0.30168  0.76050  Biso   1.000  H
  H87      1.0000 0.08725  0.35478  0.67499  Biso   1.000  H
  H88      1.0000 0.05013  0.25861  0.68080  Biso   1.000  H
  H89      1.0000 0.95913  0.33401  0.68201  Biso   1.000  H
  H90      1.0000 0.47657  0.48303  0.77810  Biso   1.000  H
  H91      1.0000 0.40782  0.51268  0.80259  Biso   1.000  H
  H92      1.0000 0.47317  0.42322  0.80289  Biso   1.000  H
  C87      1.0000 0.84405  0.69442  0.56792  Biso   1.000  C
  C88      1.0000 0.86482  0.73998  0.54563  Biso   1.000  C
  O21      1.0000 0.91449  0.62649  0.57347  Biso   1.000  O
  C89      1.0000 0.75521  0.71890  0.58373  Biso   1.000  C
  C90      1.0000 0.96482  0.72049  0.52898  Biso   1.000  C
  C91      1.0000 0.79302  0.80740  0.53901  Biso   1.000  C
  C92      1.0000 0.89187  0.57831  0.59594  Biso   1.000  C
  C93      1.0000 0.68631  0.78740  0.57742  Biso   1.000  C
  H93      1.0000 0.74238  0.68790  0.59899  Biso   1.000  H
  H94      1.0000 0.94165  0.72663  0.51079  Biso   1.000  H
  H95      1.0000 0.98864  0.66049  0.53181  Biso   1.000  H
  C94      1.0000 0.06417  0.77909  0.53461  Biso   1.000  C
  C95      1.0000 0.70407  0.83002  0.55456  Biso   1.000  C
  H96      1.0000 0.80516  0.83833  0.52370  Biso   1.000  H
  H97      1.0000 0.81603  0.55339  0.59449  Biso   1.000  H
  H98      1.0000 0.94782  0.53249  0.59790  Biso   1.000  H
  H99      1.0000 0.89601  0.61601  0.61089  Biso   1.000  H
  C96      1.0000 0.59711  0.81775  0.59596  Biso   1.000  C
  C97      1.0000 0.14755  0.76094  0.55221  Biso   1.000  C
  C98      1.0000 0.06819  0.85954  0.52208  Biso   1.000  C
  O22      1.0000 0.62879  0.89514  0.54872  Biso   1.000  O
  C99      1.0000 0.64062  0.89194  0.61192  Biso   1.000  C
  H100     1.0000 0.57626  0.77002  0.60731  Biso   1.000  H
  H101     1.0000 0.52852  0.83571  0.58629  Biso   1.000  H
  N5       1.0000 0.14962  0.68982  0.56676  Biso   1.000  N
  C100     1.0000 0.24959  0.81794  0.55669  Biso   1.000  C
  O23      1.0000 0.99462  0.88421  0.50656  Biso   1.000  O
  C101     1.0000 0.16527  0.92063  0.52788  Biso   1.000  C
  C102     1.0000 0.64836  0.94319  0.52631  Biso   1.000  C
  C103     1.0000 0.63011  0.97572  0.60353  Biso   1.000  C
  C104     1.0000 0.69451  0.87737  0.63557  Biso   1.000  C
  H102     1.0000 0.18095  0.69934  0.57950  Biso   1.000  H
  H103     1.0000 0.07755  0.67340  0.57000  Biso   1.000  H
  O24      1.0000 0.32355  0.79264  0.57191  Biso   1.000  O
  C105     1.0000 0.25407  0.89769  0.54365  Biso   1.000  C
  N6       1.0000 0.15677  0.99578  0.51630  Biso   1.000  N
  H104     1.0000 0.64288  0.90562  0.51140  Biso   1.000  H
  H105     1.0000 0.59177  0.98869  0.52469  Biso   1.000  H
  H106     1.0000 0.72408  0.96862  0.52730  Biso   1.000  H
  H107     1.0000 0.59295  0.98703  0.58770  Biso   1.000  H
  C106     1.0000 0.67315  0.04352  0.61787  Biso   1.000  C
  O25      1.0000 0.70820  0.79334  0.64261  Biso   1.000  O
  C107     1.0000 0.73250  0.94524  0.65021  Biso   1.000  C
  C108     1.0000 0.35368  0.95789  0.54834  Biso   1.000  C
  H108     1.0000 0.09568  0.00243  0.51140  Biso   1.000  H
  H109     1.0000 0.17522  0.03802  0.52759  Biso   1.000  H
  O26      1.0000 0.66944  0.12742  0.60992  Biso   1.000  O
  C109     1.0000 0.72317  0.02882  0.64179  Biso   1.000  C
  C110     1.0000 0.77770  0.77769  0.66410  Biso   1.000  C
  H110     1.0000 0.76607  0.93424  0.66650  Biso   1.000  H
  H111     1.0000 0.37008  0.98882  0.53240  Biso   1.000  H
  H112     1.0000 0.42136  0.92402  0.55320  Biso   1.000  H
  C111     1.0000 0.33043  0.02256  0.56932  Biso   1.000  C
  C112     1.0000 0.61277  0.14480  0.58621  Biso   1.000  C
  C113     1.0000 0.76957  0.10231  0.65781  Biso   1.000  C
  H113     1.0000 0.74062  0.79909  0.67939  Biso   1.000  H
  H114     1.0000 0.79094  0.71621  0.66580  Biso   1.000  H
  H115     1.0000 0.85013  0.80721  0.66210  Biso   1.000  H
  C114     1.0000 0.34143  0.99687  0.59457  Biso   1.000  C
  C115     1.0000 0.29468  0.10563  0.56426  Biso   1.000  C
  H116     1.0000 0.53358  0.12691  0.58721  Biso   1.000  H
  H117     1.0000 0.61618  0.20608  0.58259  Biso   1.000  H
  H118     1.0000 0.64947  0.11311  0.57250  Biso   1.000  H
  C116     1.0000 0.88925  0.12550  0.65105  Biso   1.000  C
  H119     1.0000 0.76756  0.08620  0.67609  Biso   1.000  H
  H120     1.0000 0.72042  0.15292  0.65531  Biso   1.000  H
  H121     1.0000 0.36718  0.94064  0.59819  Biso   1.000  H
  C117     1.0000 0.31616  0.05087  0.61457  Biso   1.000  C
  O27      1.0000 0.29000  0.13093  0.53884  Biso   1.000  O
  C118     1.0000 0.26476  0.15950  0.58423  Biso   1.000  C
  C119     1.0000 0.98057  0.07611  0.65967  Biso   1.000  C
  C120     1.0000 0.91101  0.19580  0.63549  Biso   1.000  C
  O28      1.0000 0.32868  0.02978  0.63980  Biso   1.000  O
  C121     1.0000 0.27322  0.13292  0.60944  Biso   1.000  C
  C122     1.0000 0.26235  0.21803  0.53367  Biso   1.000  C
  H122     1.0000 0.23816  0.21548  0.58049  Biso   1.000  H
  C123     1.0000 0.08997  0.09834  0.65311  Biso   1.000  C
  O29      1.0000 0.95567  0.00722  0.67499  Biso   1.000  O
  C124     1.0000 0.01996  0.21631  0.62865  Biso   1.000  C
  H123     1.0000 0.84991  0.23017  0.62950  Biso   1.000  H
  C125     1.0000 0.36281  0.94421  0.64562  Biso   1.000  C
  C126     1.0000 0.23209  0.18941  0.63076  Biso   1.000  C
  H124     1.0000 0.31742  0.25529  0.54229  Biso   1.000  H
  H125     1.0000 0.26409  0.22813  0.51519  Biso   1.000  H
  H126     1.0000 0.18657  0.23030  0.53989  Biso   1.000  H
  C127     1.0000 0.11232  0.16781  0.63757  Biso   1.000  C
  H127     1.0000 0.15127  0.06492  0.65950  Biso   1.000  H
  C128     1.0000 0.04633  0.95112  0.68176  Biso   1.000  C
  O30      1.0000 0.04718  0.28392  0.61266  Biso   1.000  O
  H128     1.0000 0.43777  0.93354  0.63860  Biso   1.000  H
  H129     1.0000 0.36615  0.93655  0.66419  Biso   1.000  H
  H130     1.0000 0.30826  0.90402  0.63811  Biso   1.000  H
  H131     1.0000 0.23603  0.24998  0.62540  Biso   1.000  H
  H132     1.0000 0.28197  0.18199  0.64600  Biso   1.000  H
  H133     1.0000 0.09993  0.98089  0.69310  Biso   1.000  H
  H134     1.0000 0.01639  0.90089  0.69049  Biso   1.000  H
  H135     1.0000 0.08508  0.93303  0.66629  Biso   1.000  H
  C129     1.0000 0.96027  0.34162  0.60630  Biso   1.000  C
  H136     1.0000 0.93251  0.36859  0.62180  Biso   1.000  H
  H137     1.0000 0.98922  0.38558  0.59480  Biso   1.000  H
  H138     1.0000 0.89802  0.31088  0.59769  Biso   1.000  H
  C130     1.0000 0.15584  0.30558  0.43208  Biso   1.000  C
  C131     1.0000 0.24468  0.28110  0.41627  Biso   1.000  C
  C132     1.0000 0.13507  0.26002  0.45436  Biso   1.000  C
  O31      1.0000 0.08540  0.37351  0.42653  Biso   1.000  O
  C133     1.0000 0.31358  0.21260  0.42257  Biso   1.000  C
  H139     1.0000 0.25759  0.31210  0.40100  Biso   1.000  H
  C134     1.0000 0.20687  0.19260  0.46098  Biso   1.000  C
  C135     1.0000 0.03506  0.27951  0.47101  Biso   1.000  C
  C136     1.0000 0.10810  0.42169  0.40405  Biso   1.000  C
  C137     1.0000 0.40278  0.18225  0.40403  Biso   1.000  C
  C138     1.0000 0.29590  0.16998  0.44543  Biso   1.000  C
  H140     1.0000 0.19473  0.16167  0.47629  Biso   1.000  H
  H141     1.0000 0.05823  0.27344  0.48920  Biso   1.000  H
  H142     1.0000 0.01125  0.33951  0.46820  Biso   1.000  H
  C139     1.0000 0.93571  0.22097  0.46538  Biso   1.000  C
  H143     1.0000 0.18386  0.44661  0.40550  Biso   1.000  H
  H144     1.0000 0.05207  0.46751  0.40211  Biso   1.000  H
  H145     1.0000 0.10388  0.38399  0.38910  Biso   1.000  H
  C140     1.0000 0.35926  0.10806  0.38807  Biso   1.000  C
  H146     1.0000 0.42363  0.22998  0.39270  Biso   1.000  H
  H147     1.0000 0.47137  0.16429  0.41370  Biso   1.000  H
  O32      1.0000 0.37118  0.10486  0.45127  Biso   1.000  O
  C141     1.0000 0.85234  0.23912  0.44778  Biso   1.000  C
  C142     1.0000 0.93178  0.14052  0.47791  Biso   1.000  C
  C143     1.0000 0.30538  0.12269  0.36442  Biso   1.000  C
  C144     1.0000 0.36977  0.02428  0.39646  Biso   1.000  C
  C145     1.0000 0.35153  0.05681  0.47370  Biso   1.000  C
  N7       1.0000 0.85027  0.31018  0.43323  Biso   1.000  N
  C146     1.0000 0.75038  0.18212  0.44330  Biso   1.000  C
  O33      1.0000 0.00526  0.11579  0.49343  Biso   1.000  O
  C147     1.0000 0.83462  0.07943  0.47211  Biso   1.000  C
  O34      1.0000 0.29177  0.20672  0.35740  Biso   1.000  O
  C148     1.0000 0.26738  0.05483  0.34978  Biso   1.000  C
  C149     1.0000 0.32673  0.95655  0.38212  Biso   1.000  C
  H148     1.0000 0.40694  0.01297  0.41229  Biso   1.000  H
  H149     1.0000 0.35709  0.09438  0.48859  Biso   1.000  H
  H150     1.0000 0.40820  0.01131  0.47530  Biso   1.000  H
  H151     1.0000 0.27589  0.03138  0.47270  Biso   1.000  H
  H152     1.0000 0.81894  0.30072  0.42049  Biso   1.000  H
  H153     1.0000 0.92234  0.32660  0.43001  Biso   1.000  H
  O35      1.0000 0.67634  0.20743  0.42808  Biso   1.000  O
  C150     1.0000 0.74582  0.10231  0.45634  Biso   1.000  C
  N8       1.0000 0.84311  0.00422  0.48369  Biso   1.000  N
  C151     1.0000 0.22218  0.22231  0.33589  Biso   1.000  C
  H154     1.0000 0.23390  0.06582  0.33351  Biso   1.000  H
  C152     1.0000 0.27680  0.97124  0.35822  Biso   1.000  C
  O36      1.0000 0.33045  0.87258  0.39007  Biso   1.000  O
  C153     1.0000 0.64629  0.04211  0.45165  Biso   1.000  C
  H155     1.0000 0.90420  0.99764  0.48859  Biso   1.000  H
  H156     1.0000 0.82467  0.96204  0.47240  Biso   1.000  H
  H157     1.0000 0.25926  0.20091  0.32060  Biso   1.000  H
  H158     1.0000 0.20894  0.28379  0.33419  Biso   1.000  H
  H159     1.0000 0.14976  0.19279  0.33789  Biso   1.000  H
  C154     1.0000 0.23041  0.89769  0.34219  Biso   1.000  C
  C155     1.0000 0.38712  0.85520  0.41378  Biso   1.000  C
  C156     1.0000 0.66946  0.97751  0.43067  Biso   1.000  C
  H160     1.0000 0.62989  0.01118  0.46759  Biso   1.000  H
  H161     1.0000 0.57853  0.07598  0.44681  Biso   1.000  H
  C157     1.0000 0.11063  0.87450  0.34894  Biso   1.000  C
  H162     1.0000 0.23233  0.91380  0.32390  Biso   1.000  H
  H163     1.0000 0.27946  0.84715  0.34470  Biso   1.000  H
  H164     1.0000 0.46639  0.87309  0.41280  Biso   1.000  H
  H165     1.0000 0.38379  0.79392  0.41740  Biso   1.000  H
  H166     1.0000 0.35042  0.88689  0.42751  Biso   1.000  H
  C158     1.0000 0.65845  0.00320  0.40542  Biso   1.000  C
  C159     1.0000 0.70529  0.89443  0.43575  Biso   1.000  C
  C160     1.0000 0.01940  0.92389  0.34034  Biso   1.000  C
  C161     1.0000 0.08887  0.80420  0.36450  Biso   1.000  C
  C162     1.0000 0.68373  0.94913  0.38544  Biso   1.000  C
  H167     1.0000 0.63280  0.05943  0.40180  Biso   1.000  H
  C163     1.0000 0.73513  0.84050  0.41576  Biso   1.000  C
  O37      1.0000 0.70989  0.86907  0.46115  Biso   1.000  O
  C164     1.0000 0.90992  0.90172  0.34690  Biso   1.000  C
  O38      1.0000 0.04422  0.99278  0.32500  Biso   1.000  O
  C165     1.0000 0.97993  0.78369  0.37134  Biso   1.000  C
  H168     1.0000 0.14997  0.76983  0.37051  Biso   1.000  H
  C166     1.0000 0.72667  0.86708  0.39057  Biso   1.000  C
  O39      1.0000 0.67120  0.97022  0.36019  Biso   1.000  O
  H169     1.0000 0.76173  0.78452  0.41950  Biso   1.000  H
  C167     1.0000 0.73754  0.78203  0.46634  Biso   1.000  C
  H170     1.0000 0.84862  0.93514  0.34051  Biso   1.000  H
  C168     1.0000 0.88757  0.83219  0.36242  Biso   1.000  C
  C169     1.0000 0.95356  0.04888  0.31823  Biso   1.000  C
  O40      1.0000 0.95271  0.71608  0.38734  Biso   1.000  O
  C170     1.0000 0.76789  0.81059  0.36925  Biso   1.000  C
  C171     1.0000 0.63708  0.05579  0.35437  Biso   1.000  C
  H171     1.0000 0.68247  0.74471  0.45770  Biso   1.000  H
  H172     1.0000 0.73588  0.77193  0.48480  Biso   1.000  H
  H173     1.0000 0.81332  0.76970  0.46010  Biso   1.000  H
  H174     1.0000 0.89996  0.01911  0.30690  Biso   1.000  H
  H175     1.0000 0.98359  0.09911  0.30950  Biso   1.000  H
  H176     1.0000 0.91489  0.06703  0.33370  Biso   1.000  H
  C172     1.0000 0.03970  0.65838  0.39371  Biso   1.000  C
  H177     1.0000 0.76386  0.75002  0.37461  Biso   1.000  H
  H178     1.0000 0.71792  0.81801  0.35399  Biso   1.000  H
  H179     1.0000 0.56220  0.06652  0.36139  Biso   1.000  H
  H180     1.0000 0.63374  0.06352  0.33580  Biso   1.000  H
  H181     1.0000 0.69163  0.09598  0.36190  Biso   1.000  H
  H182     1.0000 0.06738  0.63141  0.37819  Biso   1.000  H
  H183     1.0000 0.01067  0.61442  0.40519  Biso   1.000  H
  H184     1.0000 0.10186  0.68912  0.40230  Biso   1.000  H
  C173     1.0000 0.57003  0.96351  0.70775  Biso   1.000  C
  O41      1.0000 0.66856  0.92249  0.71771  Biso   1.000  O
  H185     1.0000 0.52330  0.98300  0.72190  Biso   1.000  H
  H186     1.0000 0.52670  0.92319  0.69709  Biso   1.000  H
  H187     1.0000 0.59205  0.01272  0.69740  Biso   1.000  H
  C174     1.0000 0.65175  0.85475  0.73388  Biso   1.000  C
  C175     1.0000 0.74972  0.81705  0.74418  Biso   1.000  C
  C176     1.0000 0.54587  0.82299  0.74002  Biso   1.000  C
  C177     1.0000 0.73809  0.74765  0.76058  Biso   1.000  C
  C178     1.0000 0.86619  0.84913  0.73739  Biso   1.000  C
  C179     1.0000 0.53494  0.75398  0.75671  Biso   1.000  C
  H188     1.0000 0.47993  0.84849  0.73270  Biso   1.000  H
  H189     1.0000 0.80383  0.72069  0.76750  Biso   1.000  H
  C180     1.0000 0.63223  0.71723  0.76697  Biso   1.000  C
  C181     1.0000 0.90633  0.92408  0.75337  Biso   1.000  C
  H190     1.0000 0.86534  0.86613  0.71919  Biso   1.000  H
  H191     1.0000 0.92105  0.80171  0.73950  Biso   1.000  H
  C182     1.0000 0.41830  0.72382  0.76447  Biso   1.000  C
  O42      1.0000 0.61713  0.64860  0.78327  Biso   1.000  O
  C183     1.0000 0.93984  0.91329  0.77896  Biso   1.000  C
  C184     1.0000 0.91164  0.00575  0.74311  Biso   1.000  C
  C185     1.0000 0.37393  0.77954  0.78548  Biso   1.000  C
  H192     1.0000 0.42277  0.66381  0.77040  Biso   1.000  H
  H193     1.0000 0.36583  0.72599  0.74959  Biso   1.000  H
  C186     1.0000 0.71176  0.62304  0.79815  Biso   1.000  C
  O43      1.0000 0.93454  0.83092  0.78819  Biso   1.000  O
  C187     1.0000 0.97630  0.98179  0.79338  Biso   1.000  C
  C188     1.0000 0.94793  0.07566  0.75756  Biso   1.000  C
  H194     1.0000 0.88981  0.01419  0.72579  Biso   1.000  H
  C189     1.0000 0.40724  0.76650  0.81079  Biso   1.000  C
  C190     1.0000 0.30206  0.84855  0.78009  Biso   1.000  C
  H195     1.0000 0.74303  0.67263  0.80720  Biso   1.000  H
  H196     1.0000 0.68855  0.57972  0.81050  Biso   1.000  H
  H197     1.0000 0.76922  0.59889  0.78699  Biso   1.000  H
  C191     1.0000 0.96153  0.81865  0.81468  Biso   1.000  C
  H198     1.0000 0.99872  0.97303  0.81069  Biso   1.000  H
  C192     1.0000 0.98101  0.06390  0.78306  Biso   1.000  C
  O44      1.0000 0.95245  0.15790  0.74810  Biso   1.000  O
  H199     1.0000 0.45559  0.71979  0.81489  Biso   1.000  H
  C193     1.0000 0.37186  0.81954  0.83017  Biso   1.000  C
  O45      1.0000 0.27086  0.85967  0.75480  Biso   1.000  O
  C194     1.0000 0.26466  0.90089  0.79961  Biso   1.000  C
  H200     1.0000 0.91262  0.85482  0.82500  Biso   1.000  H
  H201     1.0000 0.94974  0.75864  0.81920  Biso   1.000  H
  H202     1.0000 0.04074  0.83405  0.81800  Biso   1.000  H
  C195     1.0000 0.01283  0.13720  0.80066  Biso   1.000  C
  C196     1.0000 0.89594  0.17305  0.72430  Biso   1.000  C
  O46      1.0000 0.40247  0.80957  0.85545  Biso   1.000  O
  C197     1.0000 0.29940  0.88875  0.82467  Biso   1.000  C
  C198     1.0000 0.23152  0.94172  0.74732  Biso   1.000  C
  H203     1.0000 0.21396  0.94619  0.79559  Biso   1.000  H
  C199     1.0000 0.91435  0.16020  0.81741  Biso   1.000  C
  H204     1.0000 0.07873  0.12071  0.81150  Biso   1.000  H
  H205     1.0000 0.03444  0.18762  0.79040  Biso   1.000  H
  H206     1.0000 0.81783  0.15273  0.72511  Biso   1.000  H
  H207     1.0000 0.89613  0.23439  0.72060  Biso   1.000  H
  H208     1.0000 0.93511  0.14237  0.71080  Biso   1.000  H
  C200     1.0000 0.49934  0.75820  0.86074  Biso   1.000  C
  C201     1.0000 0.26425  0.94888  0.84586  Biso   1.000  C
  H209     1.0000 0.28641  0.98524  0.75289  Biso   1.000  H
  H210     1.0000 0.22251  0.94370  0.72869  Biso   1.000  H
  H211     1.0000 0.15866  0.95303  0.75520  Biso   1.000  H
  C202     1.0000 0.83001  0.21458  0.80942  Biso   1.000  C
  C203     1.0000 0.90276  0.11681  0.84132  Biso   1.000  C
  H212     1.0000 0.56033  0.77462  0.84939  Biso   1.000  H
  H213     1.0000 0.52400  0.76669  0.87849  Biso   1.000  H
  H214     1.0000 0.48027  0.69794  0.85799  Biso   1.000  H
  H215     1.0000 0.24977  0.91520  0.86150  Biso   1.000  H
  H216     1.0000 0.19291  0.97783  0.84069  Biso   1.000  H
  C204     1.0000 0.35374  0.01566  0.85177  Biso   1.000  C
  N9       1.0000 0.82853  0.25522  0.78680  Biso   1.000  N
  C205     1.0000 0.72895  0.23394  0.82555  Biso   1.000  C
  O47      1.0000 0.97202  0.06480  0.84990  Biso   1.000  O
  C206     1.0000 0.79760  0.13362  0.85696  Biso   1.000  C
  C207     1.0000 0.42016  0.01399  0.87378  Biso   1.000  C
  C208     1.0000 0.37406  0.08116  0.83423  Biso   1.000  C
  H217     1.0000 0.85556  0.22653  0.77669  Biso   1.000  H
  H218     1.0000 0.75571  0.26679  0.78209  Biso   1.000  H
  O48      1.0000 0.65798  0.28539  0.81678  Biso   1.000  O
  C209     1.0000 0.71745  0.19119  0.84958  Biso   1.000  C
  N10      1.0000 0.79604  0.08729  0.87861  Biso   1.000  N
  H219     1.0000 0.40868  0.97003  0.88600  Biso   1.000  H
  C210     1.0000 0.50236  0.07457  0.87851  Biso   1.000  C
  O49      1.0000 0.30333  0.08263  0.81319  Biso   1.000  O
  C211     1.0000 0.45811  0.14154  0.83875  Biso   1.000  C
  C212     1.0000 0.61321  0.20762  0.86516  Biso   1.000  C
  H220     1.0000 0.73431  0.07828  0.88219  Biso   1.000  H
  H221     1.0000 0.83259  0.03700  0.87609  Biso   1.000  H
  O50      1.0000 0.57250  0.06767  0.90050  Biso   1.000  O
  C213     1.0000 0.52346  0.13956  0.86108  Biso   1.000  C
  C214     1.0000 0.33876  0.12857  0.79134  Biso   1.000  C
  H222     1.0000 0.47110  0.18480  0.82639  Biso   1.000  H
  H223     1.0000 0.63513  0.20953  0.88349  Biso   1.000  H
  H224     1.0000 0.58130  0.26398  0.86049  Biso   1.000  H
  C215     1.0000 0.52279  0.09560  0.92336  Biso   1.000  C
  H225     1.0000 0.41451  0.10959  0.78670  Biso   1.000  H
  H226     1.0000 0.28575  0.11790  0.77709  Biso   1.000  H
  H227     1.0000 0.34043  0.18979  0.79519  Biso   1.000  H
  H228     1.0000 0.44918  0.06780  0.92529  Biso   1.000  H
  H229     1.0000 0.57219  0.08071  0.93790  Biso   1.000  H
  H230     1.0000 0.51252  0.15771  0.92279  Biso   1.000  H
  C216     1.0000 0.42986  0.03649  0.29226  Biso   1.000  C
  O51      1.0000 0.33133  0.07758  0.28228  Biso   1.000  O
  H231     1.0000 0.47659  0.01700  0.27811  Biso   1.000  H
  H232     1.0000 0.47318  0.07681  0.30290  Biso   1.000  H
  H233     1.0000 0.40783  0.98735  0.30259  Biso   1.000  H
  C217     1.0000 0.34814  0.14525  0.26611  Biso   1.000  C
  C218     1.0000 0.25017  0.18301  0.25581  Biso   1.000  C
  C219     1.0000 0.45410  0.17707  0.25997  Biso   1.000  C
  C220     1.0000 0.26180  0.25235  0.23941  Biso   1.000  C
  C221     1.0000 0.13369  0.15087  0.26260  Biso   1.000  C
  C222     1.0000 0.46495  0.24609  0.24328  Biso   1.000  C
  H234     1.0000 0.51996  0.15151  0.26729  Biso   1.000  H
  H235     1.0000 0.19606  0.27931  0.23249  Biso   1.000  H
  C223     1.0000 0.36766  0.28283  0.23304  Biso   1.000  C
  C224     1.0000 0.09356  0.07592  0.24662  Biso   1.000  C
  H236     1.0000 0.13455  0.13387  0.28080  Biso   1.000  H
  H237     1.0000 0.07884  0.19829  0.26051  Biso   1.000  H
  C225     1.0000 0.58159  0.27625  0.23552  Biso   1.000  C
  O52      1.0000 0.38276  0.35140  0.21674  Biso   1.000  O
  C226     1.0000 0.06005  0.08671  0.22103  Biso   1.000  C
  C227     1.0000 0.08825  0.99425  0.25688  Biso   1.000  C
  C228     1.0000 0.62596  0.22046  0.21451  Biso   1.000  C
  H238     1.0000 0.57720  0.33619  0.22959  Biso   1.000  H
  H239     1.0000 0.63406  0.27401  0.25040  Biso   1.000  H
  C229     1.0000 0.28821  0.37702  0.20186  Biso   1.000  C
  O53      1.0000 0.06535  0.16908  0.21180  Biso   1.000  O
  C230     1.0000 0.02359  0.01821  0.20661  Biso   1.000  C
  C231     1.0000 0.05196  0.92434  0.24245  Biso   1.000  C
  H240     1.0000 0.11008  0.98581  0.27420  Biso   1.000  H
  C232     1.0000 0.59264  0.23350  0.18920  Biso   1.000  C
  C233     1.0000 0.69791  0.15145  0.21990  Biso   1.000  C
  H241     1.0000 0.25685  0.32743  0.19280  Biso   1.000  H
  H242     1.0000 0.31142  0.42028  0.18951  Biso   1.000  H
  H243     1.0000 0.23067  0.40111  0.21300  Biso   1.000  H
  C234     1.0000 0.03836  0.18135  0.18531  Biso   1.000  C
  H244     1.0000 0.00117  0.02703  0.18930  Biso   1.000  H
  C235     1.0000 0.01888  0.93610  0.21695  Biso   1.000  C
  O54      1.0000 0.04752  0.84210  0.25190  Biso   1.000  O
  H245     1.0000 0.54430  0.28021  0.18510  Biso   1.000  H
  C236     1.0000 0.62811  0.18052  0.16982  Biso   1.000  C
  O55      1.0000 0.72903  0.14033  0.24519  Biso   1.000  O
  C237     1.0000 0.73531  0.09911  0.20038  Biso   1.000  C
  H246     1.0000 0.08726  0.14518  0.17499  Biso   1.000  H
  H247     1.0000 0.05015  0.24142  0.18079  Biso   1.000  H
  H248     1.0000 0.95915  0.16602  0.18199  Biso   1.000  H
  C238     1.0000 0.98706  0.86280  0.19935  Biso   1.000  C
  C239     1.0000 0.10395  0.82695  0.27570  Biso   1.000  C
  O56      1.0000 0.59750  0.19049  0.14456  Biso   1.000  O
  C240     1.0000 0.70049  0.11132  0.17532  Biso   1.000  C
  C241     1.0000 0.76837  0.05828  0.25269  Biso   1.000  C
  H249     1.0000 0.78593  0.05381  0.20440  Biso   1.000  H
  H250     1.0000 0.92116  0.87929  0.18849  Biso   1.000  H
  H251     1.0000 0.96545  0.81238  0.20961  Biso   1.000  H
  C242     1.0000 0.08562  0.83980  0.18258  Biso   1.000  C
  H252     1.0000 0.18206  0.84734  0.27490  Biso   1.000  H
  H253     1.0000 0.10376  0.76561  0.27940  Biso   1.000  H
  H254     1.0000 0.06478  0.85763  0.28921  Biso   1.000  H
  C243     1.0000 0.50054  0.24180  0.13925  Biso   1.000  C
  C244     1.0000 0.73564  0.05112  0.15415  Biso   1.000  C
  H255     1.0000 0.71347  0.01483  0.24710  Biso   1.000  H
  H256     1.0000 0.77737  0.05630  0.27130  Biso   1.000  H
  H257     1.0000 0.84123  0.04703  0.24479  Biso   1.000  H
  C245     1.0000 0.16987  0.78548  0.19057  Biso   1.000  C
  C246     1.0000 0.09721  0.88319  0.15869  Biso   1.000  C
  H258     1.0000 0.43955  0.22538  0.15060  Biso   1.000  H
  H259     1.0000 0.47589  0.23331  0.12150  Biso   1.000  H
  H260     1.0000 0.51971  0.30213  0.14200  Biso   1.000  H
  H261     1.0000 0.75020  0.08480  0.13849  Biso   1.000  H
  H262     1.0000 0.80697  0.02217  0.15930  Biso   1.000  H
  C247     1.0000 0.64615  0.98441  0.14824  Biso   1.000  C
  N11      1.0000 0.17136  0.74478  0.21319  Biso   1.000  N
  C248     1.0000 0.27094  0.76606  0.17446  Biso   1.000  C
  O57      1.0000 0.02787  0.93527  0.15009  Biso   1.000  O
  C249     1.0000 0.20229  0.86645  0.14303  Biso   1.000  C
  C250     1.0000 0.57981  0.98601  0.12621  Biso   1.000  C
  C251     1.0000 0.62591  0.91884  0.16576  Biso   1.000  C
  H263     1.0000 0.14441  0.77353  0.22330  Biso   1.000  H
  H264     1.0000 0.24418  0.73321  0.21790  Biso   1.000  H
  O58      1.0000 0.34191  0.71461  0.18321  Biso   1.000  O
  C252     1.0000 0.28252  0.80881  0.15041  Biso   1.000  C
  N12      1.0000 0.20385  0.91271  0.12140  Biso   1.000  N
  H265     1.0000 0.59121  0.02997  0.11400  Biso   1.000  H
  C253     1.0000 0.49761  0.92543  0.12148  Biso   1.000  C
  O59      1.0000 0.69656  0.91737  0.18682  Biso   1.000  O
  C254     1.0000 0.54178  0.85846  0.16124  Biso   1.000  C
  C255     1.0000 0.38667  0.79245  0.13483  Biso   1.000  C
  H266     1.0000 0.26557  0.92172  0.11780  Biso   1.000  H
  H267     1.0000 0.16730  0.96300  0.12390  Biso   1.000  H
  O60      1.0000 0.42739  0.93233  0.09949  Biso   1.000  O
  C256     1.0000 0.47651  0.86044  0.13891  Biso   1.000  C
  C257     1.0000 0.66113  0.87143  0.20865  Biso   1.000  C
  H268     1.0000 0.52879  0.81520  0.17360  Biso   1.000  H
  H269     1.0000 0.36476  0.79053  0.11650  Biso   1.000  H
  H270     1.0000 0.41859  0.73602  0.13950  Biso   1.000  H
  C258     1.0000 0.47710  0.90440  0.07665  Biso   1.000  C
  H271     1.0000 0.58538  0.89041  0.21331  Biso   1.000  H
  H272     1.0000 0.71414  0.88210  0.22290  Biso   1.000  H
  H273     1.0000 0.65945  0.81021  0.20480  Biso   1.000  H
  H274     1.0000 0.55071  0.93220  0.07470  Biso   1.000  H
  H275     1.0000 0.42770  0.91929  0.06209  Biso   1.000  H
  H276     1.0000 0.48737  0.84229  0.07720  Biso   1.000  H
  O61      1.0000 0.95577  0.49281  0.17499  Biso   1.000  O
  C259     1.0000 0.98059  0.42386  0.15968  Biso   1.000  C
  C260     1.0000 0.04642  0.54892  0.18176  Biso   1.000  C
  C261     1.0000 0.88927  0.37453  0.15106  Biso   1.000  C
  C262     1.0000 0.08998  0.40169  0.15312  Biso   1.000  C
  H277     1.0000 0.09994  0.51914  0.19309  Biso   1.000  H
  H278     1.0000 0.01640  0.59908  0.19050  Biso   1.000  H
  H279     1.0000 0.08509  0.56700  0.16630  Biso   1.000  H
  C263     1.0000 0.76958  0.39773  0.15781  Biso   1.000  C
  C264     1.0000 0.91111  0.30424  0.13550  Biso   1.000  C
  H280     1.0000 0.15128  0.43511  0.15951  Biso   1.000  H
  C265     1.0000 0.11242  0.33223  0.13758  Biso   1.000  C
  C266     1.0000 0.72318  0.47121  0.14177  Biso   1.000  C
  H281     1.0000 0.76757  0.41383  0.17610  Biso   1.000  H
  H282     1.0000 0.72044  0.34711  0.15529  Biso   1.000  H
  H283     1.0000 0.85001  0.26979  0.12949  Biso   1.000  H
  C267     1.0000 0.01997  0.28372  0.12865  Biso   1.000  C
  C268     1.0000 0.23210  0.31063  0.13077  Biso   1.000  C
  C269     1.0000 0.73260  0.55480  0.15022  Biso   1.000  C
  C270     1.0000 0.67317  0.45651  0.11788  Biso   1.000  C
  O62      1.0000 0.04719  0.21605  0.11265  Biso   1.000  O
  C271     1.0000 0.27332  0.36705  0.10945  Biso   1.000  C
  H284     1.0000 0.23613  0.24998  0.12541  Biso   1.000  H
  H285     1.0000 0.28198  0.31798  0.14601  Biso   1.000  H
  H286     1.0000 0.76609  0.56579  0.16651  Biso   1.000  H
  C272     1.0000 0.69460  0.62266  0.13557  Biso   1.000  C
  O63      1.0000 0.66946  0.37261  0.10992  Biso   1.000  O
  C273     1.0000 0.63021  0.52431  0.10353  Biso   1.000  C
  C274     1.0000 0.96028  0.15841  0.10628  Biso   1.000  C
  C275     1.0000 0.31618  0.44917  0.11458  Biso   1.000  C
  C276     1.0000 0.26477  0.34053  0.08424  Biso   1.000  C
  O64      1.0000 0.70821  0.70669  0.14259  Biso   1.000  O
  C277     1.0000 0.64072  0.60809  0.11193  Biso   1.000  C
  C278     1.0000 0.61278  0.35523  0.08622  Biso   1.000  C
  H287     1.0000 0.59296  0.51300  0.08771  Biso   1.000  H
  H288     1.0000 0.93261  0.13138  0.12180  Biso   1.000  H
  H289     1.0000 0.98932  0.11438  0.09480  Biso   1.000  H
  H290     1.0000 0.89804  0.18909  0.09770  Biso   1.000  H
  O65      1.0000 0.32870  0.47019  0.13981  Biso   1.000  O
  C279     1.0000 0.34145  0.50316  0.09457  Biso   1.000  C
  C280     1.0000 0.29469  0.39440  0.06427  Biso   1.000  C
  H291     1.0000 0.23817  0.28449  0.08050  Biso   1.000  H
  C281     1.0000 0.77780  0.72228  0.16410  Biso   1.000  C
  C282     1.0000 0.59721  0.68228  0.09596  Biso   1.000  C
  H292     1.0000 0.53359  0.37312  0.08719  Biso   1.000  H
  H293     1.0000 0.61619  0.29388  0.08260  Biso   1.000  H
  H294     1.0000 0.64948  0.38693  0.07251  Biso   1.000  H
  C283     1.0000 0.36291  0.55582  0.14562  Biso   1.000  C
  C284     1.0000 0.33053  0.47747  0.06932  Biso   1.000  C
  H295     1.0000 0.36719  0.55940  0.09819  Biso   1.000  H
  O66      1.0000 0.29002  0.36903  0.03885  Biso   1.000  O
  H296     1.0000 0.74064  0.70094  0.17940  Biso   1.000  H
  H297     1.0000 0.79096  0.78382  0.16580  Biso   1.000  H
  H298     1.0000 0.85014  0.69282  0.16210  Biso   1.000  H
  C285     1.0000 0.68641  0.71263  0.07743  Biso   1.000  C
  H299     1.0000 0.57627  0.73001  0.10729  Biso   1.000  H
  H300     1.0000 0.52861  0.66432  0.08629  Biso   1.000  H
  H301     1.0000 0.43778  0.56649  0.13861  Biso   1.000  H
  H302     1.0000 0.36616  0.56349  0.16420  Biso   1.000  H
  H303     1.0000 0.30827  0.59601  0.13809  Biso   1.000  H
  C286     1.0000 0.35369  0.54208  0.04834  Biso   1.000  C
  C287     1.0000 0.26237  0.28200  0.03368  Biso   1.000  C
  C288     1.0000 0.70408  0.67001  0.05456  Biso   1.000  C
  C289     1.0000 0.75531  0.78114  0.08372  Biso   1.000  C
  C290     1.0000 0.25408  0.60234  0.04365  Biso   1.000  C
  H304     1.0000 0.37009  0.51121  0.03240  Biso   1.000  H
  H305     1.0000 0.42137  0.57601  0.05321  Biso   1.000  H
  H306     1.0000 0.31752  0.24468  0.04230  Biso   1.000  H
  H307     1.0000 0.26411  0.27190  0.01520  Biso   1.000  H
  H308     1.0000 0.18658  0.26973  0.03990  Biso   1.000  H
  O67      1.0000 0.62880  0.60489  0.04873  Biso   1.000  O
  C291     1.0000 0.79311  0.69263  0.03902  Biso   1.000  C
  C292     1.0000 0.84406  0.80561  0.06791  Biso   1.000  C
  H309     1.0000 0.74240  0.81213  0.09900  Biso   1.000  H
  C293     1.0000 0.24960  0.68209  0.05670  Biso   1.000  C
  C294     1.0000 0.16528  0.57940  0.02788  Biso   1.000  C
  C295     1.0000 0.64838  0.55684  0.02632  Biso   1.000  C
  H310     1.0000 0.80518  0.66170  0.02370  Biso   1.000  H
  C296     1.0000 0.86491  0.76005  0.04564  Biso   1.000  C
  O68      1.0000 0.91450  0.87354  0.07346  Biso   1.000  O
  C297     1.0000 0.14756  0.73909  0.05222  Biso   1.000  C
  O69      1.0000 0.32365  0.70739  0.07192  Biso   1.000  O
  C298     1.0000 0.06820  0.64049  0.02208  Biso   1.000  C
  N13      1.0000 0.15679  0.50425  0.01631  Biso   1.000  N
  H311     1.0000 0.64290  0.59441  0.01140  Biso   1.000  H
  H312     1.0000 0.59179  0.51128  0.02470  Biso   1.000  H
  H313     1.0000 0.72410  0.53141  0.02731  Biso   1.000  H
  C299     1.0000 0.96492  0.77954  0.02899  Biso   1.000  C
  C300     1.0000 0.89189  0.92172  0.09594  Biso   1.000  C
  C301     1.0000 0.06419  0.72094  0.03461  Biso   1.000  C
  N14      1.0000 0.14972  0.81021  0.06677  Biso   1.000  N
  O70      1.0000 0.99464  0.61582  0.00656  Biso   1.000  O
  H314     1.0000 0.09570  0.49760  0.01140  Biso   1.000  H
  H315     1.0000 0.17532  0.46201  0.02760  Biso   1.000  H
  H316     1.0000 0.94167  0.77340  0.01079  Biso   1.000  H
  H317     1.0000 0.98865  0.83954  0.03179  Biso   1.000  H
  H318     1.0000 0.81605  0.94664  0.09450  Biso   1.000  H
  H319     1.0000 0.94792  0.96754  0.09791  Biso   1.000  H
  H320     1.0000 0.89611  0.88402  0.11090  Biso   1.000  H
  H321     1.0000 0.18096  0.80069  0.07951  Biso   1.000  H
  H322     1.0000 0.07757  0.82663  0.07001  Biso   1.000  H
  O71      1.0000 0.04421  0.50725  0.82500  Biso   1.000  O
  C302     1.0000 0.01930  0.57614  0.84033  Biso   1.000  C
  C303     1.0000 0.95355  0.45108  0.81823  Biso   1.000  C
  C304     1.0000 0.11062  0.62554  0.84893  Biso   1.000  C
  C305     1.0000 0.90991  0.59831  0.84689  Biso   1.000  C
  H323     1.0000 0.89994  0.48093  0.80690  Biso   1.000  H
  H324     1.0000 0.98349  0.40092  0.80949  Biso   1.000  H
  H325     1.0000 0.91479  0.43300  0.83369  Biso   1.000  H
  C306     1.0000 0.08886  0.69583  0.86449  Biso   1.000  C
  C307     1.0000 0.23031  0.60234  0.84218  Biso   1.000  C
  H326     1.0000 0.84861  0.56489  0.84050  Biso   1.000  H
  C308     1.0000 0.88755  0.66784  0.86241  Biso   1.000  C
  H327     1.0000 0.14996  0.73021  0.87050  Biso   1.000  H
  C309     1.0000 0.97991  0.71634  0.87134  Biso   1.000  C
  C310     1.0000 0.27670  0.52879  0.85822  Biso   1.000  C
  H328     1.0000 0.23231  0.58624  0.82389  Biso   1.000  H
  H329     1.0000 0.27945  0.65289  0.84470  Biso   1.000  H
  C311     1.0000 0.76779  0.68937  0.86924  Biso   1.000  C
  O72      1.0000 0.95270  0.78395  0.88734  Biso   1.000  O
  C312     1.0000 0.26737  0.44520  0.84977  Biso   1.000  C
  C313     1.0000 0.32672  0.54349  0.88211  Biso   1.000  C
  C314     1.0000 0.72665  0.63295  0.89056  Biso   1.000  C
  H330     1.0000 0.76384  0.75002  0.87460  Biso   1.000  H
  H331     1.0000 0.71791  0.68202  0.85400  Biso   1.000  H
  C315     1.0000 0.03960  0.84159  0.89371  Biso   1.000  C
  H332     1.0000 0.23380  0.43421  0.83350  Biso   1.000  H
  C316     1.0000 0.30537  0.37734  0.86444  Biso   1.000  C
  O73      1.0000 0.33043  0.62745  0.89007  Biso   1.000  O
  C317     1.0000 0.36976  0.47575  0.89647  Biso   1.000  C
  C318     1.0000 0.68371  0.55090  0.88543  Biso   1.000  C
  C319     1.0000 0.73512  0.65953  0.91577  Biso   1.000  C
  H333     1.0000 0.06737  0.86862  0.87820  Biso   1.000  H
  H334     1.0000 0.01066  0.88562  0.90519  Biso   1.000  H
  H335     1.0000 0.10185  0.81091  0.90229  Biso   1.000  H
  O74      1.0000 0.29168  0.29331  0.85740  Biso   1.000  O
  C320     1.0000 0.35925  0.39197  0.88808  Biso   1.000  C
  C321     1.0000 0.38711  0.64483  0.91377  Biso   1.000  C
  H336     1.0000 0.40693  0.48700  0.91230  Biso   1.000  H
  O75      1.0000 0.67119  0.52981  0.86018  Biso   1.000  O
  C322     1.0000 0.65844  0.49684  0.90542  Biso   1.000  C
  C323     1.0000 0.70519  0.60560  0.93574  Biso   1.000  C
  H337     1.0000 0.76171  0.71551  0.91949  Biso   1.000  H
  C324     1.0000 0.22217  0.27772  0.83589  Biso   1.000  C
  C325     1.0000 0.40268  0.31778  0.90405  Biso   1.000  C
  H338     1.0000 0.46630  0.62694  0.91280  Biso   1.000  H
  H339     1.0000 0.38370  0.70612  0.91740  Biso   1.000  H
  H340     1.0000 0.35041  0.61314  0.92750  Biso   1.000  H
  C326     1.0000 0.63706  0.44418  0.85437  Biso   1.000  C
  C327     1.0000 0.66944  0.52253  0.93067  Biso   1.000  C
  H341     1.0000 0.63270  0.44060  0.90180  Biso   1.000  H
  O76      1.0000 0.70987  0.63097  0.96114  Biso   1.000  O
  H342     1.0000 0.25925  0.29912  0.82059  Biso   1.000  H
  H343     1.0000 0.20893  0.21618  0.83419  Biso   1.000  H
  H344     1.0000 0.14975  0.30718  0.83789  Biso   1.000  H
  C328     1.0000 0.31348  0.28743  0.92256  Biso   1.000  C
  H345     1.0000 0.42361  0.26999  0.89270  Biso   1.000  H
  H346     1.0000 0.47136  0.33568  0.91370  Biso   1.000  H
  H347     1.0000 0.56211  0.43351  0.86140  Biso   1.000  H
  H348     1.0000 0.63372  0.43651  0.83579  Biso   1.000  H
  H349     1.0000 0.69162  0.40399  0.86190  Biso   1.000  H
  C329     1.0000 0.64620  0.45792  0.95165  Biso   1.000  C
  C330     1.0000 0.73752  0.71800  0.96633  Biso   1.000  C
  C331     1.0000 0.29580  0.32999  0.94543  Biso   1.000  C
  C332     1.0000 0.24467  0.21886  0.91627  Biso   1.000  C
  C333     1.0000 0.74581  0.39766  0.95634  Biso   1.000  C
  H350     1.0000 0.62979  0.48879  0.96759  Biso   1.000  H
  H351     1.0000 0.57852  0.42399  0.94680  Biso   1.000  H
  H352     1.0000 0.68245  0.75532  0.95769  Biso   1.000  H
  H353     1.0000 0.73578  0.72810  0.98479  Biso   1.000  H
  H354     1.0000 0.81331  0.73033  0.96009  Biso   1.000  H
  O77      1.0000 0.37109  0.39511  0.95126  Biso   1.000  O
  C334     1.0000 0.20686  0.30743  0.96097  Biso   1.000  C
  C335     1.0000 0.15583  0.19445  0.93208  Biso   1.000  C
  H355     1.0000 0.25749  0.18794  0.90099  Biso   1.000  H
  C336     1.0000 0.75028  0.31791  0.94329  Biso   1.000  C
  C337     1.0000 0.83460  0.42060  0.97211  Biso   1.000  C
  C338     1.0000 0.35151  0.44322  0.97369  Biso   1.000  C
  H356     1.0000 0.19471  0.33830  0.97630  Biso   1.000  H
  C339     1.0000 0.13506  0.23995  0.95435  Biso   1.000  C
  O78      1.0000 0.08539  0.12646  0.92653  Biso   1.000  O
  O79      1.0000 0.67632  0.29261  0.92807  Biso   1.000  O
  C340     1.0000 0.85233  0.26091  0.94777  Biso   1.000  C
  N15      1.0000 0.84310  0.49581  0.98370  Biso   1.000  N
  C341     1.0000 0.93169  0.35951  0.97791  Biso   1.000  C
  H357     1.0000 0.35699  0.40559  0.98861  Biso   1.000  H
  H358     1.0000 0.40810  0.48872  0.97529  Biso   1.000  H
  H359     1.0000 0.27579  0.46859  0.97270  Biso   1.000  H
  C342     1.0000 0.03505  0.22053  0.97100  Biso   1.000  C
  C343     1.0000 0.10800  0.07828  0.90406  Biso   1.000  C
  N16      1.0000 0.85026  0.18979  0.93324  Biso   1.000  N
  C344     1.0000 0.93570  0.27906  0.96538  Biso   1.000  C
  H360     1.0000 0.90419  0.50240  0.98861  Biso   1.000  H
  H361     1.0000 0.82457  0.53799  0.97240  Biso   1.000  H
  O80      1.0000 0.00525  0.38418  0.99343  Biso   1.000  O
  H362     1.0000 0.05822  0.22660  0.98920  Biso   1.000  H
  H363     1.0000 0.01124  0.16052  0.96820  Biso   1.000  H
  H364     1.0000 0.18384  0.05342  0.90550  Biso   1.000  H
  H365     1.0000 0.05206  0.03253  0.90210  Biso   1.000  H
  H366     1.0000 0.10386  0.11598  0.88909  Biso   1.000  H
  H367     1.0000 0.81893  0.19931  0.92050  Biso   1.000  H
  H368     1.0000 0.92232  0.17343  0.93000  Biso   1.000  H
