data_image0
_cell_length_a       17.583
_cell_length_b       17.583
_cell_length_c       48.345
_cell_angle_alpha    90
_cell_angle_beta     90
_cell_angle_gamma    120

_symmetry_space_group_name_H-M    "P 1"
_symmetry_int_tables_number       1

loop_
  _symmetry_equiv_pos_as_xyz
  'x, y, z'

loop_
  _atom_site_label
  _atom_site_occupancy
  _atom_site_fract_x
  _atom_site_fract_y
  _atom_site_fract_z
  _atom_site_thermal_displace_type
  _atom_site_B_iso_or_equiv
  _atom_site_type_symbol
  C1       1.0000 0.51474  0.70564  0.50988  Biso   1.000  C
  N1       1.0000 0.54812  0.71405  0.48284  Biso   1.000  N
  H1       1.0000 0.51960  0.65895  0.51976  Biso   1.000  H
  H2       1.0000 0.55061  0.76146  0.51997  Biso   1.000  H
  C2       1.0000 0.42025  0.68364  0.50988  Biso   1.000  C
  C3       1.0000 0.62831  0.72725  0.47751  Biso   1.000  C
  H3       1.0000 0.51455  0.71050  0.46886  Biso   1.000  H
  C4       1.0000 0.40055  0.75548  0.51083  Biso   1.000  C
  C5       1.0000 0.35495  0.59945  0.51083  Biso   1.000  C
  C6       1.0000 0.65753  0.73677  0.45097  Biso   1.000  C
  C7       1.0000 0.68696  0.73250  0.49823  Biso   1.000  C
  C8       1.0000 0.31636  0.73657  0.50988  Biso   1.000  C
  C9       1.0000 0.47560  0.84736  0.50847  Biso   1.000  C
  C10      1.0000 0.26343  0.57975  0.50988  Biso   1.000  C
  C11      1.0000 0.37173  0.52439  0.50847  Biso   1.000  C
  S1       1.0000 0.58901  0.73066  0.42244  Biso   1.000  S
  C12      1.0000 0.73342  0.73795  0.44546  Biso   1.000  C
  C13      1.0000 0.75932  0.78169  0.44267  Biso   1.000  C
  C14      1.0000 0.76633  0.74360  0.49306  Biso   1.000  C
  H4       1.0000 0.66893  0.72784  0.51697  Biso   1.000  H
  C15      1.0000 0.29432  0.80907  0.50988  Biso   1.000  C
  C16      1.0000 0.24457  0.64509  0.51083  Biso   1.000  C
  H5       1.0000 0.45712  0.88216  0.49718  Biso   1.000  H
  H6       1.0000 0.52462  0.84644  0.49867  Biso   1.000  H
  C17      1.0000 0.50632  0.88945  0.53447  Biso   1.000  C
  C18      1.0000 0.19093  0.48525  0.50988  Biso   1.000  C
  H7       1.0000 0.42503  0.54284  0.49718  Biso   1.000  H
  H8       1.0000 0.32187  0.47540  0.49867  Biso   1.000  H
  C19      1.0000 0.38315  0.49365  0.53447  Biso   1.000  C
  S2       1.0000 0.52502  0.60267  0.41088  Biso   1.000  S
  H9       1.0000 0.75112  0.74117  0.42677  Biso   1.000  H
  C20      1.0000 0.79094  0.73447  0.46776  Biso   1.000  C
  C21      1.0000 0.80962  0.78287  0.46776  Biso   1.000  C
  H10      1.0000 0.78344  0.80375  0.42486  Biso   1.000  H
  H11      1.0000 0.80679  0.75844  0.50787  Biso   1.000  H
  N2       1.0000 0.28595  0.83409  0.48284  Biso   1.000  N
  H12      1.0000 0.34105  0.86069  0.51976  Biso   1.000  H
  H13      1.0000 0.23853  0.78917  0.51997  Biso   1.000  H
  C22      1.0000 0.15262  0.62828  0.50847  Biso   1.000  C
  H14      1.0000 0.55737  0.94810  0.53166  Biso   1.000  H
  H15      1.0000 0.45954  0.89497  0.54368  Biso   1.000  H
  H16      1.0000 0.52312  0.85458  0.54608  Biso   1.000  H
  N3       1.0000 0.16594  0.45189  0.48284  Biso   1.000  N
  H17      1.0000 0.13936  0.48039  0.51976  Biso   1.000  H
  H18      1.0000 0.21082  0.44939  0.51997  Biso   1.000  H
  H19      1.0000 0.39077  0.44269  0.53166  Biso   1.000  H
  H20      1.0000 0.43545  0.54048  0.54368  Biso   1.000  H
  H21      1.0000 0.33141  0.47684  0.54608  Biso   1.000  H
  C23      1.0000 0.58742  0.59656  0.38238  Biso   1.000  C
  H22      1.0000 0.83975  0.72665  0.46416  Biso   1.000  H
  H23      1.0000 0.87184  0.81039  0.46687  Biso   1.000  H
  C24      1.0000 0.27275  0.90108  0.47751  Biso   1.000  C
  H24      1.0000 0.28955  0.80408  0.46886  Biso   1.000  H
  H25      1.0000 0.11782  0.57495  0.49718  Biso   1.000  H
  H26      1.0000 0.15352  0.67819  0.49867  Biso   1.000  H
  C25      1.0000 0.11051  0.61685  0.53447  Biso   1.000  C
  C26      1.0000 0.09892  0.37163  0.47751  Biso   1.000  C
  H27      1.0000 0.19591  0.48544  0.46886  Biso   1.000  H
  C27      1.0000 0.56773  0.60608  0.35584  Biso   1.000  C
  C28      1.0000 0.66213  0.59538  0.38786  Biso   1.000  C
  C29      1.0000 0.64430  0.55164  0.39067  Biso   1.000  C
  C30      1.0000 0.26327  0.92078  0.45097  Biso   1.000  C
  C31      1.0000 0.26754  0.95447  0.49823  Biso   1.000  C
  H28      1.0000 0.05196  0.60930  0.53166  Biso   1.000  H
  H29      1.0000 0.10502  0.56458  0.54368  Biso   1.000  H
  H30      1.0000 0.14539  0.66854  0.54608  Biso   1.000  H
  C32      1.0000 0.07922  0.34248  0.45097  Biso   1.000  C
  C33      1.0000 0.04551  0.31306  0.49823  Biso   1.000  C
  N4       1.0000 0.50073  0.61928  0.35050  Biso   1.000  N
  C34      1.0000 0.62115  0.60089  0.33511  Biso   1.000  C
  H31      1.0000 0.67662  0.59216  0.40656  Biso   1.000  H
  C35      1.0000 0.72313  0.59886  0.36556  Biso   1.000  C
  C36      1.0000 0.69342  0.55046  0.36556  Biso   1.000  C
  H32      1.0000 0.64635  0.52957  0.40846  Biso   1.000  H
  S3       1.0000 0.26933  0.85839  0.42244  Biso   1.000  S
  C37      1.0000 0.26204  0.99545  0.44546  Biso   1.000  C
  C38      1.0000 0.21834  0.97765  0.44267  Biso   1.000  C
  C39      1.0000 0.25648  0.02277  0.49306  Biso   1.000  C
  H33      1.0000 0.27216  0.94107  0.51697  Biso   1.000  H
  S4       1.0000 0.14162  0.41097  0.42244  Biso   1.000  S
  C40      1.0000 0.00452  0.26656  0.44546  Biso   1.000  C
  C41      1.0000 0.02235  0.24069  0.44267  Biso   1.000  C
  C42      1.0000 0.97721  0.23366  0.49306  Biso   1.000  C
  H34      1.0000 0.05894  0.33105  0.51697  Biso   1.000  H
  C43      1.0000 0.47576  0.62769  0.32347  Biso   1.000  C
  H35      1.0000 0.47075  0.62289  0.36446  Biso   1.000  H
  C44      1.0000 0.68943  0.58980  0.34026  Biso   1.000  C
  H36      1.0000 0.60776  0.60549  0.31637  Biso   1.000  H
  H37      1.0000 0.77976  0.60667  0.36916  Biso   1.000  H
  H38      1.0000 0.72811  0.52294  0.36647  Biso   1.000  H
  S5       1.0000 0.39731  0.92236  0.41088  Biso   1.000  S
  H39      1.0000 0.25878  0.00996  0.42677  Biso   1.000  H
  C45      1.0000 0.26547  0.05646  0.46776  Biso   1.000  C
  C46      1.0000 0.21719  0.02677  0.46776  Biso   1.000  C
  H40      1.0000 0.19626  0.97969  0.42486  Biso   1.000  H
  H41      1.0000 0.24150  0.04831  0.50787  Biso   1.000  H
  S6       1.0000 0.07760  0.47494  0.41088  Biso   1.000  S
  H42      1.0000 0.99006  0.24889  0.42677  Biso   1.000  H
  C47      1.0000 0.94354  0.20910  0.46776  Biso   1.000  C
  C48      1.0000 0.97325  0.19038  0.46776  Biso   1.000  C
  H43      1.0000 0.02037  0.21658  0.42486  Biso   1.000  H
  H44      1.0000 0.95160  0.19314  0.50787  Biso   1.000  H
  C49      1.0000 0.40327  0.64969  0.32347  Biso   1.000  C
  H45      1.0000 0.52732  0.67438  0.31356  Biso   1.000  H
  H46      1.0000 0.45581  0.57187  0.31337  Biso   1.000  H
  H47      1.0000 0.71502  0.57489  0.32547  Biso   1.000  H
  C50      1.0000 0.40340  0.99085  0.38238  Biso   1.000  C
  H48      1.0000 0.27336  0.11306  0.46416  Biso   1.000  H
  H49      1.0000 0.18966  0.06145  0.46687  Biso   1.000  H
  C51      1.0000 0.00915  0.41255  0.38238  Biso   1.000  C
  H50      1.0000 0.88692  0.16024  0.46416  Biso   1.000  H
  H51      1.0000 0.93852  0.12819  0.46687  Biso   1.000  H
  C52      1.0000 0.31173  0.57784  0.32249  Biso   1.000  C
  C53      1.0000 0.42216  0.73388  0.32249  Biso   1.000  C
  C54      1.0000 0.39394  0.96169  0.35584  Biso   1.000  C
  C55      1.0000 0.40462  0.06677  0.38786  Biso   1.000  C
  C56      1.0000 0.44827  0.09264  0.39067  Biso   1.000  C
  C57      1.0000 0.03834  0.43225  0.35584  Biso   1.000  C
  C58      1.0000 0.93326  0.33788  0.38786  Biso   1.000  C
  C59      1.0000 0.90735  0.35568  0.39067  Biso   1.000  C
  C60      1.0000 0.29491  0.48597  0.32487  Biso   1.000  C
  C61      1.0000 0.24645  0.59676  0.32347  Biso   1.000  C
  C62      1.0000 0.35034  0.75358  0.32347  Biso   1.000  C
  C63      1.0000 0.51401  0.80894  0.32487  Biso   1.000  C
  N5       1.0000 0.38072  0.88144  0.35050  Biso   1.000  N
  C64      1.0000 0.39912  0.02027  0.33511  Biso   1.000  C
  H52      1.0000 0.40777  0.08443  0.40656  Biso   1.000  H
  C65      1.0000 0.40116  0.12423  0.36556  Biso   1.000  C
  C66      1.0000 0.44954  0.14295  0.36556  Biso   1.000  C
  H53      1.0000 0.47045  0.11674  0.40846  Biso   1.000  H
  N6       1.0000 0.11852  0.49923  0.35050  Biso   1.000  N
  C67      1.0000 0.97974  0.37886  0.33511  Biso   1.000  C
  H54      1.0000 0.91554  0.32337  0.40656  Biso   1.000  H
  C68      1.0000 0.87574  0.27687  0.36556  Biso   1.000  C
  C69      1.0000 0.85703  0.30655  0.36556  Biso   1.000  C
  H55      1.0000 0.88324  0.35364  0.40846  Biso   1.000  H
  C70      1.0000 0.28353  0.44387  0.29887  Biso   1.000  C
  H56      1.0000 0.24162  0.45116  0.33617  Biso   1.000  H
  H57      1.0000 0.34485  0.48689  0.33466  Biso   1.000  H
  C71      1.0000 0.15191  0.52425  0.32347  Biso   1.000  C
  C72      1.0000 0.26615  0.68824  0.32249  Biso   1.000  C
  C73      1.0000 0.37234  0.84808  0.32347  Biso   1.000  C
  H58      1.0000 0.54886  0.79049  0.33617  Biso   1.000  H
  H59      1.0000 0.51317  0.85800  0.33466  Biso   1.000  H
  C74      1.0000 0.55616  0.83967  0.29887  Biso   1.000  C
  H60      1.0000 0.37714  0.84788  0.36446  Biso   1.000  H
  C75      1.0000 0.41027  0.09967  0.34026  Biso   1.000  C
  H61      1.0000 0.39450  0.00228  0.31637  Biso   1.000  H
  H62      1.0000 0.39331  0.17302  0.36916  Biso   1.000  H
  H63      1.0000 0.47699  0.20514  0.36647  Biso   1.000  H
  H64      1.0000 0.15213  0.52925  0.36446  Biso   1.000  H
  C76      1.0000 0.90032  0.31056  0.34026  Biso   1.000  C
  H65      1.0000 0.99775  0.39226  0.31637  Biso   1.000  H
  H66      1.0000 0.82690  0.22026  0.36916  Biso   1.000  H
  H67      1.0000 0.79481  0.27188  0.36647  Biso   1.000  H
  H68      1.0000 0.27597  0.38529  0.30167  Biso   1.000  H
  H69      1.0000 0.23124  0.43836  0.28967  Biso   1.000  H
  H70      1.0000 0.33520  0.47874  0.28727  Biso   1.000  H
  H71      1.0000 0.14703  0.47264  0.31356  Biso   1.000  H
  H72      1.0000 0.11602  0.54415  0.31337  Biso   1.000  H
  C77      1.0000 0.19100  0.70505  0.32487  Biso   1.000  C
  H73      1.0000 0.32563  0.85294  0.31356  Biso   1.000  H
  H74      1.0000 0.42809  0.88394  0.31337  Biso   1.000  H
  H75      1.0000 0.61474  0.89064  0.30167  Biso   1.000  H
  H76      1.0000 0.56164  0.79285  0.28967  Biso   1.000  H
  H77      1.0000 0.52123  0.85649  0.28727  Biso   1.000  H
  H78      1.0000 0.42509  0.14012  0.32547  Biso   1.000  H
  H79      1.0000 0.85981  0.28495  0.32547  Biso   1.000  H
  H80      1.0000 0.20953  0.75837  0.33617  Biso   1.000  H
  H81      1.0000 0.14199  0.65514  0.33466  Biso   1.000  H
  C78      1.0000 0.16032  0.71648  0.29887  Biso   1.000  C
  H82      1.0000 0.10936  0.72409  0.30167  Biso   1.000  H
  H83      1.0000 0.20710  0.76875  0.28967  Biso   1.000  H
  H84      1.0000 0.14352  0.66479  0.28727  Biso   1.000  H
  C79      1.0000 0.61687  0.50633  0.46553  Biso   1.000  C
  C80      1.0000 0.62826  0.47566  0.49153  Biso   1.000  C
  H85      1.0000 0.60928  0.55735  0.46834  Biso   1.000  H
  H86      1.0000 0.56456  0.45950  0.45632  Biso   1.000  H
  H87      1.0000 0.66855  0.52314  0.45392  Biso   1.000  H
  C81      1.0000 0.64507  0.40053  0.48917  Biso   1.000  C
  H88      1.0000 0.57498  0.45714  0.50282  Biso   1.000  H
  H89      1.0000 0.67818  0.52465  0.50133  Biso   1.000  H
  C82      1.0000 0.57977  0.31634  0.49012  Biso   1.000  C
  C83      1.0000 0.73659  0.42023  0.49012  Biso   1.000  C
  C84      1.0000 0.48528  0.29434  0.49012  Biso   1.000  C
  C85      1.0000 0.59950  0.24456  0.48917  Biso   1.000  C
  C86      1.0000 0.80909  0.51473  0.49012  Biso   1.000  C
  C87      1.0000 0.75548  0.35495  0.48917  Biso   1.000  C
  H90      1.0000 0.48036  0.34103  0.48024  Biso   1.000  H
  H91      1.0000 0.44935  0.23852  0.48003  Biso   1.000  H
  N7       1.0000 0.45184  0.28593  0.51716  Biso   1.000  N
  C88      1.0000 0.68366  0.26341  0.49012  Biso   1.000  C
  C89      1.0000 0.52436  0.15262  0.49153  Biso   1.000  C
  H92      1.0000 0.86069  0.51966  0.48024  Biso   1.000  H
  H93      1.0000 0.78918  0.55065  0.48003  Biso   1.000  H
  N8       1.0000 0.83405  0.54816  0.51716  Biso   1.000  N
  C90      1.0000 0.84737  0.37177  0.49153  Biso   1.000  C
  C91      1.0000 0.37165  0.27273  0.52249  Biso   1.000  C
  H94      1.0000 0.48550  0.28955  0.53114  Biso   1.000  H
  C92      1.0000 0.70565  0.19091  0.49012  Biso   1.000  C
  H95      1.0000 0.54284  0.11781  0.50282  Biso   1.000  H
  H96      1.0000 0.47539  0.15354  0.50133  Biso   1.000  H
  C93      1.0000 0.49364  0.11052  0.46553  Biso   1.000  C
  C94      1.0000 0.90105  0.62834  0.52249  Biso   1.000  C
  H97      1.0000 0.80405  0.51454  0.53114  Biso   1.000  H
  H98      1.0000 0.88214  0.42503  0.50282  Biso   1.000  H
  H99      1.0000 0.84648  0.32186  0.50133  Biso   1.000  H
  C95      1.0000 0.88945  0.38313  0.46553  Biso   1.000  C
  C96      1.0000 0.34243  0.26321  0.54903  Biso   1.000  C
  C97      1.0000 0.31309  0.26755  0.50177  Biso   1.000  C
  H100     1.0000 0.65900  0.13935  0.48024  Biso   1.000  H
  H101     1.0000 0.76143  0.21081  0.48003  Biso   1.000  H
  N9       1.0000 0.71410  0.16595  0.51716  Biso   1.000  N
  H102     1.0000 0.44268  0.05195  0.46834  Biso   1.000  H
  H103     1.0000 0.54048  0.10501  0.45632  Biso   1.000  H
  H104     1.0000 0.47687  0.14546  0.45392  Biso   1.000  H
  C98      1.0000 0.92074  0.65750  0.54903  Biso   1.000  C
  C99      1.0000 0.95445  0.68692  0.50177  Biso   1.000  C
  H105     1.0000 0.94809  0.39074  0.46834  Biso   1.000  H
  H106     1.0000 0.89495  0.43540  0.45632  Biso   1.000  H
  H107     1.0000 0.85457  0.33144  0.45392  Biso   1.000  H
  C100     1.0000 0.26654  0.26203  0.55454  Biso   1.000  C
  S7       1.0000 0.41095  0.26932  0.57756  Biso   1.000  S
  C101     1.0000 0.24067  0.21836  0.55733  Biso   1.000  C
  C102     1.0000 0.23367  0.25645  0.50694  Biso   1.000  C
  H108     1.0000 0.33109  0.27214  0.48303  Biso   1.000  H
  C103     1.0000 0.72726  0.09890  0.52249  Biso   1.000  C
  H109     1.0000 0.71051  0.19596  0.53114  Biso   1.000  H
  C104     1.0000 0.99544  0.73342  0.55454  Biso   1.000  C
  S8       1.0000 0.85834  0.58901  0.57756  Biso   1.000  S
  C105     1.0000 0.97770  0.75936  0.55733  Biso   1.000  C
  H110     1.0000 0.94107  0.66893  0.48303  Biso   1.000  H
  C106     1.0000 0.02275  0.76632  0.50694  Biso   1.000  C
  H111     1.0000 0.24884  0.25881  0.57323  Biso   1.000  H
  C107     1.0000 0.20908  0.26551  0.53224  Biso   1.000  C
  C108     1.0000 0.19034  0.21711  0.53224  Biso   1.000  C
  S9       1.0000 0.47495  0.39731  0.58912  Biso   1.000  S
  H112     1.0000 0.21658  0.19623  0.57514  Biso   1.000  H
  H113     1.0000 0.19317  0.24154  0.49213  Biso   1.000  H
  C109     1.0000 0.73678  0.07927  0.54903  Biso   1.000  C
  C110     1.0000 0.73247  0.04551  0.50177  Biso   1.000  C
  H114     1.0000 0.00999  0.75115  0.57323  Biso   1.000  H
  C111     1.0000 0.05645  0.79095  0.53224  Biso   1.000  C
  C112     1.0000 0.02680  0.80966  0.53224  Biso   1.000  C
  S10      1.0000 0.92236  0.52504  0.58912  Biso   1.000  S
  H115     1.0000 0.97968  0.78346  0.57514  Biso   1.000  H
  H116     1.0000 0.04836  0.80684  0.49213  Biso   1.000  H
  H117     1.0000 0.16026  0.27332  0.53584  Biso   1.000  H
  H118     1.0000 0.12816  0.18966  0.53313  Biso   1.000  H
  C113     1.0000 0.41254  0.40342  0.61762  Biso   1.000  C
  C114     1.0000 0.73798  0.00453  0.55454  Biso   1.000  C
  S11      1.0000 0.73067  0.14165  0.57756  Biso   1.000  S
  C115     1.0000 0.78168  0.02233  0.55733  Biso   1.000  C
  H119     1.0000 0.72786  0.05891  0.48303  Biso   1.000  H
  C116     1.0000 0.74357  0.97728  0.50694  Biso   1.000  C
  H120     1.0000 0.11310  0.83974  0.53584  Biso   1.000  H
  H121     1.0000 0.06147  0.87185  0.53313  Biso   1.000  H
  C117     1.0000 0.99087  0.58743  0.61762  Biso   1.000  C
  C118     1.0000 0.33783  0.40460  0.61214  Biso   1.000  C
  C119     1.0000 0.43227  0.39396  0.64416  Biso   1.000  C
  C120     1.0000 0.35566  0.44834  0.60933  Biso   1.000  C
  H122     1.0000 0.74122  0.99008  0.57323  Biso   1.000  H
  C121     1.0000 0.73449  0.94352  0.53224  Biso   1.000  C
  C122     1.0000 0.78292  0.97327  0.53224  Biso   1.000  C
  S12      1.0000 0.60265  0.07762  0.58912  Biso   1.000  S
  H123     1.0000 0.80379  0.02036  0.57514  Biso   1.000  H
  H124     1.0000 0.75846  0.95167  0.49213  Biso   1.000  H
  C123     1.0000 0.96168  0.56773  0.64416  Biso   1.000  C
  C124     1.0000 0.06679  0.66216  0.61214  Biso   1.000  C
  C125     1.0000 0.09267  0.64430  0.60933  Biso   1.000  C
  H125     1.0000 0.32334  0.40782  0.59344  Biso   1.000  H
  C126     1.0000 0.27688  0.40112  0.63444  Biso   1.000  C
  C127     1.0000 0.30654  0.44952  0.63444  Biso   1.000  C
  C128     1.0000 0.37890  0.39915  0.66489  Biso   1.000  C
  N10      1.0000 0.49926  0.38076  0.64950  Biso   1.000  N
  H126     1.0000 0.35367  0.47040  0.59154  Biso   1.000  H
  H127     1.0000 0.72669  0.88698  0.53584  Biso   1.000  H
  H128     1.0000 0.81042  0.93853  0.53313  Biso   1.000  H
  C129     1.0000 0.59656  0.00913  0.61762  Biso   1.000  C
  N11      1.0000 0.88149  0.50074  0.64950  Biso   1.000  N
  C130     1.0000 0.02028  0.62112  0.66489  Biso   1.000  C
  H129     1.0000 0.08448  0.67661  0.59344  Biso   1.000  H
  C131     1.0000 0.12428  0.72311  0.63444  Biso   1.000  C
  C132     1.0000 0.14294  0.69342  0.63444  Biso   1.000  C
  H130     1.0000 0.11678  0.64634  0.59154  Biso   1.000  H
  H131     1.0000 0.22026  0.39331  0.63084  Biso   1.000  H
  C133     1.0000 0.31057  0.41025  0.65974  Biso   1.000  C
  H132     1.0000 0.27185  0.47704  0.63353  Biso   1.000  H
  H133     1.0000 0.39229  0.39455  0.68363  Biso   1.000  H
  C134     1.0000 0.52429  0.37236  0.67653  Biso   1.000  C
  H134     1.0000 0.52930  0.37715  0.63554  Biso   1.000  H
  C135     1.0000 0.60605  0.03835  0.64416  Biso   1.000  C
  C136     1.0000 0.59543  0.93328  0.61214  Biso   1.000  C
  C137     1.0000 0.55163  0.90734  0.60933  Biso   1.000  C
  C138     1.0000 0.84805  0.47572  0.67653  Biso   1.000  C
  H135     1.0000 0.84789  0.47073  0.63554  Biso   1.000  H
  C139     1.0000 0.09964  0.68942  0.65974  Biso   1.000  C
  H136     1.0000 0.00226  0.60772  0.68363  Biso   1.000  H
  H137     1.0000 0.17306  0.77972  0.63084  Biso   1.000  H
  H138     1.0000 0.20518  0.72816  0.63353  Biso   1.000  H
  H139     1.0000 0.28498  0.42516  0.67453  Biso   1.000  H
  H140     1.0000 0.47268  0.32566  0.68644  Biso   1.000  H
  H141     1.0000 0.54415  0.42811  0.68663  Biso   1.000  H
  C140     1.0000 0.59678  0.35036  0.67653  Biso   1.000  C
  N12      1.0000 0.61924  0.11854  0.64950  Biso   1.000  N
  C141     1.0000 0.60087  0.97977  0.66489  Biso   1.000  C
  H142     1.0000 0.59219  0.91555  0.59344  Biso   1.000  H
  C142     1.0000 0.59891  0.87575  0.63444  Biso   1.000  C
  C143     1.0000 0.55042  0.85703  0.63444  Biso   1.000  C
  H143     1.0000 0.52957  0.88324  0.59154  Biso   1.000  H
  H144     1.0000 0.85299  0.52734  0.68644  Biso   1.000  H
  H145     1.0000 0.88394  0.45583  0.68663  Biso   1.000  H
  C144     1.0000 0.75356  0.40322  0.67653  Biso   1.000  C
  H146     1.0000 0.14015  0.71503  0.67453  Biso   1.000  H
  C145     1.0000 0.57785  0.26610  0.67751  Biso   1.000  C
  C146     1.0000 0.68829  0.42214  0.67751  Biso   1.000  C
  C147     1.0000 0.62771  0.15196  0.67653  Biso   1.000  C
  H147     1.0000 0.62286  0.15216  0.63554  Biso   1.000  H
  C148     1.0000 0.58978  0.90038  0.65974  Biso   1.000  C
  H148     1.0000 0.60544  0.99777  0.68363  Biso   1.000  H
  H149     1.0000 0.60665  0.82696  0.63084  Biso   1.000  H
  H150     1.0000 0.52297  0.79484  0.63353  Biso   1.000  H
  C149     1.0000 0.73387  0.31174  0.67751  Biso   1.000  C
  C150     1.0000 0.64971  0.24646  0.67653  Biso   1.000  C
  C151     1.0000 0.48595  0.19104  0.67513  Biso   1.000  C
  C152     1.0000 0.70505  0.51401  0.67513  Biso   1.000  C
  H151     1.0000 0.67438  0.14704  0.68644  Biso   1.000  H
  H152     1.0000 0.57187  0.11604  0.68663  Biso   1.000  H
  H153     1.0000 0.57493  0.85986  0.67453  Biso   1.000  H
  C153     1.0000 0.80896  0.29493  0.67513  Biso   1.000  C
  H154     1.0000 0.45119  0.20956  0.66383  Biso   1.000  H
  H155     1.0000 0.48688  0.14205  0.66534  Biso   1.000  H
  C154     1.0000 0.44386  0.16030  0.70113  Biso   1.000  C
  H156     1.0000 0.75834  0.54882  0.66383  Biso   1.000  H
  H157     1.0000 0.65520  0.51316  0.66534  Biso   1.000  H
  C155     1.0000 0.71643  0.55611  0.70113  Biso   1.000  C
  H158     1.0000 0.79043  0.24161  0.66383  Biso   1.000  H
  H159     1.0000 0.85797  0.34484  0.66534  Biso   1.000  H
  C156     1.0000 0.83964  0.28350  0.70113  Biso   1.000  C
  H160     1.0000 0.38527  0.10934  0.69833  Biso   1.000  H
  H161     1.0000 0.43838  0.20713  0.71033  Biso   1.000  H
  H162     1.0000 0.47876  0.14356  0.71273  Biso   1.000  H
  H163     1.0000 0.72408  0.61475  0.69833  Biso   1.000  H
  H164     1.0000 0.76878  0.56162  0.71033  Biso   1.000  H
  H165     1.0000 0.66476  0.52123  0.71273  Biso   1.000  H
  H166     1.0000 0.89069  0.27595  0.69833  Biso   1.000  H
  H167     1.0000 0.79286  0.23123  0.71033  Biso   1.000  H
  H168     1.0000 0.85647  0.33525  0.71273  Biso   1.000  H
  C157     1.0000 0.56702  0.64391  0.67360  Biso   1.000  C
  C158     1.0000 0.54238  0.61022  0.69889  Biso   1.000  C
  H169     1.0000 0.52652  0.61830  0.65881  Biso   1.000  H
  C159     1.0000 0.64638  0.71221  0.66845  Biso   1.000  C
  C160     1.0000 0.52373  0.63990  0.69889  Biso   1.000  C
  C161     1.0000 0.59990  0.67123  0.72119  Biso   1.000  C
  H170     1.0000 0.49361  0.55361  0.70249  Biso   1.000  H
  C162     1.0000 0.57400  0.68902  0.72400  Biso   1.000  C
  H171     1.0000 0.66440  0.72560  0.64971  Biso   1.000  H
  C163     1.0000 0.70498  0.76560  0.68917  Biso   1.000  C
  H172     1.0000 0.46152  0.60523  0.69980  Biso   1.000  H
  C164     1.0000 0.67580  0.74590  0.71571  Biso   1.000  C
  H173     1.0000 0.58218  0.65671  0.73989  Biso   1.000  H
  H174     1.0000 0.54989  0.68699  0.74179  Biso   1.000  H
  N13      1.0000 0.78517  0.83258  0.68383  Biso   1.000  N
  S13      1.0000 0.74430  0.80828  0.74421  Biso   1.000  S
  C165     1.0000 0.81861  0.85760  0.65680  Biso   1.000  C
  H175     1.0000 0.81877  0.86259  0.69780  Biso   1.000  H
  S14      1.0000 0.80832  0.74432  0.75578  Biso   1.000  S
  H176     1.0000 0.81367  0.80599  0.64689  Biso   1.000  H
  H177     1.0000 0.78272  0.87750  0.64671  Biso   1.000  H
  C166     1.0000 0.91310  0.93010  0.65680  Biso   1.000  C
  C167     1.0000 0.74592  0.67582  0.78430  Biso   1.000  C
  C168     1.0000 0.97837  0.91119  0.65583  Biso   1.000  C
  C169     1.0000 0.93279  0.02158  0.65583  Biso   1.000  C
  C170     1.0000 0.67122  0.59991  0.77880  Biso   1.000  C
  C171     1.0000 0.76562  0.70498  0.81084  Biso   1.000  C
  C172     1.0000 0.68896  0.57397  0.77601  Biso   1.000  C
  C173     1.0000 0.96161  0.81932  0.65821  Biso   1.000  C
  C174     1.0000 0.06988  0.98297  0.65680  Biso   1.000  C
  C175     1.0000 0.85771  0.03840  0.65821  Biso   1.000  C
  C176     1.0000 0.01696  0.08686  0.65680  Biso   1.000  C
  H178     1.0000 0.65667  0.58218  0.76010  Biso   1.000  H
  C177     1.0000 0.61021  0.54238  0.80110  Biso   1.000  C
  C178     1.0000 0.63990  0.52373  0.80110  Biso   1.000  C
  C179     1.0000 0.71221  0.64640  0.83156  Biso   1.000  C
  N14      1.0000 0.83261  0.78517  0.81618  Biso   1.000  N
  H179     1.0000 0.68701  0.54993  0.75820  Biso   1.000  H
  H180     1.0000 0.90832  0.78451  0.66950  Biso   1.000  H
  C180     1.0000 0.95023  0.77722  0.63221  Biso   1.000  C
  H181     1.0000 0.01146  0.82017  0.66799  Biso   1.000  H
  C181     1.0000 0.14237  0.96097  0.65680  Biso   1.000  C
  C182     1.0000 0.08878  0.06716  0.65583  Biso   1.000  C
  H182     1.0000 0.80869  0.98849  0.66799  Biso   1.000  H
  H183     1.0000 0.87620  0.09166  0.66950  Biso   1.000  H
  C183     1.0000 0.82693  0.04976  0.63221  Biso   1.000  C
  C184     1.0000 0.03901  0.18136  0.65680  Biso   1.000  C
  H184     1.0000 0.55357  0.49359  0.79750  Biso   1.000  H
  C185     1.0000 0.64391  0.56701  0.82639  Biso   1.000  C
  H185     1.0000 0.60519  0.46147  0.80021  Biso   1.000  H
  H186     1.0000 0.72559  0.66440  0.85031  Biso   1.000  H
  C186     1.0000 0.85757  0.81859  0.84321  Biso   1.000  C
  H187     1.0000 0.86262  0.81879  0.80219  Biso   1.000  H
  H188     1.0000 0.94258  0.71858  0.63500  Biso   1.000  H
  H189     1.0000 0.89788  0.77170  0.62300  Biso   1.000  H
  H190     1.0000 0.00191  0.81209  0.62060  Biso   1.000  H
  H191     1.0000 0.12252  0.90521  0.64671  Biso   1.000  H
  N15      1.0000 0.16744  0.95263  0.68383  Biso   1.000  N
  H192     1.0000 0.19393  0.00766  0.64689  Biso   1.000  H
  C187     1.0000 0.18065  0.14229  0.65821  Biso   1.000  C
  H193     1.0000 0.81019  0.99807  0.62060  Biso   1.000  H
  H194     1.0000 0.77597  0.05738  0.63500  Biso   1.000  H
  H195     1.0000 0.87380  0.10210  0.62300  Biso   1.000  H
  H196     1.0000 0.99234  0.18629  0.64689  Biso   1.000  H
  H197     1.0000 0.09474  0.21729  0.64671  Biso   1.000  H
  N16      1.0000 0.04742  0.21479  0.68383  Biso   1.000  N
  H198     1.0000 0.61830  0.52649  0.84120  Biso   1.000  H
  H199     1.0000 0.80597  0.81367  0.85310  Biso   1.000  H
  H200     1.0000 0.87749  0.78267  0.85330  Biso   1.000  H
  C188     1.0000 0.93007  0.91310  0.84321  Biso   1.000  C
  C189     1.0000 0.23443  0.93943  0.68917  Biso   1.000  C
  H201     1.0000 0.13736  0.95618  0.69780  Biso   1.000  H
  H202     1.0000 0.21547  0.12377  0.66950  Biso   1.000  H
  H203     1.0000 0.17978  0.19128  0.66799  Biso   1.000  H
  C190     1.0000 0.22278  0.17296  0.63221  Biso   1.000  C
  C191     1.0000 0.06056  0.29497  0.68917  Biso   1.000  C
  H204     1.0000 0.04375  0.18117  0.69780  Biso   1.000  H
  C192     1.0000 0.91118  0.97837  0.84416  Biso   1.000  C
  C193     1.0000 0.02159  0.93280  0.84416  Biso   1.000  C
  C194     1.0000 0.25412  0.92991  0.71571  Biso   1.000  C
  C195     1.0000 0.28777  0.93418  0.66845  Biso   1.000  C
  H205     1.0000 0.28145  0.22398  0.63500  Biso   1.000  H
  H206     1.0000 0.22834  0.12620  0.62300  Biso   1.000  H
  H207     1.0000 0.18790  0.18977  0.62060  Biso   1.000  H
  C196     1.0000 0.07005  0.32420  0.71571  Biso   1.000  C
  C197     1.0000 0.06579  0.35355  0.66845  Biso   1.000  C
  C198     1.0000 0.81932  0.96163  0.84180  Biso   1.000  C
  C199     1.0000 0.98297  0.06985  0.84321  Biso   1.000  C
  C200     1.0000 0.03840  0.85767  0.84180  Biso   1.000  C
  C201     1.0000 0.08695  0.01699  0.84321  Biso   1.000  C
  C202     1.0000 0.32883  0.92873  0.72119  Biso   1.000  C
  S15      1.0000 0.19172  0.93601  0.74421  Biso   1.000  S
  C203     1.0000 0.31100  0.88499  0.72400  Biso   1.000  C
  C204     1.0000 0.35610  0.92308  0.67360  Biso   1.000  C
  H208     1.0000 0.27437  0.93877  0.64971  Biso   1.000  H
  C205     1.0000 0.07124  0.40005  0.72119  Biso   1.000  C
  S16      1.0000 0.06395  0.25570  0.74421  Biso   1.000  S
  C206     1.0000 0.11503  0.42599  0.72400  Biso   1.000  C
  C207     1.0000 0.07688  0.43295  0.67360  Biso   1.000  C
  H209     1.0000 0.06123  0.33556  0.64971  Biso   1.000  H
  H210     1.0000 0.78453  0.90830  0.83051  Biso   1.000  H
  C208     1.0000 0.77721  0.95020  0.86780  Biso   1.000  C
  H211     1.0000 0.82019  0.01147  0.83200  Biso   1.000  H
  C209     1.0000 0.96099  0.14235  0.84321  Biso   1.000  C
  C210     1.0000 0.06722  0.08877  0.84416  Biso   1.000  C
  H212     1.0000 0.98848  0.80868  0.83200  Biso   1.000  H
  H213     1.0000 0.09168  0.87619  0.83051  Biso   1.000  H
  C211     1.0000 0.04980  0.82700  0.86780  Biso   1.000  C
  C212     1.0000 0.18144  0.03899  0.84321  Biso   1.000  C
  H214     1.0000 0.34332  0.92551  0.73989  Biso   1.000  H
  C213     1.0000 0.38978  0.93221  0.69889  Biso   1.000  C
  C214     1.0000 0.36012  0.88381  0.69889  Biso   1.000  C
  S17      1.0000 0.25571  0.06401  0.75578  Biso   1.000  S
  H215     1.0000 0.31299  0.86292  0.74179  Biso   1.000  H
  H216     1.0000 0.38169  0.90817  0.65881  Biso   1.000  H
  H217     1.0000 0.07447  0.41778  0.73989  Biso   1.000  H
  C215     1.0000 0.06775  0.45758  0.69889  Biso   1.000  C
  C216     1.0000 0.11618  0.47629  0.69889  Biso   1.000  C
  S18      1.0000 0.93599  0.19167  0.75578  Biso   1.000  S
  H218     1.0000 0.13709  0.45009  0.74179  Biso   1.000  H
  H219     1.0000 0.09174  0.47347  0.65881  Biso   1.000  H
  H220     1.0000 0.71858  0.94258  0.86499  Biso   1.000  H
  H221     1.0000 0.77172  0.89793  0.87701  Biso   1.000  H
  H222     1.0000 0.81209  0.00188  0.87941  Biso   1.000  H
  H223     1.0000 0.90520  0.12246  0.85330  Biso   1.000  H
  N17      1.0000 0.95262  0.16738  0.81618  Biso   1.000  N
  H224     1.0000 0.00767  0.19397  0.85310  Biso   1.000  H
  C217     1.0000 0.14225  0.18071  0.84180  Biso   1.000  C
  H225     1.0000 0.99811  0.81019  0.87941  Biso   1.000  H
  H226     1.0000 0.05738  0.77597  0.86499  Biso   1.000  H
  H227     1.0000 0.10210  0.87382  0.87701  Biso   1.000  H
  H228     1.0000 0.18630  0.99230  0.85310  Biso   1.000  H
  H229     1.0000 0.21726  0.09481  0.85330  Biso   1.000  H
  N18      1.0000 0.21482  0.04739  0.81618  Biso   1.000  N
  H230     1.0000 0.44641  0.94002  0.70249  Biso   1.000  H
  H231     1.0000 0.39482  0.85629  0.69980  Biso   1.000  H
  C218     1.0000 0.32420  0.07005  0.78430  Biso   1.000  C
  H232     1.0000 0.05996  0.50637  0.70249  Biso   1.000  H
  H233     1.0000 0.14364  0.53848  0.69980  Biso   1.000  H
  C219     1.0000 0.92988  0.25406  0.78430  Biso   1.000  C
  C220     1.0000 0.93937  0.23436  0.81084  Biso   1.000  C
  H234     1.0000 0.95622  0.13736  0.80219  Biso   1.000  H
  H235     1.0000 0.12373  0.21545  0.83051  Biso   1.000  H
  H236     1.0000 0.19133  0.17979  0.83200  Biso   1.000  H
  C221     1.0000 0.17297  0.22280  0.86780  Biso   1.000  C
  C222     1.0000 0.29496  0.06059  0.81084  Biso   1.000  C
  H237     1.0000 0.18116  0.04378  0.80219  Biso   1.000  H
  C223     1.0000 0.40012  0.07130  0.77880  Biso   1.000  C
  C224     1.0000 0.42599  0.11497  0.77601  Biso   1.000  C
  C225     1.0000 0.92869  0.32880  0.77880  Biso   1.000  C
  C226     1.0000 0.88498  0.31100  0.77601  Biso   1.000  C
  C227     1.0000 0.93416  0.28775  0.83156  Biso   1.000  C
  H238     1.0000 0.22404  0.28138  0.86499  Biso   1.000  H
  H239     1.0000 0.12621  0.22825  0.87701  Biso   1.000  H
  H240     1.0000 0.18974  0.18786  0.87941  Biso   1.000  H
  C228     1.0000 0.35363  0.06578  0.83156  Biso   1.000  C
  H241     1.0000 0.41773  0.07445  0.76010  Biso   1.000  H
  C229     1.0000 0.45755  0.06775  0.80110  Biso   1.000  C
  C230     1.0000 0.47629  0.11615  0.80110  Biso   1.000  C
  H242     1.0000 0.45014  0.13710  0.75820  Biso   1.000  H
  H243     1.0000 0.92548  0.34331  0.76010  Biso   1.000  H
  C231     1.0000 0.93223  0.38980  0.80110  Biso   1.000  C
  C232     1.0000 0.88380  0.36006  0.80110  Biso   1.000  C
  H244     1.0000 0.86293  0.31297  0.75820  Biso   1.000  H
  C233     1.0000 0.92309  0.35605  0.82639  Biso   1.000  C
  H245     1.0000 0.93878  0.27435  0.85031  Biso   1.000  H
  C234     1.0000 0.43300  0.07688  0.82639  Biso   1.000  C
  H246     1.0000 0.33563  0.06118  0.85031  Biso   1.000  H
  H247     1.0000 0.50646  0.06000  0.79750  Biso   1.000  H
  H248     1.0000 0.53851  0.14367  0.80021  Biso   1.000  H
  H249     1.0000 0.93997  0.44635  0.79750  Biso   1.000  H
  H250     1.0000 0.85624  0.39480  0.80021  Biso   1.000  H
  H251     1.0000 0.90814  0.38166  0.84120  Biso   1.000  H
  H252     1.0000 0.47344  0.09179  0.84120  Biso   1.000  H
  C235     1.0000 0.17299  0.95020  0.36779  Biso   1.000  C
  C236     1.0000 0.14230  0.96163  0.34179  Biso   1.000  C
  H253     1.0000 0.22401  0.94258  0.36500  Biso   1.000  H
  H254     1.0000 0.12621  0.89793  0.37700  Biso   1.000  H
  H255     1.0000 0.18979  0.00188  0.37940  Biso   1.000  H
  C237     1.0000 0.06719  0.97837  0.34417  Biso   1.000  C
  H256     1.0000 0.12377  0.90830  0.33050  Biso   1.000  H
  H257     1.0000 0.19128  0.01147  0.33201  Biso   1.000  H
  C238     1.0000 0.98302  0.91310  0.34320  Biso   1.000  C
  C239     1.0000 0.08688  0.06985  0.34320  Biso   1.000  C
  C240     1.0000 0.96102  0.81859  0.34320  Biso   1.000  C
  C241     1.0000 0.91120  0.93280  0.34417  Biso   1.000  C
  C242     1.0000 0.18137  0.14235  0.34320  Biso   1.000  C
  C243     1.0000 0.02155  0.08877  0.34417  Biso   1.000  C
  N19      1.0000 0.95256  0.78517  0.31617  Biso   1.000  N
  H258     1.0000 0.00770  0.81367  0.35311  Biso   1.000  H
  H259     1.0000 0.90518  0.78267  0.35329  Biso   1.000  H
  C244     1.0000 0.81927  0.85767  0.34179  Biso   1.000  C
  C245     1.0000 0.93004  0.01699  0.34320  Biso   1.000  C
  H260     1.0000 0.18631  0.19397  0.35311  Biso   1.000  H
  H261     1.0000 0.21726  0.12246  0.35329  Biso   1.000  H
  N20      1.0000 0.21475  0.16738  0.31617  Biso   1.000  N
  C246     1.0000 0.03846  0.18071  0.34179  Biso   1.000  C
  C247     1.0000 0.93937  0.70498  0.31083  Biso   1.000  C
  H262     1.0000 0.95617  0.81879  0.30220  Biso   1.000  H
  H263     1.0000 0.78451  0.87619  0.33050  Biso   1.000  H
  H264     1.0000 0.82020  0.80868  0.33201  Biso   1.000  H
  C248     1.0000 0.77720  0.82700  0.36779  Biso   1.000  C
  C249     1.0000 0.85755  0.03899  0.34320  Biso   1.000  C
  C250     1.0000 0.29499  0.23436  0.31083  Biso   1.000  C
  H265     1.0000 0.18115  0.13736  0.30220  Biso   1.000  H
  H266     1.0000 0.98846  0.17979  0.33201  Biso   1.000  H
  H267     1.0000 0.09171  0.21545  0.33050  Biso   1.000  H
  C251     1.0000 0.04984  0.22280  0.36779  Biso   1.000  C
  C252     1.0000 0.92990  0.67582  0.28429  Biso   1.000  C
  C253     1.0000 0.93419  0.64640  0.33155  Biso   1.000  C
  H268     1.0000 0.71859  0.77597  0.36500  Biso   1.000  H
  H269     1.0000 0.77172  0.87382  0.37700  Biso   1.000  H
  H270     1.0000 0.81208  0.81019  0.37940  Biso   1.000  H
  H271     1.0000 0.80599  0.99230  0.35311  Biso   1.000  H
  H272     1.0000 0.87755  0.09481  0.35329  Biso   1.000  H
  N21      1.0000 0.83257  0.04739  0.31617  Biso   1.000  N
  C254     1.0000 0.32418  0.25406  0.28429  Biso   1.000  C
  C255     1.0000 0.35360  0.28775  0.33155  Biso   1.000  C
  H273     1.0000 0.99813  0.18786  0.37940  Biso   1.000  H
  H274     1.0000 0.05734  0.28138  0.36500  Biso   1.000  H
  H275     1.0000 0.10204  0.22825  0.37700  Biso   1.000  H
  S19      1.0000 0.93600  0.74432  0.25579  Biso   1.000  S
  C256     1.0000 0.92869  0.59991  0.27881  Biso   1.000  C
  C257     1.0000 0.88500  0.57397  0.27600  Biso   1.000  C
  C258     1.0000 0.92310  0.56701  0.32640  Biso   1.000  C
  H276     1.0000 0.93881  0.66440  0.35029  Biso   1.000  H
  C259     1.0000 0.76564  0.06059  0.31083  Biso   1.000  C
  H277     1.0000 0.86262  0.04378  0.30220  Biso   1.000  H
  S20      1.0000 0.25568  0.19167  0.25579  Biso   1.000  S
  C260     1.0000 0.40011  0.32880  0.27881  Biso   1.000  C
  C261     1.0000 0.42602  0.31100  0.27600  Biso   1.000  C
  C262     1.0000 0.43296  0.35605  0.32640  Biso   1.000  C
  H278     1.0000 0.33558  0.27435  0.35029  Biso   1.000  H
  S21      1.0000 0.06398  0.80828  0.24422  Biso   1.000  S
  H279     1.0000 0.92551  0.58218  0.26011  Biso   1.000  H
  C263     1.0000 0.93217  0.54238  0.30111  Biso   1.000  C
  C264     1.0000 0.88383  0.52373  0.30111  Biso   1.000  C
  H280     1.0000 0.86292  0.54993  0.25821  Biso   1.000  H
  H281     1.0000 0.90819  0.52649  0.34119  Biso   1.000  H
  C265     1.0000 0.74585  0.07005  0.28429  Biso   1.000  C
  C266     1.0000 0.71215  0.06578  0.33155  Biso   1.000  C
  S22      1.0000 0.19175  0.25570  0.24422  Biso   1.000  S
  H282     1.0000 0.41783  0.34331  0.26011  Biso   1.000  H
  C267     1.0000 0.45757  0.38980  0.30111  Biso   1.000  C
  C268     1.0000 0.47625  0.36006  0.30111  Biso   1.000  C
  H283     1.0000 0.45003  0.31297  0.25821  Biso   1.000  H
  H284     1.0000 0.47352  0.38166  0.34119  Biso   1.000  H
  C269     1.0000 0.07010  0.74590  0.21570  Biso   1.000  C
  H285     1.0000 0.94002  0.49359  0.29751  Biso   1.000  H
  H286     1.0000 0.85628  0.46147  0.30020  Biso   1.000  H
  S23      1.0000 0.80829  0.06401  0.25579  Biso   1.000  S
  C270     1.0000 0.67118  0.07130  0.27881  Biso   1.000  C
  C271     1.0000 0.68898  0.11497  0.27600  Biso   1.000  C
  C272     1.0000 0.64388  0.07688  0.32640  Biso   1.000  C
  H287     1.0000 0.72555  0.06118  0.35029  Biso   1.000  H
  C273     1.0000 0.25415  0.32420  0.21570  Biso   1.000  C
  H288     1.0000 0.50637  0.44635  0.29751  Biso   1.000  H
  H289     1.0000 0.53855  0.39480  0.30020  Biso   1.000  H
  C274     1.0000 0.07132  0.67123  0.22120  Biso   1.000  C
  C275     1.0000 0.11503  0.68902  0.22399  Biso   1.000  C
  C276     1.0000 0.06061  0.76560  0.18916  Biso   1.000  C
  S24      1.0000 0.74430  0.93601  0.24422  Biso   1.000  S
  H290     1.0000 0.65672  0.07445  0.26011  Biso   1.000  H
  C277     1.0000 0.61020  0.06775  0.30111  Biso   1.000  C
  C278     1.0000 0.63986  0.11615  0.30111  Biso   1.000  C
  H291     1.0000 0.68696  0.13710  0.25821  Biso   1.000  H
  H292     1.0000 0.61835  0.09179  0.34119  Biso   1.000  H
  C279     1.0000 0.23442  0.29497  0.18916  Biso   1.000  C
  C280     1.0000 0.32881  0.40005  0.22120  Biso   1.000  C
  C281     1.0000 0.31096  0.42599  0.22399  Biso   1.000  C
  C282     1.0000 0.11617  0.63990  0.19890  Biso   1.000  C
  H293     1.0000 0.07453  0.65671  0.23990  Biso   1.000  H
  C283     1.0000 0.06783  0.61022  0.19890  Biso   1.000  C
  H294     1.0000 0.13710  0.68699  0.24180  Biso   1.000  H
  C284     1.0000 0.06582  0.71221  0.16844  Biso   1.000  C
  N22      1.0000 0.04741  0.83258  0.18382  Biso   1.000  N
  C285     1.0000 0.67578  0.92991  0.21570  Biso   1.000  C
  H295     1.0000 0.55355  0.06000  0.29751  Biso   1.000  H
  H296     1.0000 0.60516  0.14367  0.30020  Biso   1.000  H
  N23      1.0000 0.16737  0.21479  0.18382  Biso   1.000  N
  C286     1.0000 0.28776  0.35355  0.16844  Biso   1.000  C
  H297     1.0000 0.34331  0.41778  0.23990  Biso   1.000  H
  C287     1.0000 0.38982  0.45758  0.19890  Biso   1.000  C
  C288     1.0000 0.36011  0.47629  0.19890  Biso   1.000  C
  H298     1.0000 0.31300  0.45009  0.24180  Biso   1.000  H
  C289     1.0000 0.07689  0.64391  0.17361  Biso   1.000  C
  H299     1.0000 0.14371  0.60523  0.19979  Biso   1.000  H
  H300     1.0000 0.06000  0.55361  0.20250  Biso   1.000  H
  H301     1.0000 0.06120  0.72560  0.14969  Biso   1.000  H
  C290     1.0000 0.03899  0.85760  0.15679  Biso   1.000  C
  H302     1.0000 0.04382  0.86259  0.19781  Biso   1.000  H
  C291     1.0000 0.70500  0.93943  0.18916  Biso   1.000  C
  C292     1.0000 0.59989  0.92873  0.22120  Biso   1.000  C
  C293     1.0000 0.57398  0.88499  0.22399  Biso   1.000  C
  C294     1.0000 0.14235  0.18136  0.15679  Biso   1.000  C
  H303     1.0000 0.13742  0.18117  0.19781  Biso   1.000  H
  C295     1.0000 0.35607  0.43295  0.17361  Biso   1.000  C
  H304     1.0000 0.27433  0.33556  0.14969  Biso   1.000  H
  H305     1.0000 0.44641  0.50637  0.20250  Biso   1.000  H
  H306     1.0000 0.39485  0.53848  0.19979  Biso   1.000  H
  H307     1.0000 0.09178  0.61830  0.15880  Biso   1.000  H
  H308     1.0000 0.09478  0.87750  0.14670  Biso   1.000  H
  C296     1.0000 0.01701  0.93010  0.15679  Biso   1.000  C
  H309     1.0000 0.99231  0.80599  0.14690  Biso   1.000  H
  N24      1.0000 0.78519  0.95263  0.18382  Biso   1.000  N
  C297     1.0000 0.64641  0.93418  0.16844  Biso   1.000  C
  H310     1.0000 0.58219  0.92551  0.23990  Biso   1.000  H
  C298     1.0000 0.54243  0.93221  0.19890  Biso   1.000  C
  C299     1.0000 0.52369  0.88381  0.19890  Biso   1.000  C
  H311     1.0000 0.54993  0.86292  0.24180  Biso   1.000  H
  C300     1.0000 0.06991  0.08686  0.15679  Biso   1.000  C
  H312     1.0000 0.19395  0.18629  0.14690  Biso   1.000  H
  H313     1.0000 0.12255  0.21729  0.14670  Biso   1.000  H
  H314     1.0000 0.38173  0.47347  0.15880  Biso   1.000  H
  C301     1.0000 0.93282  0.91119  0.15584  Biso   1.000  C
  C302     1.0000 0.08879  0.02158  0.15584  Biso   1.000  C
  C303     1.0000 0.81860  0.96097  0.15679  Biso   1.000  C
  H315     1.0000 0.81881  0.95618  0.19781  Biso   1.000  H
  C304     1.0000 0.56698  0.92308  0.17361  Biso   1.000  C
  H316     1.0000 0.66440  0.93877  0.14969  Biso   1.000  H
  H317     1.0000 0.49361  0.94002  0.20250  Biso   1.000  H
  H318     1.0000 0.46147  0.85629  0.19979  Biso   1.000  H
  C305     1.0000 0.97838  0.06716  0.15584  Biso   1.000  C
  C306     1.0000 0.91309  0.98297  0.15679  Biso   1.000  C
  C307     1.0000 0.85770  0.81932  0.15820  Biso   1.000  C
  C308     1.0000 0.18069  0.03840  0.15820  Biso   1.000  C
  H319     1.0000 0.78270  0.90521  0.14670  Biso   1.000  H
  H320     1.0000 0.81373  0.00766  0.14690  Biso   1.000  H
  H321     1.0000 0.52648  0.90817  0.15880  Biso   1.000  H
  C309     1.0000 0.96164  0.14229  0.15820  Biso   1.000  C
  H322     1.0000 0.87619  0.78451  0.16949  Biso   1.000  H
  H323     1.0000 0.80871  0.82017  0.16800  Biso   1.000  H
  C310     1.0000 0.82699  0.77722  0.13220  Biso   1.000  C
  H324     1.0000 0.17979  0.98849  0.16800  Biso   1.000  H
  H325     1.0000 0.21545  0.09166  0.16949  Biso   1.000  H
  C311     1.0000 0.22283  0.04976  0.13220  Biso   1.000  C
  H326     1.0000 0.90830  0.12377  0.16949  Biso   1.000  H
  C312     1.0000 0.95018  0.17296  0.13220  Biso   1.000  C
  H327     1.0000 0.01150  0.19128  0.16800  Biso   1.000  H
  H328     1.0000 0.77600  0.71858  0.13501  Biso   1.000  H
  H329     1.0000 0.87382  0.77170  0.12299  Biso   1.000  H
  H330     1.0000 0.81019  0.81209  0.12059  Biso   1.000  H
  H331     1.0000 0.18788  0.99807  0.12059  Biso   1.000  H
  H332     1.0000 0.28140  0.05738  0.13501  Biso   1.000  H
  H333     1.0000 0.22829  0.10210  0.12299  Biso   1.000  H
  H334     1.0000 0.94254  0.22398  0.13501  Biso   1.000  H
  H335     1.0000 0.89785  0.12620  0.12299  Biso   1.000  H
  H336     1.0000 0.00187  0.18977  0.12059  Biso   1.000  H
  C313     1.0000 0.55616  0.71648  0.79886  Biso   1.000  C
  C314     1.0000 0.51404  0.70505  0.82486  Biso   1.000  C
  H337     1.0000 0.61473  0.72409  0.80168  Biso   1.000  H
  H338     1.0000 0.56165  0.76875  0.78966  Biso   1.000  H
  H339     1.0000 0.52127  0.66479  0.78726  Biso   1.000  H
  C315     1.0000 0.42209  0.68824  0.82250  Biso   1.000  C
  H340     1.0000 0.54884  0.75837  0.83616  Biso   1.000  H
  H341     1.0000 0.51315  0.65514  0.83467  Biso   1.000  H
  C316     1.0000 0.35030  0.59676  0.82346  Biso   1.000  C
  C317     1.0000 0.40324  0.75358  0.82346  Biso   1.000  C
  C318     1.0000 0.26612  0.57784  0.82250  Biso   1.000  C
  C319     1.0000 0.37235  0.52425  0.82346  Biso   1.000  C
  C320     1.0000 0.31172  0.73388  0.82250  Biso   1.000  C
  C321     1.0000 0.47574  0.84808  0.82346  Biso   1.000  C
  C322     1.0000 0.19106  0.48597  0.82486  Biso   1.000  C
  C323     1.0000 0.24642  0.64969  0.82346  Biso   1.000  C
  H342     1.0000 0.32561  0.47264  0.81357  Biso   1.000  H
  H343     1.0000 0.42814  0.54415  0.81336  Biso   1.000  H
  N25      1.0000 0.38071  0.49923  0.85049  Biso   1.000  N
  C324     1.0000 0.29493  0.80894  0.82486  Biso   1.000  C
  H344     1.0000 0.52731  0.85294  0.81357  Biso   1.000  H
  H345     1.0000 0.45585  0.88394  0.81336  Biso   1.000  H
  N26      1.0000 0.50072  0.88144  0.85049  Biso   1.000  N
  C325     1.0000 0.16034  0.44387  0.79886  Biso   1.000  C
  H346     1.0000 0.20954  0.45116  0.83616  Biso   1.000  H
  H347     1.0000 0.14204  0.48689  0.83467  Biso   1.000  H
  C326     1.0000 0.15193  0.62769  0.82346  Biso   1.000  C
  C327     1.0000 0.39391  0.43225  0.85583  Biso   1.000  C
  H348     1.0000 0.37712  0.52925  0.86447  Biso   1.000  H
  H349     1.0000 0.24163  0.79049  0.83616  Biso   1.000  H
  H350     1.0000 0.34483  0.85800  0.83467  Biso   1.000  H
  C328     1.0000 0.28351  0.83967  0.79886  Biso   1.000  C
  C329     1.0000 0.56775  0.96169  0.85583  Biso   1.000  C
  H351     1.0000 0.47075  0.84788  0.86447  Biso   1.000  H
  H352     1.0000 0.10933  0.38529  0.80168  Biso   1.000  H
  H353     1.0000 0.20712  0.43836  0.78966  Biso   1.000  H
  H354     1.0000 0.14354  0.47874  0.78726  Biso   1.000  H
  H355     1.0000 0.14706  0.67438  0.81357  Biso   1.000  H
  H356     1.0000 0.11605  0.57187  0.81336  Biso   1.000  H
  N27      1.0000 0.11855  0.61928  0.85049  Biso   1.000  N
  C330     1.0000 0.40340  0.41255  0.88237  Biso   1.000  C
  C331     1.0000 0.39912  0.37886  0.83510  Biso   1.000  C
  H357     1.0000 0.27589  0.89064  0.80168  Biso   1.000  H
  H358     1.0000 0.23121  0.79285  0.78966  Biso   1.000  H
  H359     1.0000 0.33526  0.85649  0.78726  Biso   1.000  H
  C332     1.0000 0.58745  0.99085  0.88237  Biso   1.000  C
  C333     1.0000 0.62115  0.02027  0.83510  Biso   1.000  C
  C334     1.0000 0.03835  0.60608  0.85583  Biso   1.000  C
  H360     1.0000 0.15215  0.62289  0.86447  Biso   1.000  H
  C335     1.0000 0.40462  0.33788  0.88787  Biso   1.000  C
  S25      1.0000 0.39734  0.47494  0.91089  Biso   1.000  S
  C336     1.0000 0.44833  0.35568  0.89066  Biso   1.000  C
  C337     1.0000 0.41024  0.31056  0.84027  Biso   1.000  C
  H361     1.0000 0.39450  0.39226  0.81636  Biso   1.000  H
  S26      1.0000 0.52505  0.92236  0.91089  Biso   1.000  S
  C338     1.0000 0.66214  0.06677  0.88787  Biso   1.000  C
  C339     1.0000 0.64437  0.09264  0.89066  Biso   1.000  C
  C340     1.0000 0.68940  0.09967  0.84027  Biso   1.000  C
  H362     1.0000 0.60778  0.00228  0.81636  Biso   1.000  H
  C341     1.0000 0.00914  0.59656  0.88237  Biso   1.000  C
  C342     1.0000 0.97974  0.60089  0.83510  Biso   1.000  C
  H363     1.0000 0.40783  0.32337  0.90657  Biso   1.000  H
  C343     1.0000 0.40113  0.27687  0.86557  Biso   1.000  C
  C344     1.0000 0.44953  0.30655  0.86557  Biso   1.000  C
  S27      1.0000 0.26935  0.41097  0.92245  Biso   1.000  S
  H364     1.0000 0.47040  0.35364  0.90847  Biso   1.000  H
  H365     1.0000 0.42513  0.28495  0.82546  Biso   1.000  H
  S28      1.0000 0.58907  0.85839  0.92245  Biso   1.000  S
  H366     1.0000 0.67666  0.08443  0.90657  Biso   1.000  H
  C345     1.0000 0.72307  0.12423  0.86557  Biso   1.000  C
  C346     1.0000 0.69341  0.14295  0.86557  Biso   1.000  C
  H367     1.0000 0.64630  0.11674  0.90847  Biso   1.000  H
  H368     1.0000 0.71503  0.14012  0.82546  Biso   1.000  H
  S29      1.0000 0.07765  0.60267  0.91089  Biso   1.000  S
  C347     1.0000 0.93325  0.59538  0.88787  Biso   1.000  C
  C348     1.0000 0.90734  0.55164  0.89066  Biso   1.000  C
  C349     1.0000 0.90037  0.58980  0.84027  Biso   1.000  C
  H369     1.0000 0.99773  0.60549  0.81636  Biso   1.000  H
  H370     1.0000 0.39336  0.22026  0.86917  Biso   1.000  H
  H371     1.0000 0.47706  0.27188  0.86646  Biso   1.000  H
  C350     1.0000 0.26326  0.34248  0.95096  Biso   1.000  C
  C351     1.0000 0.65751  0.92078  0.95096  Biso   1.000  C
  H372     1.0000 0.77971  0.17302  0.86917  Biso   1.000  H
  H373     1.0000 0.72814  0.20514  0.86646  Biso   1.000  H
  S30      1.0000 0.14165  0.73066  0.92245  Biso   1.000  S
  H374     1.0000 0.91554  0.59216  0.90657  Biso   1.000  H
  C352     1.0000 0.87572  0.59886  0.86557  Biso   1.000  C
  C353     1.0000 0.85704  0.55046  0.86557  Biso   1.000  C
  H375     1.0000 0.88323  0.52957  0.90847  Biso   1.000  H
  H376     1.0000 0.85987  0.57489  0.82546  Biso   1.000  H
  C354     1.0000 0.26204  0.26656  0.94548  Biso   1.000  C
  C355     1.0000 0.27272  0.37163  0.97750  Biso   1.000  C
  C356     1.0000 0.21834  0.24069  0.94266  Biso   1.000  C
  C357     1.0000 0.73341  0.99545  0.94548  Biso   1.000  C
  C358     1.0000 0.62832  0.90108  0.97750  Biso   1.000  C
  C359     1.0000 0.75931  0.97765  0.94266  Biso   1.000  C
  C360     1.0000 0.07924  0.73677  0.95096  Biso   1.000  C
  H377     1.0000 0.82691  0.60667  0.86917  Biso   1.000  H
  H378     1.0000 0.79483  0.52294  0.86646  Biso   1.000  H
  H379     1.0000 0.25884  0.24889  0.92678  Biso   1.000  H
  C361     1.0000 0.26556  0.20910  0.96777  Biso   1.000  C
  C362     1.0000 0.21713  0.19038  0.96777  Biso   1.000  C
  C363     1.0000 0.26754  0.31306  0.99822  Biso   1.000  C
  N28      1.0000 0.28594  0.45189  0.98283  Biso   1.000  N
  H380     1.0000 0.19622  0.21658  0.92487  Biso   1.000  H
  H381     1.0000 0.75118  0.00996  0.92678  Biso   1.000  H
  C364     1.0000 0.79098  0.05646  0.96777  Biso   1.000  C
  C365     1.0000 0.80958  0.02677  0.96777  Biso   1.000  C
  C366     1.0000 0.68693  0.95447  0.99822  Biso   1.000  C
  N29      1.0000 0.54814  0.83409  0.98283  Biso   1.000  N
  H382     1.0000 0.78342  0.97969  0.92487  Biso   1.000  H
  C367     1.0000 0.00453  0.73795  0.94548  Biso   1.000  C
  C368     1.0000 0.09894  0.72725  0.97750  Biso   1.000  C
  C369     1.0000 0.02236  0.78169  0.94266  Biso   1.000  C
  H383     1.0000 0.27332  0.16024  0.96417  Biso   1.000  H
  C370     1.0000 0.25645  0.23366  0.99307  Biso   1.000  C
  H384     1.0000 0.18967  0.12819  0.96686  Biso   1.000  H
  H385     1.0000 0.27211  0.33105  0.01696  Biso   1.000  H
  H386     1.0000 0.28953  0.48544  0.96887  Biso   1.000  H
  C371     1.0000 0.29432  0.48525  0.00987  Biso   1.000  C
  H387     1.0000 0.83970  0.11306  0.96417  Biso   1.000  H
  C372     1.0000 0.76629  0.02277  0.99307  Biso   1.000  C
  H388     1.0000 0.87179  0.06145  0.96686  Biso   1.000  H
  H389     1.0000 0.66891  0.94107  0.01696  Biso   1.000  H
  H390     1.0000 0.51454  0.80408  0.96887  Biso   1.000  H
  C373     1.0000 0.51476  0.80907  0.00987  Biso   1.000  C
  H391     1.0000 0.99005  0.74117  0.92678  Biso   1.000  H
  C374     1.0000 0.94353  0.73447  0.96777  Biso   1.000  C
  C375     1.0000 0.97325  0.78287  0.96777  Biso   1.000  C
  C376     1.0000 0.04554  0.73250  0.99822  Biso   1.000  C
  N30      1.0000 0.16593  0.71405  0.98283  Biso   1.000  N
  H392     1.0000 0.02031  0.80375  0.92487  Biso   1.000  H
  H393     1.0000 0.24154  0.19314  0.00786  Biso   1.000  H
  H394     1.0000 0.34103  0.48039  0.01977  Biso   1.000  H
  H395     1.0000 0.23857  0.44939  0.01996  Biso   1.000  H
  C377     1.0000 0.31632  0.57975  0.00987  Biso   1.000  C
  H396     1.0000 0.80682  0.04831  0.00786  Biso   1.000  H
  C378     1.0000 0.42021  0.73657  0.00987  Biso   1.000  C
  H397     1.0000 0.51964  0.86069  0.01977  Biso   1.000  H
  H398     1.0000 0.55065  0.78917  0.01996  Biso   1.000  H
  H399     1.0000 0.88690  0.72665  0.96417  Biso   1.000  H
  C379     1.0000 0.97727  0.74360  0.99307  Biso   1.000  C
  H400     1.0000 0.93855  0.81039  0.96686  Biso   1.000  H
  H401     1.0000 0.05891  0.72784  0.01696  Biso   1.000  H
  H402     1.0000 0.19595  0.71050  0.96887  Biso   1.000  H
  C380     1.0000 0.19090  0.70564  0.00987  Biso   1.000  C
  C381     1.0000 0.24450  0.59945  0.01084  Biso   1.000  C
  C382     1.0000 0.40052  0.64509  0.01084  Biso   1.000  C
  C383     1.0000 0.35494  0.75548  0.01084  Biso   1.000  C
  H403     1.0000 0.95165  0.75844  0.00786  Biso   1.000  H
  H404     1.0000 0.13935  0.65895  0.01977  Biso   1.000  H
  H405     1.0000 0.21085  0.76146  0.01996  Biso   1.000  H
  C384     1.0000 0.26339  0.68364  0.00987  Biso   1.000  C
  C385     1.0000 0.15266  0.52439  0.00846  Biso   1.000  C
  C386     1.0000 0.47566  0.62828  0.00846  Biso   1.000  C
  C387     1.0000 0.37175  0.84736  0.00846  Biso   1.000  C
  H406     1.0000 0.11781  0.54284  0.99717  Biso   1.000  H
  H407     1.0000 0.15353  0.47540  0.99868  Biso   1.000  H
  C388     1.0000 0.11050  0.49365  0.03446  Biso   1.000  C
  H408     1.0000 0.45713  0.57495  0.99717  Biso   1.000  H
  H409     1.0000 0.52467  0.67819  0.99868  Biso   1.000  H
  C389     1.0000 0.50634  0.61685  0.03446  Biso   1.000  C
  H410     1.0000 0.42504  0.88216  0.99717  Biso   1.000  H
  H411     1.0000 0.32181  0.84644  0.99868  Biso   1.000  H
  C390     1.0000 0.38313  0.88945  0.03446  Biso   1.000  C
  H412     1.0000 0.05192  0.44269  0.03167  Biso   1.000  H
  H413     1.0000 0.10502  0.54048  0.04367  Biso   1.000  H
  H414     1.0000 0.14543  0.47684  0.04606  Biso   1.000  H
  H415     1.0000 0.55734  0.60930  0.03167  Biso   1.000  H
  H416     1.0000 0.45956  0.56458  0.04367  Biso   1.000  H
  H417     1.0000 0.52314  0.66854  0.04606  Biso   1.000  H
  H418     1.0000 0.39073  0.94810  0.03167  Biso   1.000  H
  H419     1.0000 0.43543  0.89497  0.04367  Biso   1.000  H
  H420     1.0000 0.33146  0.85458  0.04606  Biso   1.000  H
  C391     1.0000 0.44386  0.28350  0.20114  Biso   1.000  C
  C392     1.0000 0.48597  0.29493  0.17514  Biso   1.000  C
  H421     1.0000 0.38526  0.27595  0.19832  Biso   1.000  H
  H422     1.0000 0.43837  0.23123  0.21034  Biso   1.000  H
  H423     1.0000 0.47878  0.33525  0.21274  Biso   1.000  H
  C393     1.0000 0.57787  0.31174  0.17750  Biso   1.000  C
  H424     1.0000 0.45118  0.24161  0.16384  Biso   1.000  H
  H425     1.0000 0.48687  0.34484  0.16533  Biso   1.000  H
  C394     1.0000 0.64966  0.40322  0.17654  Biso   1.000  C
  C395     1.0000 0.59676  0.24646  0.17654  Biso   1.000  C
  C396     1.0000 0.62767  0.47572  0.17654  Biso   1.000  C
  C397     1.0000 0.73385  0.42214  0.17750  Biso   1.000  C
  C398     1.0000 0.52426  0.15196  0.17654  Biso   1.000  C
  C399     1.0000 0.68825  0.26610  0.17750  Biso   1.000  C
  H426     1.0000 0.67435  0.52734  0.18643  Biso   1.000  H
  H427     1.0000 0.57188  0.45583  0.18664  Biso   1.000  H
  N31      1.0000 0.61925  0.50074  0.14951  Biso   1.000  N
  C400     1.0000 0.75358  0.35036  0.17654  Biso   1.000  C
  C401     1.0000 0.80896  0.51401  0.17514  Biso   1.000  C
  H428     1.0000 0.47265  0.14704  0.18643  Biso   1.000  H
  H429     1.0000 0.54417  0.11604  0.18664  Biso   1.000  H
  N32      1.0000 0.49930  0.11854  0.14951  Biso   1.000  N
  C402     1.0000 0.70509  0.19104  0.17514  Biso   1.000  C
  C403     1.0000 0.60605  0.56773  0.14417  Biso   1.000  C
  H430     1.0000 0.62284  0.47073  0.13553  Biso   1.000  H
  C404     1.0000 0.84807  0.37236  0.17654  Biso   1.000  C
  H431     1.0000 0.79047  0.54882  0.16384  Biso   1.000  H
  H432     1.0000 0.85795  0.51316  0.16533  Biso   1.000  H
  C405     1.0000 0.83967  0.55611  0.20114  Biso   1.000  C
  C406     1.0000 0.43230  0.03835  0.14417  Biso   1.000  C
  H433     1.0000 0.52930  0.15216  0.13553  Biso   1.000  H
  H434     1.0000 0.75836  0.20956  0.16384  Biso   1.000  H
  H435     1.0000 0.65517  0.14205  0.16533  Biso   1.000  H
  C407     1.0000 0.71645  0.16030  0.20114  Biso   1.000  C
  C408     1.0000 0.59656  0.58743  0.11763  Biso   1.000  C
  C409     1.0000 0.60084  0.62112  0.16490  Biso   1.000  C
  H436     1.0000 0.85299  0.32566  0.18643  Biso   1.000  H
  H437     1.0000 0.88396  0.42811  0.18664  Biso   1.000  H
  N33      1.0000 0.88150  0.38076  0.14951  Biso   1.000  N
  H438     1.0000 0.89067  0.61475  0.19832  Biso   1.000  H
  H439     1.0000 0.79284  0.56162  0.21034  Biso   1.000  H
  H440     1.0000 0.85648  0.52123  0.21274  Biso   1.000  H
  C410     1.0000 0.41257  0.00913  0.11763  Biso   1.000  C
  C411     1.0000 0.37890  0.97977  0.16490  Biso   1.000  C
  H441     1.0000 0.72407  0.10934  0.19832  Biso   1.000  H
  H442     1.0000 0.76875  0.20713  0.21034  Biso   1.000  H
  H443     1.0000 0.66479  0.14356  0.21274  Biso   1.000  H
  C412     1.0000 0.59537  0.66216  0.11213  Biso   1.000  C
  S31      1.0000 0.60268  0.52504  0.08911  Biso   1.000  S
  C413     1.0000 0.55163  0.64430  0.10934  Biso   1.000  C
  C414     1.0000 0.58978  0.68942  0.15973  Biso   1.000  C
  H444     1.0000 0.60546  0.60772  0.18364  Biso   1.000  H
  C415     1.0000 0.96170  0.39396  0.14417  Biso   1.000  C
  H445     1.0000 0.84785  0.37715  0.13553  Biso   1.000  H
  S32      1.0000 0.47497  0.07762  0.08911  Biso   1.000  S
  C416     1.0000 0.33785  0.93328  0.11213  Biso   1.000  C
  C417     1.0000 0.35570  0.90734  0.10934  Biso   1.000  C
  C418     1.0000 0.31059  0.90038  0.15973  Biso   1.000  C
  H446     1.0000 0.39233  0.99777  0.18364  Biso   1.000  H
  H447     1.0000 0.59213  0.67661  0.09343  Biso   1.000  H
  C419     1.0000 0.59883  0.72311  0.13443  Biso   1.000  C
  C420     1.0000 0.55049  0.69342  0.13443  Biso   1.000  C
  S33      1.0000 0.73066  0.58901  0.07755  Biso   1.000  S
  H448     1.0000 0.52956  0.64634  0.09153  Biso   1.000  H
  H449     1.0000 0.57488  0.71503  0.17454  Biso   1.000  H
  C421     1.0000 0.99088  0.40342  0.11763  Biso   1.000  C
  C422     1.0000 0.02025  0.39915  0.16490  Biso   1.000  C
  S34      1.0000 0.41098  0.14165  0.07755  Biso   1.000  S
  H450     1.0000 0.32335  0.91555  0.09343  Biso   1.000  H
  C423     1.0000 0.27684  0.87575  0.13443  Biso   1.000  C
  C424     1.0000 0.30655  0.85703  0.13443  Biso   1.000  C
  H451     1.0000 0.35366  0.88324  0.09153  Biso   1.000  H
  H452     1.0000 0.28493  0.85986  0.17454  Biso   1.000  H
  H453     1.0000 0.60666  0.77972  0.13083  Biso   1.000  H
  H454     1.0000 0.52299  0.72816  0.13354  Biso   1.000  H
  C425     1.0000 0.73676  0.65750  0.04904  Biso   1.000  C
  S35      1.0000 0.92237  0.39731  0.08911  Biso   1.000  S
  C426     1.0000 0.06677  0.40460  0.11213  Biso   1.000  C
  C427     1.0000 0.09268  0.44834  0.10934  Biso   1.000  C
  C428     1.0000 0.09968  0.41025  0.15973  Biso   1.000  C
  H455     1.0000 0.00226  0.39455  0.18364  Biso   1.000  H
  C429     1.0000 0.34248  0.07927  0.04904  Biso   1.000  C
  H456     1.0000 0.22025  0.82696  0.13083  Biso   1.000  H
  H457     1.0000 0.27182  0.79484  0.13354  Biso   1.000  H
  C430     1.0000 0.73798  0.73342  0.05452  Biso   1.000  C
  C431     1.0000 0.72730  0.62834  0.02250  Biso   1.000  C
  C432     1.0000 0.78166  0.75936  0.05734  Biso   1.000  C
  S36      1.0000 0.85837  0.26932  0.07755  Biso   1.000  S
  H458     1.0000 0.08448  0.40782  0.09343  Biso   1.000  H
  C433     1.0000 0.12424  0.40112  0.13443  Biso   1.000  C
  C434     1.0000 0.14298  0.44952  0.13443  Biso   1.000  C
  H459     1.0000 0.11674  0.47040  0.09153  Biso   1.000  H
  H460     1.0000 0.14018  0.42516  0.17454  Biso   1.000  H
  C435     1.0000 0.26656  0.00453  0.05452  Biso   1.000  C
  C436     1.0000 0.37164  0.09890  0.02250  Biso   1.000  C
  C437     1.0000 0.24065  0.02233  0.05734  Biso   1.000  C
  H461     1.0000 0.74116  0.75115  0.07322  Biso   1.000  H
  C438     1.0000 0.73449  0.79095  0.03223  Biso   1.000  C
  C439     1.0000 0.78287  0.80966  0.03223  Biso   1.000  C
  C440     1.0000 0.73247  0.68692  0.00178  Biso   1.000  C
  N34      1.0000 0.71411  0.54816  0.01717  Biso   1.000  N
  H462     1.0000 0.80378  0.78346  0.07513  Biso   1.000  H
  C441     1.0000 0.92078  0.26321  0.04904  Biso   1.000  C
  H463     1.0000 0.17305  0.39331  0.13083  Biso   1.000  H
  H464     1.0000 0.20519  0.47704  0.13354  Biso   1.000  H
  H465     1.0000 0.24887  0.99008  0.07322  Biso   1.000  H
  C442     1.0000 0.20909  0.94352  0.03223  Biso   1.000  C
  C443     1.0000 0.19041  0.97327  0.03223  Biso   1.000  C
  C444     1.0000 0.31304  0.04551  0.00178  Biso   1.000  C
  N35      1.0000 0.45185  0.16595  0.01717  Biso   1.000  N
  H466     1.0000 0.21657  0.02036  0.07513  Biso   1.000  H
  H467     1.0000 0.72664  0.83974  0.03583  Biso   1.000  H
  C445     1.0000 0.74356  0.76632  0.00693  Biso   1.000  C
  H468     1.0000 0.81038  0.87185  0.03314  Biso   1.000  H
  H469     1.0000 0.72786  0.66893  0.98304  Biso   1.000  H
  H470     1.0000 0.71049  0.51454  0.03113  Biso   1.000  H
  C446     1.0000 0.70564  0.51473  0.99013  Biso   1.000  C
  C447     1.0000 0.99549  0.26203  0.05452  Biso   1.000  C
  C448     1.0000 0.90108  0.27273  0.02250  Biso   1.000  C
  C449     1.0000 0.97769  0.21836  0.05734  Biso   1.000  C
  H471     1.0000 0.16029  0.88698  0.03583  Biso   1.000  H
  C450     1.0000 0.23371  0.97728  0.00693  Biso   1.000  C
  H472     1.0000 0.12811  0.93853  0.03314  Biso   1.000  H
  H473     1.0000 0.33105  0.05891  0.98304  Biso   1.000  H
  H474     1.0000 0.48546  0.19596  0.03113  Biso   1.000  H
  C451     1.0000 0.48526  0.19091  0.99013  Biso   1.000  C
  H475     1.0000 0.75848  0.80684  0.99214  Biso   1.000  H
  H476     1.0000 0.65896  0.51966  0.98023  Biso   1.000  H
  H477     1.0000 0.76148  0.55065  0.98004  Biso   1.000  H
  C452     1.0000 0.68364  0.42023  0.99013  Biso   1.000  C
  H478     1.0000 0.00997  0.25881  0.07322  Biso   1.000  H
  C453     1.0000 0.05643  0.26551  0.03223  Biso   1.000  C
  C454     1.0000 0.02677  0.21711  0.03223  Biso   1.000  C
  C455     1.0000 0.95445  0.26755  0.00178  Biso   1.000  C
  N36      1.0000 0.83409  0.28593  0.01717  Biso   1.000  N
  H479     1.0000 0.97965  0.19623  0.07513  Biso   1.000  H
  H480     1.0000 0.19315  0.95167  0.99214  Biso   1.000  H
  H481     1.0000 0.48036  0.13935  0.98023  Biso   1.000  H
  H482     1.0000 0.44937  0.21081  0.98004  Biso   1.000  H
  C456     1.0000 0.57975  0.26341  0.99013  Biso   1.000  C
  C457     1.0000 0.75546  0.40053  0.98916  Biso   1.000  C
  C458     1.0000 0.59948  0.35495  0.98916  Biso   1.000  C
  H483     1.0000 0.11306  0.27332  0.03583  Biso   1.000  H
  C459     1.0000 0.02278  0.25645  0.00693  Biso   1.000  C
  H484     1.0000 0.06150  0.18966  0.03314  Biso   1.000  H
  H485     1.0000 0.94105  0.27214  0.98304  Biso   1.000  H
  H486     1.0000 0.80405  0.28955  0.03113  Biso   1.000  H
  C460     1.0000 0.80906  0.29434  0.99013  Biso   1.000  C
  C461     1.0000 0.64506  0.24456  0.98916  Biso   1.000  C
  C462     1.0000 0.73657  0.31634  0.99013  Biso   1.000  C
  C463     1.0000 0.84740  0.47566  0.99154  Biso   1.000  C
  C464     1.0000 0.52439  0.37177  0.99154  Biso   1.000  C
  H487     1.0000 0.04837  0.24154  0.99214  Biso   1.000  H
  H488     1.0000 0.86067  0.34103  0.98023  Biso   1.000  H
  H489     1.0000 0.78917  0.23852  0.98004  Biso   1.000  H
  C465     1.0000 0.62826  0.15262  0.99154  Biso   1.000  C
  H490     1.0000 0.88216  0.45714  0.00283  Biso   1.000  H
  H491     1.0000 0.84647  0.52465  0.00132  Biso   1.000  H
  C466     1.0000 0.88946  0.50633  0.96554  Biso   1.000  C
  H492     1.0000 0.54289  0.42503  0.00283  Biso   1.000  H
  H493     1.0000 0.47538  0.32186  0.00132  Biso   1.000  H
  C467     1.0000 0.49367  0.38313  0.96554  Biso   1.000  C
  H494     1.0000 0.57497  0.11781  0.00283  Biso   1.000  H
  H495     1.0000 0.67815  0.15354  0.00132  Biso   1.000  H
  C468     1.0000 0.61688  0.11052  0.96554  Biso   1.000  C
  H496     1.0000 0.94807  0.55735  0.96833  Biso   1.000  H
  H497     1.0000 0.89494  0.45950  0.95633  Biso   1.000  H
  H498     1.0000 0.85459  0.52314  0.95394  Biso   1.000  H
  H499     1.0000 0.44266  0.39074  0.96833  Biso   1.000  H
  H500     1.0000 0.54046  0.43540  0.95633  Biso   1.000  H
  H501     1.0000 0.47687  0.33144  0.95394  Biso   1.000  H
  H502     1.0000 0.60926  0.05195  0.96833  Biso   1.000  H
  H503     1.0000 0.56453  0.10501  0.95633  Biso   1.000  H
  H504     1.0000 0.66859  0.14546  0.95394  Biso   1.000  H
  Ne1      1.0000 0.66667  0.33333  0.08333  Biso   1.000  Ne
  He1      1.0000 0.80938  0.46756  0.05548  Biso   1.000  He
  He2      1.0000 0.65660  0.19842  0.05521  Biso   1.000  He
  He3      1.0000 0.41901  0.34172  0.05580  Biso   1.000  He
  Ar1      1.0000 0.66668  0.33332  0.08334  Biso   1.000  Ar
  Ne2      1.0000 0.33333  0.66666  0.41667  Biso   1.000  Ne
  He4      1.0000 0.47603  0.80091  0.38882  Biso   1.000  He
  He5      1.0000 0.32328  0.53178  0.38855  Biso   1.000  He
  He6      1.0000 0.08562  0.67503  0.38914  Biso   1.000  He
  Ar2      1.0000 0.33332  0.66666  0.41667  Biso   1.000  Ar
  Ne3      1.0000 0.99999  0.99999  0.25000  Biso   1.000  Ne
  He7      1.0000 0.99155  0.13374  0.22215  Biso   1.000  He
  He8      1.0000 0.13620  0.00969  0.22194  Biso   1.000  He
  He9      1.0000 0.87174  0.86244  0.22200  Biso   1.000  He
  Ar3      1.0000 0.99998  0.00000  0.25000  Biso   1.000  Ar
  Ne4      1.0000 0.66667  0.33333  0.58333  Biso   1.000  Ne
  He10     1.0000 0.65818  0.46702  0.55548  Biso   1.000  He
  He11     1.0000 0.80289  0.34305  0.55527  Biso   1.000  He
  He12     1.0000 0.53837  0.19575  0.55534  Biso   1.000  He
  Ar4      1.0000 0.66664  0.33332  0.58333  Biso   1.000  Ar
  Ne5      1.0000 1.00000  0.99999  0.75000  Biso   1.000  Ne
  He13     1.0000 0.14269  0.13425  0.72216  Biso   1.000  He
  He14     1.0000 0.98991  0.86511  0.72187  Biso   1.000  He
  He15     1.0000 0.75232  0.00835  0.72247  Biso   1.000  He
  Ar5      1.0000 0.00002  0.00000  0.75000  Biso   1.000  Ar
  Ne6      1.0000 0.33333  0.66666  0.91667  Biso   1.000  Ne
  He16     1.0000 0.32488  0.80037  0.88881  Biso   1.000  He
  He17     1.0000 0.46957  0.67635  0.88861  Biso   1.000  He
  He18     1.0000 0.20504  0.52911  0.88868  Biso   1.000  He
  Ar6      1.0000 0.33335  0.66666  0.91667  Biso   1.000  Ar
