data_image0
_cell_length_a       14.976
_cell_length_b       14.976
_cell_length_c       39.297
_cell_angle_alpha    90
_cell_angle_beta     90
_cell_angle_gamma    90

_symmetry_space_group_name_H-M    "P 1"
_symmetry_int_tables_number       1

loop_
  _symmetry_equiv_pos_as_xyz
  'x, y, z'

loop_
  _atom_site_label
  _atom_site_occupancy
  _atom_site_fract_x
  _atom_site_fract_y
  _atom_site_fract_z
  _atom_site_thermal_displace_type
  _atom_site_B_iso_or_equiv
  _atom_site_type_symbol
  C1       1.0000 0.20773  0.38001  0.48123  Biso   1.000  C
  O1       1.0000 0.18009  0.29006  0.48474  Biso   1.000  O
  H1       1.0000 0.18957  0.41333  0.50090  Biso   1.000  H
  H2       1.0000 0.27150  0.38228  0.47910  Biso   1.000  H
  H3       1.0000 0.18082  0.40538  0.46131  Biso   1.000  H
  C2       1.0000 0.08948  0.27237  0.48508  Biso   1.000  C
  C3       1.0000 0.06524  0.18256  0.48553  Biso   1.000  C
  C4       1.0000 0.02457  0.33801  0.48551  Biso   1.000  C
  C5       1.0000 0.13448  0.10904  0.48490  Biso   1.000  C
  C6       1.0000 0.97543  0.16199  0.48551  Biso   1.000  C
  H4       1.0000 0.04187  0.39757  0.48579  Biso   1.000  H
  C7       1.0000 0.93476  0.31744  0.48553  Biso   1.000  C
  C8       1.0000 0.16126  0.08701  0.44891  Biso   1.000  C
  H5       1.0000 0.11038  0.05609  0.49579  Biso   1.000  H
  H6       1.0000 0.18670  0.12780  0.49760  Biso   1.000  H
  H7       1.0000 0.95813  0.10243  0.48579  Biso   1.000  H
  C9       1.0000 0.91052  0.22763  0.48508  Biso   1.000  C
  C10      1.0000 0.86552  0.39096  0.48490  Biso   1.000  C
  C11      1.0000 0.11906  0.02083  0.43016  Biso   1.000  C
  C12      1.0000 0.22670  0.13642  0.43255  Biso   1.000  C
  O2       1.0000 0.81991  0.20994  0.48474  Biso   1.000  O
  C13      1.0000 0.83874  0.41299  0.44891  Biso   1.000  C
  H8       1.0000 0.88962  0.44391  0.49579  Biso   1.000  H
  H9       1.0000 0.81330  0.37220  0.49760  Biso   1.000  H
  C14      1.0000 0.14370  0.00381  0.39695  Biso   1.000  C
  O3       1.0000 0.05355  0.97316  0.44708  Biso   1.000  O
  C15      1.0000 0.24880  0.12186  0.39917  Biso   1.000  C
  H10      1.0000 0.25661  0.18069  0.44459  Biso   1.000  H
  C16      1.0000 0.79227  0.11999  0.48123  Biso   1.000  C
  C17      1.0000 0.88094  0.47917  0.43016  Biso   1.000  C
  C18      1.0000 0.77330  0.36358  0.43255  Biso   1.000  C
  C19      1.0000 0.20840  0.05409  0.38064  Biso   1.000  C
  H11      1.0000 0.11612  0.95753  0.38519  Biso   1.000  H
  C20      1.0000 0.98952  0.92768  0.42782  Biso   1.000  C
  O4       1.0000 0.31237  0.17134  0.38212  Biso   1.000  O
  H12      1.0000 0.81043  0.08667  0.50090  Biso   1.000  H
  H13      1.0000 0.72850  0.11772  0.47910  Biso   1.000  H
  H14      1.0000 0.81918  0.09462  0.46131  Biso   1.000  H
  C21      1.0000 0.85630  0.49619  0.39695  Biso   1.000  C
  O5       1.0000 0.94645  0.52684  0.44708  Biso   1.000  O
  C22      1.0000 0.75120  0.37814  0.39917  Biso   1.000  C
  H15      1.0000 0.74339  0.31931  0.44459  Biso   1.000  H
  C23      1.0000 0.23150  0.03813  0.34387  Biso   1.000  C
  H16      1.0000 0.94398  0.90471  0.44260  Biso   1.000  H
  H17      1.0000 0.96307  0.96802  0.41171  Biso   1.000  H
  H18      1.0000 0.01743  0.87921  0.41591  Biso   1.000  H
  C24      1.0000 0.34001  0.25180  0.39685  Biso   1.000  C
  C25      1.0000 0.79160  0.44591  0.38064  Biso   1.000  C
  H19      1.0000 0.88388  0.54247  0.38519  Biso   1.000  H
  C26      1.0000 0.01048  0.57232  0.42782  Biso   1.000  C
  O6       1.0000 0.68763  0.32866  0.38212  Biso   1.000  O
  C27      1.0000 0.17321  0.09095  0.31992  Biso   1.000  C
  H20      1.0000 0.29340  0.05429  0.34010  Biso   1.000  H
  H21      1.0000 0.22509  0.97509  0.33891  Biso   1.000  H
  H22      1.0000 0.37293  0.23952  0.41731  Biso   1.000  H
  H23      1.0000 0.37740  0.28359  0.38120  Biso   1.000  H
  H24      1.0000 0.28873  0.28753  0.40219  Biso   1.000  H
  C28      1.0000 0.76850  0.46187  0.34387  Biso   1.000  C
  H25      1.0000 0.05602  0.59529  0.44260  Biso   1.000  H
  H26      1.0000 0.03693  0.53198  0.41171  Biso   1.000  H
  H27      1.0000 0.98257  0.62079  0.41591  Biso   1.000  H
  C29      1.0000 0.65999  0.24820  0.39685  Biso   1.000  C
  C30      1.0000 0.19925  0.17508  0.30840  Biso   1.000  C
  C31      1.0000 0.09088  0.05943  0.30954  Biso   1.000  C
  C32      1.0000 0.82679  0.40905  0.31992  Biso   1.000  C
  H28      1.0000 0.70660  0.44571  0.34010  Biso   1.000  H
  H29      1.0000 0.77491  0.52491  0.33891  Biso   1.000  H
  H30      1.0000 0.62707  0.26048  0.41731  Biso   1.000  H
  H31      1.0000 0.62260  0.21641  0.38120  Biso   1.000  H
  H32      1.0000 0.71127  0.21247  0.40219  Biso   1.000  H
  C33      1.0000 0.14436  0.22636  0.28788  Biso   1.000  C
  H33      1.0000 0.25481  0.19732  0.31471  Biso   1.000  H
  C34      1.0000 0.03719  0.10931  0.28839  Biso   1.000  C
  O7       1.0000 0.06798  0.97523  0.32122  Biso   1.000  O
  C35      1.0000 0.90912  0.44057  0.30954  Biso   1.000  C
  C36      1.0000 0.80075  0.32492  0.30840  Biso   1.000  C
  O8       1.0000 0.16713  0.31016  0.27618  Biso   1.000  O
  C37      1.0000 0.06203  0.19398  0.27750  Biso   1.000  C
  H34      1.0000 0.98291  0.08580  0.28119  Biso   1.000  H
  C38      1.0000 0.97676  0.95212  0.32203  Biso   1.000  C
  C39      1.0000 0.96281  0.39069  0.28839  Biso   1.000  C
  O9       1.0000 0.93202  0.52477  0.32122  Biso   1.000  O
  C40      1.0000 0.85564  0.27364  0.28788  Biso   1.000  C
  H35      1.0000 0.74519  0.30268  0.31471  Biso   1.000  H
  C41      1.0000 0.24446  0.35163  0.28982  Biso   1.000  C
  C42      1.0000 0.00000  0.25000  0.25592  Biso   1.000  C
  H36      1.0000 0.95600  0.94151  0.29931  Biso   1.000  H
  H37      1.0000 0.96888  0.89911  0.33539  Biso   1.000  H
  H38      1.0000 0.94318  0.00020  0.33191  Biso   1.000  H
  C43      1.0000 0.93797  0.30602  0.27750  Biso   1.000  C
  H39      1.0000 0.01709  0.41420  0.28119  Biso   1.000  H
  C44      1.0000 0.02324  0.54788  0.32203  Biso   1.000  C
  O10      1.0000 0.83287  0.18984  0.27618  Biso   1.000  O
  H40      1.0000 0.29587  0.31577  0.28481  Biso   1.000  H
  H41      1.0000 0.25160  0.40972  0.27979  Biso   1.000  H
  H42      1.0000 0.23811  0.35751  0.31399  Biso   1.000  H
  H43      1.0000 0.03512  0.28893  0.24139  Biso   1.000  H
  H44      1.0000 0.96488  0.21107  0.24139  Biso   1.000  H
  H45      1.0000 0.04400  0.55849  0.29931  Biso   1.000  H
  H46      1.0000 0.03112  0.60089  0.33539  Biso   1.000  H
  H47      1.0000 0.05682  0.49980  0.33191  Biso   1.000  H
  C45      1.0000 0.75554  0.14837  0.28982  Biso   1.000  C
  H48      1.0000 0.70413  0.18423  0.28481  Biso   1.000  H
  H49      1.0000 0.74840  0.09028  0.27979  Biso   1.000  H
  H50      1.0000 0.76189  0.14249  0.31399  Biso   1.000  H
  C46      1.0000 0.13448  0.60904  0.51510  Biso   1.000  C
  C47      1.0000 0.16126  0.58701  0.55109  Biso   1.000  C
  H51      1.0000 0.11038  0.55609  0.50421  Biso   1.000  H
  H52      1.0000 0.18670  0.62780  0.50240  Biso   1.000  H
  C48      1.0000 0.06524  0.68256  0.51447  Biso   1.000  C
  C49      1.0000 0.11906  0.52083  0.56984  Biso   1.000  C
  C50      1.0000 0.22670  0.63642  0.56745  Biso   1.000  C
  C51      1.0000 0.08948  0.77237  0.51492  Biso   1.000  C
  C52      1.0000 0.97543  0.66199  0.51449  Biso   1.000  C
  C53      1.0000 0.14370  0.50381  0.60305  Biso   1.000  C
  O11      1.0000 0.05355  0.47316  0.55292  Biso   1.000  O
  H53      1.0000 0.25661  0.68069  0.55541  Biso   1.000  H
  C54      1.0000 0.24880  0.62186  0.60083  Biso   1.000  C
  C55      1.0000 0.02457  0.83801  0.51449  Biso   1.000  C
  O12      1.0000 0.18009  0.79006  0.51526  Biso   1.000  O
  H54      1.0000 0.95813  0.60243  0.51421  Biso   1.000  H
  C56      1.0000 0.91052  0.72763  0.51492  Biso   1.000  C
  C57      1.0000 0.20840  0.55409  0.61936  Biso   1.000  C
  H55      1.0000 0.11612  0.45753  0.61481  Biso   1.000  H
  C58      1.0000 0.98952  0.42768  0.57218  Biso   1.000  C
  O13      1.0000 0.31237  0.67134  0.61788  Biso   1.000  O
  H56      1.0000 0.04187  0.89757  0.51421  Biso   1.000  H
  C59      1.0000 0.93476  0.81744  0.51447  Biso   1.000  C
  C60      1.0000 0.20773  0.88001  0.51877  Biso   1.000  C
  O14      1.0000 0.81991  0.70994  0.51526  Biso   1.000  O
  C61      1.0000 0.23150  0.53813  0.65613  Biso   1.000  C
  H57      1.0000 0.01743  0.37921  0.58409  Biso   1.000  H
  H58      1.0000 0.94398  0.40471  0.55740  Biso   1.000  H
  H59      1.0000 0.96307  0.46802  0.58829  Biso   1.000  H
  C62      1.0000 0.34001  0.75180  0.60315  Biso   1.000  C
  C63      1.0000 0.86552  0.89096  0.51510  Biso   1.000  C
  H60      1.0000 0.18957  0.91333  0.49910  Biso   1.000  H
  H61      1.0000 0.27150  0.88228  0.52090  Biso   1.000  H
  H62      1.0000 0.18082  0.90538  0.53869  Biso   1.000  H
  C64      1.0000 0.79227  0.61999  0.51877  Biso   1.000  C
  C65      1.0000 0.17321  0.59095  0.68008  Biso   1.000  C
  H63      1.0000 0.29340  0.55429  0.65990  Biso   1.000  H
  H64      1.0000 0.22509  0.47509  0.66109  Biso   1.000  H
  H65      1.0000 0.37293  0.73952  0.58269  Biso   1.000  H
  H66      1.0000 0.37740  0.78359  0.61880  Biso   1.000  H
  H67      1.0000 0.28873  0.78753  0.59781  Biso   1.000  H
  C66      1.0000 0.83874  0.91299  0.55109  Biso   1.000  C
  H68      1.0000 0.88962  0.94391  0.50421  Biso   1.000  H
  H69      1.0000 0.81330  0.87220  0.50240  Biso   1.000  H
  H70      1.0000 0.81043  0.58667  0.49910  Biso   1.000  H
  H71      1.0000 0.72850  0.61772  0.52090  Biso   1.000  H
  H72      1.0000 0.81918  0.59462  0.53869  Biso   1.000  H
  C67      1.0000 0.09088  0.55943  0.69046  Biso   1.000  C
  C68      1.0000 0.19925  0.67508  0.69160  Biso   1.000  C
  C69      1.0000 0.88094  0.97917  0.56984  Biso   1.000  C
  C70      1.0000 0.77330  0.86358  0.56745  Biso   1.000  C
  C71      1.0000 0.03719  0.60931  0.71161  Biso   1.000  C
  O15      1.0000 0.06798  0.47523  0.67878  Biso   1.000  O
  H73      1.0000 0.25481  0.69732  0.68529  Biso   1.000  H
  C72      1.0000 0.14436  0.72636  0.71212  Biso   1.000  C
  C73      1.0000 0.85630  0.99619  0.60305  Biso   1.000  C
  O16      1.0000 0.94645  0.02684  0.55292  Biso   1.000  O
  H74      1.0000 0.74339  0.81931  0.55541  Biso   1.000  H
  C74      1.0000 0.75120  0.87814  0.60083  Biso   1.000  C
  C75      1.0000 0.06203  0.69398  0.72250  Biso   1.000  C
  H75      1.0000 0.98291  0.58580  0.71881  Biso   1.000  H
  C76      1.0000 0.97676  0.45212  0.67797  Biso   1.000  C
  O17      1.0000 0.16713  0.81016  0.72382  Biso   1.000  O
  C77      1.0000 0.79160  0.94591  0.61936  Biso   1.000  C
  H76      1.0000 0.88388  0.04247  0.61481  Biso   1.000  H
  C78      1.0000 0.01048  0.07232  0.57218  Biso   1.000  C
  O18      1.0000 0.68763  0.82866  0.61788  Biso   1.000  O
  C79      1.0000 0.00000  0.75000  0.74408  Biso   1.000  C
  H77      1.0000 0.95600  0.44151  0.70069  Biso   1.000  H
  H78      1.0000 0.96888  0.39911  0.66461  Biso   1.000  H
  H79      1.0000 0.94318  0.50020  0.66809  Biso   1.000  H
  C80      1.0000 0.24446  0.85163  0.71018  Biso   1.000  C
  C81      1.0000 0.76850  0.96187  0.65613  Biso   1.000  C
  H80      1.0000 0.98257  0.12079  0.58409  Biso   1.000  H
  H81      1.0000 0.05602  0.09529  0.55740  Biso   1.000  H
  H82      1.0000 0.03693  0.03198  0.58829  Biso   1.000  H
  C82      1.0000 0.65999  0.74820  0.60315  Biso   1.000  C
  H83      1.0000 0.03512  0.78893  0.75861  Biso   1.000  H
  H84      1.0000 0.96488  0.71107  0.75861  Biso   1.000  H
  C83      1.0000 0.93797  0.80602  0.72250  Biso   1.000  C
  H85      1.0000 0.29587  0.81577  0.71519  Biso   1.000  H
  H86      1.0000 0.25160  0.90972  0.72021  Biso   1.000  H
  H87      1.0000 0.23811  0.85751  0.68601  Biso   1.000  H
  C84      1.0000 0.82679  0.90905  0.68008  Biso   1.000  C
  H88      1.0000 0.70660  0.94571  0.65990  Biso   1.000  H
  H89      1.0000 0.77491  0.02491  0.66109  Biso   1.000  H
  H90      1.0000 0.62707  0.76048  0.58269  Biso   1.000  H
  H91      1.0000 0.62260  0.71641  0.61880  Biso   1.000  H
  H92      1.0000 0.71127  0.71247  0.59781  Biso   1.000  H
  C85      1.0000 0.96281  0.89069  0.71161  Biso   1.000  C
  C86      1.0000 0.85564  0.77364  0.71212  Biso   1.000  C
  C87      1.0000 0.90912  0.94057  0.69046  Biso   1.000  C
  C88      1.0000 0.80075  0.82492  0.69160  Biso   1.000  C
  H93      1.0000 0.01709  0.91420  0.71881  Biso   1.000  H
  O19      1.0000 0.83287  0.68984  0.72382  Biso   1.000  O
  O20      1.0000 0.93202  0.02477  0.67878  Biso   1.000  O
  H94      1.0000 0.74519  0.80268  0.68529  Biso   1.000  H
  C89      1.0000 0.75554  0.64837  0.71018  Biso   1.000  C
  C90      1.0000 0.02324  0.04788  0.67797  Biso   1.000  C
  H95      1.0000 0.70413  0.68423  0.71519  Biso   1.000  H
  H96      1.0000 0.74840  0.59028  0.72021  Biso   1.000  H
  H97      1.0000 0.76189  0.64249  0.68601  Biso   1.000  H
  H98      1.0000 0.05682  0.99980  0.66809  Biso   1.000  H
  H99      1.0000 0.04400  0.05849  0.70069  Biso   1.000  H
  H100     1.0000 0.03112  0.10089  0.66461  Biso   1.000  H
  C91      1.0000 0.39837  0.49446  0.53984  Biso   1.000  C
  O21      1.0000 0.43984  0.41713  0.52617  Biso   1.000  O
  H101     1.0000 0.43423  0.54587  0.53480  Biso   1.000  H
  H102     1.0000 0.34028  0.50160  0.52981  Biso   1.000  H
  H103     1.0000 0.39249  0.48811  0.56401  Biso   1.000  H
  C92      1.0000 0.52364  0.39436  0.53788  Biso   1.000  C
  C93      1.0000 0.55602  0.31203  0.52752  Biso   1.000  C
  C94      1.0000 0.57492  0.44925  0.55839  Biso   1.000  C
  C95      1.0000 0.50000  0.25000  0.50592  Biso   1.000  C
  C96      1.0000 0.64069  0.28719  0.53841  Biso   1.000  C
  C97      1.0000 0.65905  0.42321  0.56992  Biso   1.000  C
  H104     1.0000 0.55268  0.50481  0.56470  Biso   1.000  H
  H105     1.0000 0.53893  0.21488  0.49141  Biso   1.000  H
  H106     1.0000 0.46107  0.28512  0.49141  Biso   1.000  H
  C98      1.0000 0.44398  0.18797  0.52752  Biso   1.000  C
  H107     1.0000 0.66420  0.23291  0.53121  Biso   1.000  H
  C99      1.0000 0.69057  0.34088  0.55953  Biso   1.000  C
  C100     1.0000 0.71187  0.48150  0.59386  Biso   1.000  C
  C101     1.0000 0.35931  0.21281  0.53841  Biso   1.000  C
  C102     1.0000 0.47636  0.10564  0.53788  Biso   1.000  C
  O22      1.0000 0.77477  0.31798  0.57124  Biso   1.000  O
  H108     1.0000 0.69571  0.54340  0.59010  Biso   1.000  H
  H109     1.0000 0.77491  0.47509  0.58890  Biso   1.000  H
  C103     1.0000 0.69591  0.45840  0.63066  Biso   1.000  C
  H110     1.0000 0.33580  0.26709  0.53121  Biso   1.000  H
  C104     1.0000 0.30943  0.15912  0.55953  Biso   1.000  C
  C105     1.0000 0.42508  0.05075  0.55839  Biso   1.000  C
  O23      1.0000 0.56016  0.08287  0.52617  Biso   1.000  O
  C106     1.0000 0.79788  0.22676  0.57203  Biso   1.000  C
  C107     1.0000 0.74619  0.39370  0.64695  Biso   1.000  C
  C108     1.0000 0.62814  0.49880  0.64916  Biso   1.000  C
  C109     1.0000 0.34095  0.07679  0.56992  Biso   1.000  C
  O24      1.0000 0.22523  0.18202  0.57124  Biso   1.000  O
  H111     1.0000 0.44732  0.99519  0.56470  Biso   1.000  H
  C110     1.0000 0.60163  0.00554  0.53984  Biso   1.000  C
  H112     1.0000 0.80849  0.20600  0.54930  Biso   1.000  H
  H113     1.0000 0.85089  0.21888  0.58539  Biso   1.000  H
  H114     1.0000 0.74980  0.19318  0.58190  Biso   1.000  H
  H115     1.0000 0.79247  0.36612  0.63519  Biso   1.000  H
  C111     1.0000 0.72917  0.36906  0.68018  Biso   1.000  C
  C112     1.0000 0.61358  0.47670  0.68257  Biso   1.000  C
  O25      1.0000 0.57866  0.56237  0.63211  Biso   1.000  O
  C113     1.0000 0.28813  0.01850  0.59386  Biso   1.000  C
  C114     1.0000 0.20212  0.27324  0.57203  Biso   1.000  C
  H116     1.0000 0.60751  0.01189  0.56401  Biso   1.000  H
  H117     1.0000 0.56577  0.95413  0.53480  Biso   1.000  H
  H118     1.0000 0.65972  0.99840  0.52981  Biso   1.000  H
  C115     1.0000 0.66299  0.41126  0.69891  Biso   1.000  C
  O26      1.0000 0.77684  0.30355  0.69708  Biso   1.000  O
  H119     1.0000 0.56931  0.50661  0.69461  Biso   1.000  H
  C116     1.0000 0.49820  0.59001  0.64687  Biso   1.000  C
  H120     1.0000 0.22509  0.02491  0.58890  Biso   1.000  H
  C117     1.0000 0.30409  0.04160  0.63066  Biso   1.000  C
  H121     1.0000 0.30429  0.95660  0.59010  Biso   1.000  H
  H122     1.0000 0.19151  0.29400  0.54930  Biso   1.000  H
  H123     1.0000 0.14911  0.28112  0.58539  Biso   1.000  H
  H124     1.0000 0.25020  0.30682  0.58190  Biso   1.000  H
  C118     1.0000 0.64096  0.38448  0.73489  Biso   1.000  C
  C119     1.0000 0.82232  0.23952  0.67781  Biso   1.000  C
  H125     1.0000 0.51048  0.62293  0.66730  Biso   1.000  H
  H126     1.0000 0.46641  0.62740  0.63119  Biso   1.000  H
  H127     1.0000 0.46247  0.53873  0.65221  Biso   1.000  H
  C120     1.0000 0.25381  0.10630  0.64695  Biso   1.000  C
  C121     1.0000 0.37186  0.00120  0.64916  Biso   1.000  C
  H128     1.0000 0.69391  0.36038  0.74581  Biso   1.000  H
  H129     1.0000 0.62220  0.43670  0.74759  Biso   1.000  H
  C122     1.0000 0.56744  0.31524  0.73553  Biso   1.000  C
  H130     1.0000 0.87079  0.26743  0.66590  Biso   1.000  H
  H131     1.0000 0.84529  0.19398  0.69260  Biso   1.000  H
  H132     1.0000 0.78198  0.21307  0.66170  Biso   1.000  H
  H133     1.0000 0.20753  0.13388  0.63519  Biso   1.000  H
  C123     1.0000 0.27083  0.13094  0.68018  Biso   1.000  C
  C124     1.0000 0.38642  0.02330  0.68257  Biso   1.000  C
  O27      1.0000 0.42134  0.93763  0.63211  Biso   1.000  O
  C125     1.0000 0.58801  0.22543  0.73553  Biso   1.000  C
  C126     1.0000 0.47763  0.33948  0.73507  Biso   1.000  C
  C127     1.0000 0.33701  0.08874  0.69891  Biso   1.000  C
  O28      1.0000 0.22316  0.19645  0.69708  Biso   1.000  O
  H134     1.0000 0.43069  0.99339  0.69461  Biso   1.000  H
  C128     1.0000 0.50180  0.90999  0.64687  Biso   1.000  C
  C129     1.0000 0.52237  0.16052  0.73507  Biso   1.000  C
  H135     1.0000 0.64757  0.20813  0.73581  Biso   1.000  H
  C130     1.0000 0.41199  0.27457  0.73553  Biso   1.000  C
  O29      1.0000 0.45994  0.43009  0.73474  Biso   1.000  O
  C131     1.0000 0.35904  0.11552  0.73489  Biso   1.000  C
  C132     1.0000 0.17768  0.26048  0.67781  Biso   1.000  C
  H136     1.0000 0.48952  0.87707  0.66730  Biso   1.000  H
  H137     1.0000 0.53359  0.87260  0.63119  Biso   1.000  H
  H138     1.0000 0.53753  0.96127  0.65221  Biso   1.000  H
  C133     1.0000 0.43256  0.18476  0.73553  Biso   1.000  C
  O30      1.0000 0.54006  0.06991  0.73474  Biso   1.000  O
  H139     1.0000 0.35243  0.29187  0.73581  Biso   1.000  H
  C134     1.0000 0.36999  0.45773  0.73125  Biso   1.000  C
  H140     1.0000 0.30609  0.13962  0.74581  Biso   1.000  H
  H141     1.0000 0.37780  0.06330  0.74759  Biso   1.000  H
  H142     1.0000 0.12921  0.23257  0.66590  Biso   1.000  H
  H143     1.0000 0.15471  0.30602  0.69260  Biso   1.000  H
  H144     1.0000 0.21802  0.28693  0.66170  Biso   1.000  H
  C135     1.0000 0.63001  0.04227  0.73125  Biso   1.000  C
  H145     1.0000 0.33667  0.43957  0.75090  Biso   1.000  H
  H146     1.0000 0.36772  0.52150  0.72909  Biso   1.000  H
  H147     1.0000 0.34462  0.43082  0.71130  Biso   1.000  H
  H148     1.0000 0.66333  0.06043  0.75090  Biso   1.000  H
  H149     1.0000 0.65538  0.06918  0.71130  Biso   1.000  H
  H150     1.0000 0.63228  0.97850  0.72909  Biso   1.000  H
  C136     1.0000 0.34095  0.57679  0.43008  Biso   1.000  C
  C137     1.0000 0.28813  0.51850  0.40614  Biso   1.000  C
  C138     1.0000 0.30943  0.65912  0.44047  Biso   1.000  C
  C139     1.0000 0.42508  0.55075  0.44161  Biso   1.000  C
  C140     1.0000 0.30409  0.54160  0.36934  Biso   1.000  C
  H151     1.0000 0.30429  0.45660  0.40990  Biso   1.000  H
  H152     1.0000 0.22509  0.52491  0.41110  Biso   1.000  H
  C141     1.0000 0.35931  0.71281  0.46159  Biso   1.000  C
  O31      1.0000 0.22523  0.68202  0.42876  Biso   1.000  O
  H153     1.0000 0.44732  0.49519  0.43530  Biso   1.000  H
  C142     1.0000 0.47636  0.60564  0.46212  Biso   1.000  C
  C143     1.0000 0.37186  0.50120  0.35084  Biso   1.000  C
  C144     1.0000 0.25381  0.60630  0.35305  Biso   1.000  C
  C145     1.0000 0.44398  0.68797  0.47248  Biso   1.000  C
  H154     1.0000 0.33580  0.76709  0.46879  Biso   1.000  H
  C146     1.0000 0.20212  0.77324  0.42797  Biso   1.000  C
  O32      1.0000 0.56016  0.58287  0.47383  Biso   1.000  O
  C147     1.0000 0.38642  0.52330  0.31743  Biso   1.000  C
  O33      1.0000 0.42134  0.43763  0.36789  Biso   1.000  O
  C148     1.0000 0.27083  0.63094  0.31982  Biso   1.000  C
  H155     1.0000 0.20753  0.63388  0.36481  Biso   1.000  H
  C149     1.0000 0.50000  0.75000  0.49408  Biso   1.000  C
  H156     1.0000 0.19151  0.79400  0.45070  Biso   1.000  H
  H157     1.0000 0.14911  0.78112  0.41461  Biso   1.000  H
  H158     1.0000 0.25020  0.80682  0.41810  Biso   1.000  H
  C150     1.0000 0.60163  0.50554  0.46016  Biso   1.000  C
  C151     1.0000 0.33701  0.58874  0.30109  Biso   1.000  C
  H159     1.0000 0.43069  0.49339  0.30539  Biso   1.000  H
  C152     1.0000 0.50180  0.40999  0.35313  Biso   1.000  C
  O34      1.0000 0.22316  0.69645  0.30292  Biso   1.000  O
  H160     1.0000 0.46107  0.78512  0.50859  Biso   1.000  H
  H161     1.0000 0.53893  0.71488  0.50859  Biso   1.000  H
  C153     1.0000 0.55602  0.81203  0.47248  Biso   1.000  C
  H162     1.0000 0.56577  0.45413  0.46520  Biso   1.000  H
  H163     1.0000 0.65972  0.49840  0.47019  Biso   1.000  H
  H164     1.0000 0.60751  0.51189  0.43599  Biso   1.000  H
  C154     1.0000 0.35904  0.61552  0.26511  Biso   1.000  C
  H165     1.0000 0.48952  0.37707  0.33270  Biso   1.000  H
  H166     1.0000 0.53359  0.37260  0.36881  Biso   1.000  H
  H167     1.0000 0.53753  0.46127  0.34779  Biso   1.000  H
  C155     1.0000 0.17768  0.76048  0.32219  Biso   1.000  C
  C156     1.0000 0.64069  0.78719  0.46159  Biso   1.000  C
  C157     1.0000 0.52364  0.89436  0.46212  Biso   1.000  C
  H168     1.0000 0.30609  0.63962  0.25419  Biso   1.000  H
  H169     1.0000 0.37780  0.56330  0.25241  Biso   1.000  H
  C158     1.0000 0.43256  0.68476  0.26447  Biso   1.000  C
  H170     1.0000 0.12921  0.73257  0.33410  Biso   1.000  H
  H171     1.0000 0.15471  0.80602  0.30740  Biso   1.000  H
  H172     1.0000 0.21802  0.78693  0.33830  Biso   1.000  H
  H173     1.0000 0.66420  0.73291  0.46879  Biso   1.000  H
  C159     1.0000 0.69057  0.84088  0.44047  Biso   1.000  C
  C160     1.0000 0.57492  0.94925  0.44161  Biso   1.000  C
  O35      1.0000 0.43984  0.91713  0.47383  Biso   1.000  O
  C161     1.0000 0.41199  0.77457  0.26447  Biso   1.000  C
  C162     1.0000 0.52237  0.66052  0.26493  Biso   1.000  C
  C163     1.0000 0.65905  0.92321  0.43008  Biso   1.000  C
  O36      1.0000 0.77477  0.81798  0.42876  Biso   1.000  O
  H174     1.0000 0.55268  0.00481  0.43530  Biso   1.000  H
  C164     1.0000 0.39837  0.99446  0.46016  Biso   1.000  C
  H175     1.0000 0.35243  0.79187  0.26419  Biso   1.000  H
  C165     1.0000 0.47763  0.83948  0.26493  Biso   1.000  C
  C166     1.0000 0.58801  0.72543  0.26447  Biso   1.000  C
  O37      1.0000 0.54006  0.56991  0.26526  Biso   1.000  O
  C167     1.0000 0.71187  0.98150  0.40614  Biso   1.000  C
  C168     1.0000 0.79788  0.72676  0.42797  Biso   1.000  C
  H176     1.0000 0.39249  0.98811  0.43599  Biso   1.000  H
  H177     1.0000 0.43423  0.04587  0.46520  Biso   1.000  H
  H178     1.0000 0.34028  0.00160  0.47019  Biso   1.000  H
  C169     1.0000 0.56744  0.81524  0.26447  Biso   1.000  C
  O38      1.0000 0.45994  0.93009  0.26526  Biso   1.000  O
  H179     1.0000 0.64757  0.70813  0.26419  Biso   1.000  H
  C170     1.0000 0.63001  0.54227  0.26875  Biso   1.000  C
  C171     1.0000 0.69591  0.95840  0.36934  Biso   1.000  C
  H180     1.0000 0.77491  0.97509  0.41110  Biso   1.000  H
  H181     1.0000 0.69571  0.04340  0.40990  Biso   1.000  H
  H182     1.0000 0.80849  0.70600  0.45070  Biso   1.000  H
  H183     1.0000 0.85089  0.71888  0.41461  Biso   1.000  H
  H184     1.0000 0.74980  0.69318  0.41810  Biso   1.000  H
  C172     1.0000 0.64096  0.88448  0.26511  Biso   1.000  C
  C173     1.0000 0.36999  0.95773  0.26875  Biso   1.000  C
  H185     1.0000 0.66333  0.56043  0.24910  Biso   1.000  H
  H186     1.0000 0.63228  0.47850  0.27091  Biso   1.000  H
  H187     1.0000 0.65538  0.56918  0.28870  Biso   1.000  H
  C174     1.0000 0.74619  0.89370  0.35305  Biso   1.000  C
  C175     1.0000 0.62814  0.99880  0.35084  Biso   1.000  C
  C176     1.0000 0.66299  0.91126  0.30109  Biso   1.000  C
  H188     1.0000 0.69391  0.86038  0.25419  Biso   1.000  H
  H189     1.0000 0.62220  0.93670  0.25241  Biso   1.000  H
  H190     1.0000 0.33667  0.93957  0.24910  Biso   1.000  H
  H191     1.0000 0.34462  0.93082  0.28870  Biso   1.000  H
  H192     1.0000 0.36772  0.02150  0.27091  Biso   1.000  H
  C177     1.0000 0.72917  0.86906  0.31982  Biso   1.000  C
  H193     1.0000 0.79247  0.86612  0.36481  Biso   1.000  H
  C178     1.0000 0.61358  0.97670  0.31743  Biso   1.000  C
  O39      1.0000 0.57866  0.06237  0.36789  Biso   1.000  O
  O40      1.0000 0.77684  0.80355  0.30292  Biso   1.000  O
  H194     1.0000 0.56931  0.00661  0.30539  Biso   1.000  H
  C179     1.0000 0.49820  0.09001  0.35313  Biso   1.000  C
  C180     1.0000 0.82232  0.73952  0.32219  Biso   1.000  C
  H195     1.0000 0.51048  0.12293  0.33270  Biso   1.000  H
  H196     1.0000 0.46641  0.12740  0.36881  Biso   1.000  H
  H197     1.0000 0.46247  0.03873  0.34779  Biso   1.000  H
  H198     1.0000 0.87079  0.76743  0.33410  Biso   1.000  H
  H199     1.0000 0.84529  0.69398  0.30740  Biso   1.000  H
  H200     1.0000 0.78198  0.71307  0.33830  Biso   1.000  H
  C181     1.0000 0.14096  0.38448  0.76512  Biso   1.000  C
  C182     1.0000 0.06744  0.31524  0.76446  Biso   1.000  C
  C183     1.0000 0.16299  0.41126  0.80108  Biso   1.000  C
  H201     1.0000 0.19391  0.36038  0.75421  Biso   1.000  H
  H202     1.0000 0.12220  0.43670  0.75240  Biso   1.000  H
  C184     1.0000 0.08801  0.22543  0.76449  Biso   1.000  C
  C185     1.0000 0.97763  0.33948  0.76492  Biso   1.000  C
  C186     1.0000 0.22917  0.36906  0.81983  Biso   1.000  C
  C187     1.0000 0.11358  0.47670  0.81744  Biso   1.000  C
  H203     1.0000 0.14757  0.20813  0.76421  Biso   1.000  H
  C188     1.0000 0.02237  0.16052  0.76492  Biso   1.000  C
  C189     1.0000 0.91199  0.27457  0.76449  Biso   1.000  C
  O41      1.0000 0.95994  0.43009  0.76525  Biso   1.000  O
  C190     1.0000 0.24619  0.39370  0.85304  Biso   1.000  C
  O42      1.0000 0.27684  0.30355  0.80294  Biso   1.000  O
  H204     1.0000 0.06931  0.50661  0.80540  Biso   1.000  H
  C191     1.0000 0.12814  0.49880  0.85083  Biso   1.000  C
  O43      1.0000 0.04006  0.06991  0.76525  Biso   1.000  O
  C192     1.0000 0.93256  0.18476  0.76446  Biso   1.000  C
  H205     1.0000 0.85243  0.29187  0.76421  Biso   1.000  H
  C193     1.0000 0.86999  0.45773  0.76876  Biso   1.000  C
  C194     1.0000 0.19591  0.45840  0.86935  Biso   1.000  C
  H206     1.0000 0.29247  0.36612  0.86480  Biso   1.000  H
  C195     1.0000 0.32232  0.23952  0.82217  Biso   1.000  C
  O44      1.0000 0.07866  0.56237  0.86788  Biso   1.000  O
  C196     1.0000 0.13001  0.04227  0.76876  Biso   1.000  C
  C197     1.0000 0.85904  0.11552  0.76512  Biso   1.000  C
  H207     1.0000 0.83667  0.43957  0.74909  Biso   1.000  H
  H208     1.0000 0.86772  0.52150  0.77090  Biso   1.000  H
  H209     1.0000 0.84462  0.43082  0.78871  Biso   1.000  H
  C198     1.0000 0.21187  0.48150  0.90613  Biso   1.000  C
  H210     1.0000 0.37079  0.26743  0.83411  Biso   1.000  H
  H211     1.0000 0.34529  0.19398  0.80739  Biso   1.000  H
  H212     1.0000 0.28198  0.21307  0.83831  Biso   1.000  H
  C199     1.0000 0.99820  0.59001  0.85314  Biso   1.000  C
  H213     1.0000 0.16333  0.06043  0.74909  Biso   1.000  H
  H214     1.0000 0.15538  0.06918  0.78871  Biso   1.000  H
  H215     1.0000 0.13228  0.97850  0.77090  Biso   1.000  H
  C200     1.0000 0.83701  0.08874  0.80108  Biso   1.000  C
  H216     1.0000 0.80609  0.13962  0.75421  Biso   1.000  H
  H217     1.0000 0.87780  0.06330  0.75240  Biso   1.000  H
  C201     1.0000 0.15905  0.42321  0.93010  Biso   1.000  C
  H218     1.0000 0.19571  0.54340  0.90989  Biso   1.000  H
  H219     1.0000 0.27491  0.47509  0.91109  Biso   1.000  H
  H220     1.0000 0.01048  0.62293  0.83271  Biso   1.000  H
  H221     1.0000 0.96641  0.62740  0.86879  Biso   1.000  H
  H222     1.0000 0.96247  0.53873  0.84780  Biso   1.000  H
  C202     1.0000 0.77083  0.13094  0.81983  Biso   1.000  C
  C203     1.0000 0.88642  0.02330  0.81744  Biso   1.000  C
  C204     1.0000 0.19057  0.34088  0.94048  Biso   1.000  C
  C205     1.0000 0.07492  0.44925  0.94160  Biso   1.000  C
  C206     1.0000 0.75381  0.10630  0.85304  Biso   1.000  C
  O45      1.0000 0.72316  0.19645  0.80294  Biso   1.000  O
  H223     1.0000 0.93069  0.99339  0.80540  Biso   1.000  H
  C207     1.0000 0.87186  0.00120  0.85083  Biso   1.000  C
  C208     1.0000 0.14069  0.28719  0.96160  Biso   1.000  C
  O46      1.0000 0.27477  0.31798  0.92877  Biso   1.000  O
  H224     1.0000 0.05268  0.50481  0.93529  Biso   1.000  H
  C209     1.0000 0.02364  0.39436  0.96211  Biso   1.000  C
  C210     1.0000 0.80409  0.04160  0.86935  Biso   1.000  C
  H225     1.0000 0.70753  0.13388  0.86480  Biso   1.000  H
  C211     1.0000 0.67768  0.26048  0.82217  Biso   1.000  C
  O47      1.0000 0.92134  0.93763  0.86788  Biso   1.000  O
  C212     1.0000 0.05602  0.31203  0.97249  Biso   1.000  C
  H226     1.0000 0.16420  0.23291  0.96880  Biso   1.000  H
  C213     1.0000 0.29788  0.22676  0.92796  Biso   1.000  C
  O48      1.0000 0.93984  0.41713  0.97381  Biso   1.000  O
  C214     1.0000 0.78813  0.01850  0.90613  Biso   1.000  C
  H227     1.0000 0.62921  0.23257  0.83411  Biso   1.000  H
  H228     1.0000 0.65471  0.30602  0.80739  Biso   1.000  H
  H229     1.0000 0.71802  0.28693  0.83831  Biso   1.000  H
  C215     1.0000 0.00180  0.90999  0.85314  Biso   1.000  C
  C216     1.0000 0.00000  0.25000  0.99407  Biso   1.000  C
  H230     1.0000 0.30849  0.20600  0.95071  Biso   1.000  H
  H231     1.0000 0.35089  0.21888  0.91460  Biso   1.000  H
  H232     1.0000 0.24980  0.19318  0.91811  Biso   1.000  H
  C217     1.0000 0.89837  0.49446  0.96018  Biso   1.000  C
  H233     1.0000 0.80429  0.95660  0.90989  Biso   1.000  H
  C218     1.0000 0.84095  0.07679  0.93010  Biso   1.000  C
  H234     1.0000 0.72509  0.02491  0.91109  Biso   1.000  H
  H235     1.0000 0.98952  0.87707  0.83271  Biso   1.000  H
  H236     1.0000 0.03359  0.87260  0.86879  Biso   1.000  H
  H237     1.0000 0.03753  0.96127  0.84780  Biso   1.000  H
  C219     1.0000 0.94398  0.18797  0.97249  Biso   1.000  C
  H238     1.0000 0.96107  0.28512  0.00860  Biso   1.000  H
  H239     1.0000 0.03893  0.21488  0.00860  Biso   1.000  H
  H240     1.0000 0.93423  0.54587  0.96519  Biso   1.000  H
  H241     1.0000 0.84028  0.50160  0.97020  Biso   1.000  H
  H242     1.0000 0.89249  0.48811  0.93600  Biso   1.000  H
  C220     1.0000 0.80943  0.15912  0.94048  Biso   1.000  C
  C221     1.0000 0.92508  0.05075  0.94160  Biso   1.000  C
  C222     1.0000 0.85931  0.21281  0.96160  Biso   1.000  C
  C223     1.0000 0.97636  0.10564  0.96211  Biso   1.000  C
  O49      1.0000 0.72523  0.18202  0.92877  Biso   1.000  O
  H243     1.0000 0.94732  0.99519  0.93529  Biso   1.000  H
  H244     1.0000 0.83580  0.26709  0.96880  Biso   1.000  H
  O50      1.0000 0.06016  0.08287  0.97381  Biso   1.000  O
  C224     1.0000 0.70212  0.27324  0.92796  Biso   1.000  C
  C225     1.0000 0.10163  0.00554  0.96018  Biso   1.000  C
  H245     1.0000 0.69151  0.29400  0.95071  Biso   1.000  H
  H246     1.0000 0.64911  0.28112  0.91460  Biso   1.000  H
  H247     1.0000 0.75020  0.30682  0.91811  Biso   1.000  H
  H248     1.0000 0.10751  0.01189  0.93600  Biso   1.000  H
  H249     1.0000 0.06577  0.95413  0.96519  Biso   1.000  H
  H250     1.0000 0.15972  0.99840  0.97020  Biso   1.000  H
  C226     1.0000 0.13001  0.54227  0.23124  Biso   1.000  C
  H251     1.0000 0.16333  0.56043  0.25091  Biso   1.000  H
  H252     1.0000 0.13228  0.47850  0.22910  Biso   1.000  H
  H253     1.0000 0.15538  0.56918  0.21129  Biso   1.000  H
  O51      1.0000 0.04006  0.56991  0.23475  Biso   1.000  O
  C227     1.0000 0.02237  0.66052  0.23508  Biso   1.000  C
  C228     1.0000 0.08801  0.72543  0.23551  Biso   1.000  C
  C229     1.0000 0.93256  0.68476  0.23554  Biso   1.000  C
  C230     1.0000 0.06744  0.81524  0.23554  Biso   1.000  C
  H254     1.0000 0.14757  0.70813  0.23579  Biso   1.000  H
  C231     1.0000 0.85904  0.61552  0.23488  Biso   1.000  C
  C232     1.0000 0.91199  0.77457  0.23551  Biso   1.000  C
  C233     1.0000 0.14096  0.88448  0.23488  Biso   1.000  C
  C234     1.0000 0.97763  0.83948  0.23508  Biso   1.000  C
  C235     1.0000 0.83701  0.58874  0.19892  Biso   1.000  C
  H255     1.0000 0.80609  0.63962  0.24579  Biso   1.000  H
  H256     1.0000 0.87780  0.56330  0.24760  Biso   1.000  H
  H257     1.0000 0.85243  0.79187  0.23579  Biso   1.000  H
  C236     1.0000 0.16299  0.91126  0.19892  Biso   1.000  C
  H258     1.0000 0.19391  0.86038  0.24579  Biso   1.000  H
  H259     1.0000 0.12220  0.93670  0.24760  Biso   1.000  H
  O52      1.0000 0.95994  0.93009  0.23475  Biso   1.000  O
  C237     1.0000 0.77083  0.63094  0.18017  Biso   1.000  C
  C238     1.0000 0.88642  0.52330  0.18256  Biso   1.000  C
  C239     1.0000 0.22917  0.86906  0.18017  Biso   1.000  C
  C240     1.0000 0.11358  0.97670  0.18256  Biso   1.000  C
  C241     1.0000 0.86999  0.95773  0.23124  Biso   1.000  C
  C242     1.0000 0.75381  0.60630  0.14696  Biso   1.000  C
  O53      1.0000 0.72316  0.69645  0.19706  Biso   1.000  O
  H260     1.0000 0.93069  0.49339  0.19460  Biso   1.000  H
  C243     1.0000 0.87186  0.50120  0.14917  Biso   1.000  C
  C244     1.0000 0.24619  0.89370  0.14696  Biso   1.000  C
  O54      1.0000 0.27684  0.80355  0.19706  Biso   1.000  O
  C245     1.0000 0.12814  0.99880  0.14917  Biso   1.000  C
  H261     1.0000 0.06931  0.00661  0.19460  Biso   1.000  H
  H262     1.0000 0.83667  0.93957  0.25091  Biso   1.000  H
  H263     1.0000 0.84462  0.93082  0.21129  Biso   1.000  H
  H264     1.0000 0.86772  0.02150  0.22910  Biso   1.000  H
  C246     1.0000 0.80409  0.54160  0.13065  Biso   1.000  C
  H265     1.0000 0.70753  0.63388  0.13520  Biso   1.000  H
  C247     1.0000 0.67768  0.76048  0.17783  Biso   1.000  C
  O55      1.0000 0.92134  0.43763  0.13212  Biso   1.000  O
  C248     1.0000 0.19591  0.95840  0.13065  Biso   1.000  C
  H266     1.0000 0.29247  0.86612  0.13520  Biso   1.000  H
  C249     1.0000 0.32232  0.73952  0.17783  Biso   1.000  C
  O56      1.0000 0.07866  0.06237  0.13212  Biso   1.000  O
  C250     1.0000 0.78813  0.51850  0.09387  Biso   1.000  C
  H267     1.0000 0.62921  0.73257  0.16589  Biso   1.000  H
  H268     1.0000 0.65471  0.80602  0.19261  Biso   1.000  H
  H269     1.0000 0.71802  0.78693  0.16169  Biso   1.000  H
  C251     1.0000 0.00180  0.40999  0.14686  Biso   1.000  C
  C252     1.0000 0.21187  0.98150  0.09387  Biso   1.000  C
  H270     1.0000 0.37079  0.76743  0.16589  Biso   1.000  H
  H271     1.0000 0.34529  0.69398  0.19261  Biso   1.000  H
  H272     1.0000 0.28198  0.71307  0.16169  Biso   1.000  H
  C253     1.0000 0.99820  0.09001  0.14686  Biso   1.000  C
  C254     1.0000 0.84095  0.57679  0.06990  Biso   1.000  C
  H273     1.0000 0.80429  0.45660  0.09011  Biso   1.000  H
  H274     1.0000 0.72509  0.52491  0.08891  Biso   1.000  H
  H275     1.0000 0.03359  0.37260  0.13121  Biso   1.000  H
  H276     1.0000 0.03753  0.46127  0.15220  Biso   1.000  H
  H277     1.0000 0.98952  0.37707  0.16729  Biso   1.000  H
  C255     1.0000 0.15905  0.92321  0.06990  Biso   1.000  C
  H278     1.0000 0.27491  0.97509  0.08891  Biso   1.000  H
  H279     1.0000 0.19571  0.04340  0.09011  Biso   1.000  H
  H280     1.0000 0.96641  0.12740  0.13121  Biso   1.000  H
  H281     1.0000 0.96247  0.03873  0.15220  Biso   1.000  H
  H282     1.0000 0.01048  0.12293  0.16729  Biso   1.000  H
  C256     1.0000 0.80943  0.65912  0.05952  Biso   1.000  C
  C257     1.0000 0.92508  0.55075  0.05840  Biso   1.000  C
  C258     1.0000 0.19057  0.84088  0.05952  Biso   1.000  C
  C259     1.0000 0.07492  0.94925  0.05840  Biso   1.000  C
  C260     1.0000 0.85931  0.71281  0.03840  Biso   1.000  C
  O57      1.0000 0.72523  0.68202  0.07123  Biso   1.000  O
  H283     1.0000 0.94732  0.49519  0.06471  Biso   1.000  H
  C261     1.0000 0.97636  0.60564  0.03789  Biso   1.000  C
  C262     1.0000 0.14069  0.78719  0.03840  Biso   1.000  C
  O58      1.0000 0.27477  0.81798  0.07123  Biso   1.000  O
  C263     1.0000 0.02364  0.89436  0.03789  Biso   1.000  C
  H284     1.0000 0.05268  0.00481  0.06471  Biso   1.000  H
  C264     1.0000 0.94398  0.68797  0.02751  Biso   1.000  C
  H285     1.0000 0.83580  0.76709  0.03120  Biso   1.000  H
  C265     1.0000 0.70212  0.77324  0.07204  Biso   1.000  C
  O59      1.0000 0.06016  0.58287  0.02619  Biso   1.000  O
  C266     1.0000 0.05602  0.81203  0.02751  Biso   1.000  C
  H286     1.0000 0.16420  0.73291  0.03120  Biso   1.000  H
  C267     1.0000 0.29788  0.72676  0.07204  Biso   1.000  C
  O60      1.0000 0.93984  0.91713  0.02619  Biso   1.000  O
  C268     1.0000 0.00000  0.75000  0.00593  Biso   1.000  C
  H287     1.0000 0.69151  0.79400  0.04929  Biso   1.000  H
  H288     1.0000 0.64911  0.78112  0.08540  Biso   1.000  H
  H289     1.0000 0.75020  0.80682  0.08189  Biso   1.000  H
  C269     1.0000 0.10163  0.50554  0.03982  Biso   1.000  C
  H290     1.0000 0.30849  0.70600  0.04929  Biso   1.000  H
  H291     1.0000 0.35089  0.71888  0.08540  Biso   1.000  H
  H292     1.0000 0.24980  0.69318  0.08189  Biso   1.000  H
  C270     1.0000 0.89837  0.99446  0.03982  Biso   1.000  C
  H293     1.0000 0.96107  0.78512  0.99140  Biso   1.000  H
  H294     1.0000 0.03893  0.71488  0.99140  Biso   1.000  H
  H295     1.0000 0.06577  0.45413  0.03481  Biso   1.000  H
  H296     1.0000 0.15972  0.49840  0.02980  Biso   1.000  H
  H297     1.0000 0.10751  0.51189  0.06400  Biso   1.000  H
  H298     1.0000 0.89249  0.98811  0.06400  Biso   1.000  H
  H299     1.0000 0.93423  0.04587  0.03481  Biso   1.000  H
  H300     1.0000 0.84028  0.00160  0.02980  Biso   1.000  H
  O61      1.0000 0.33287  0.68984  0.77619  Biso   1.000  O
  C271     1.0000 0.35564  0.77364  0.78790  Biso   1.000  C
  C272     1.0000 0.25554  0.64837  0.78983  Biso   1.000  C
  C273     1.0000 0.43797  0.80602  0.77751  Biso   1.000  C
  C274     1.0000 0.30075  0.82492  0.80841  Biso   1.000  C
  H301     1.0000 0.20413  0.68423  0.78479  Biso   1.000  H
  H302     1.0000 0.24840  0.59028  0.77981  Biso   1.000  H
  H303     1.0000 0.26189  0.64249  0.81401  Biso   1.000  H
  C275     1.0000 0.50000  0.75000  0.75591  Biso   1.000  C
  C276     1.0000 0.46281  0.89069  0.78841  Biso   1.000  C
  C277     1.0000 0.32679  0.90905  0.81991  Biso   1.000  C
  H304     1.0000 0.24519  0.80268  0.81469  Biso   1.000  H
  H305     1.0000 0.46488  0.71107  0.74141  Biso   1.000  H
  H306     1.0000 0.53512  0.78893  0.74141  Biso   1.000  H
  C278     1.0000 0.56203  0.69398  0.77751  Biso   1.000  C
  H307     1.0000 0.51709  0.91420  0.78120  Biso   1.000  H
  C279     1.0000 0.40912  0.94057  0.80953  Biso   1.000  C
  C280     1.0000 0.26850  0.96187  0.84388  Biso   1.000  C
  C281     1.0000 0.53719  0.60931  0.78841  Biso   1.000  C
  C282     1.0000 0.64436  0.72636  0.78790  Biso   1.000  C
  O62      1.0000 0.43202  0.02477  0.82123  Biso   1.000  O
  H308     1.0000 0.20660  0.94571  0.84009  Biso   1.000  H
  C283     1.0000 0.29160  0.94591  0.88065  Biso   1.000  C
  H309     1.0000 0.27491  0.02491  0.83889  Biso   1.000  H
  H310     1.0000 0.48291  0.58580  0.78120  Biso   1.000  H
  C284     1.0000 0.59088  0.55943  0.80953  Biso   1.000  C
  C285     1.0000 0.69925  0.67508  0.80841  Biso   1.000  C
  O63      1.0000 0.66713  0.81016  0.77619  Biso   1.000  O
  C286     1.0000 0.52324  0.04788  0.82202  Biso   1.000  C
  C287     1.0000 0.35630  0.99619  0.89694  Biso   1.000  C
  C288     1.0000 0.25120  0.87814  0.89918  Biso   1.000  C
  C289     1.0000 0.67321  0.59095  0.81991  Biso   1.000  C
  O64      1.0000 0.56798  0.47523  0.82123  Biso   1.000  O
  H311     1.0000 0.75481  0.69732  0.81469  Biso   1.000  H
  C290     1.0000 0.74446  0.85163  0.78983  Biso   1.000  C
  H312     1.0000 0.55682  0.99980  0.83190  Biso   1.000  H
  H313     1.0000 0.54400  0.05849  0.79930  Biso   1.000  H
  H314     1.0000 0.53112  0.10089  0.83541  Biso   1.000  H
  C291     1.0000 0.38094  0.97917  0.93017  Biso   1.000  C
  H315     1.0000 0.38388  0.04247  0.88521  Biso   1.000  H
  C292     1.0000 0.27330  0.86358  0.93256  Biso   1.000  C
  O65      1.0000 0.18763  0.82866  0.88210  Biso   1.000  O
  C293     1.0000 0.73150  0.53813  0.84388  Biso   1.000  C
  C294     1.0000 0.47676  0.45212  0.82202  Biso   1.000  C
  H316     1.0000 0.79587  0.81577  0.78479  Biso   1.000  H
  H317     1.0000 0.75160  0.90972  0.77981  Biso   1.000  H
  H318     1.0000 0.73811  0.85751  0.81401  Biso   1.000  H
  C295     1.0000 0.33874  0.91299  0.94893  Biso   1.000  C
  O66      1.0000 0.44645  0.02684  0.94707  Biso   1.000  O
  H319     1.0000 0.24339  0.81931  0.94460  Biso   1.000  H
  C296     1.0000 0.15999  0.74820  0.89686  Biso   1.000  C
  H320     1.0000 0.79340  0.55429  0.84009  Biso   1.000  H
  H321     1.0000 0.72509  0.47509  0.83889  Biso   1.000  H
  C297     1.0000 0.70840  0.55409  0.88065  Biso   1.000  C
  H322     1.0000 0.45600  0.44151  0.79930  Biso   1.000  H
  H323     1.0000 0.46888  0.39911  0.83541  Biso   1.000  H
  H324     1.0000 0.44318  0.50020  0.83190  Biso   1.000  H
  C298     1.0000 0.36552  0.89096  0.98488  Biso   1.000  C
  C299     1.0000 0.51048  0.07232  0.92783  Biso   1.000  C
  H325     1.0000 0.12707  0.76048  0.91730  Biso   1.000  H
  H326     1.0000 0.12260  0.71641  0.88121  Biso   1.000  H
  H327     1.0000 0.21127  0.71247  0.90221  Biso   1.000  H
  C300     1.0000 0.64370  0.50381  0.89694  Biso   1.000  C
  C301     1.0000 0.74880  0.62186  0.89918  Biso   1.000  C
  H328     1.0000 0.38962  0.94391  0.99580  Biso   1.000  H
  H329     1.0000 0.31330  0.87220  0.99761  Biso   1.000  H
  C302     1.0000 0.43476  0.81744  0.98552  Biso   1.000  C
  H330     1.0000 0.48257  0.12079  0.91590  Biso   1.000  H
  H331     1.0000 0.55602  0.09529  0.94259  Biso   1.000  H
  H332     1.0000 0.53693  0.03198  0.91170  Biso   1.000  H
  H333     1.0000 0.61612  0.45753  0.88521  Biso   1.000  H
  C303     1.0000 0.61906  0.52083  0.93017  Biso   1.000  C
  C304     1.0000 0.72670  0.63642  0.93256  Biso   1.000  C
  O67      1.0000 0.81237  0.67134  0.88210  Biso   1.000  O
  C305     1.0000 0.52457  0.83801  0.98552  Biso   1.000  C
  C306     1.0000 0.41052  0.72763  0.98509  Biso   1.000  C
  C307     1.0000 0.66126  0.58701  0.94893  Biso   1.000  C
  O68      1.0000 0.55355  0.47316  0.94707  Biso   1.000  O
  H334     1.0000 0.75661  0.68069  0.94460  Biso   1.000  H
  C308     1.0000 0.84001  0.75180  0.89686  Biso   1.000  C
  C309     1.0000 0.58948  0.77237  0.98509  Biso   1.000  C
  H335     1.0000 0.54187  0.89757  0.98580  Biso   1.000  H
  C310     1.0000 0.47543  0.66199  0.98552  Biso   1.000  C
  O69      1.0000 0.31991  0.70994  0.98473  Biso   1.000  O
  C311     1.0000 0.63448  0.60904  0.98488  Biso   1.000  C
  C312     1.0000 0.48952  0.42768  0.92783  Biso   1.000  C
  H336     1.0000 0.87293  0.73952  0.91730  Biso   1.000  H
  H337     1.0000 0.87740  0.78359  0.88121  Biso   1.000  H
  H338     1.0000 0.78873  0.78753  0.90221  Biso   1.000  H
  C313     1.0000 0.56524  0.68256  0.98552  Biso   1.000  C
  O70      1.0000 0.68009  0.79006  0.98473  Biso   1.000  O
  H339     1.0000 0.45813  0.60243  0.98580  Biso   1.000  H
  C314     1.0000 0.29227  0.61999  0.98125  Biso   1.000  C
  H340     1.0000 0.61038  0.55609  0.99580  Biso   1.000  H
  H341     1.0000 0.68670  0.62780  0.99761  Biso   1.000  H
  H342     1.0000 0.51743  0.37921  0.91590  Biso   1.000  H
  H343     1.0000 0.44398  0.40471  0.94259  Biso   1.000  H
  H344     1.0000 0.46307  0.46802  0.91170  Biso   1.000  H
  C315     1.0000 0.70773  0.88001  0.98125  Biso   1.000  C
  H345     1.0000 0.22850  0.61772  0.97911  Biso   1.000  H
  H346     1.0000 0.31918  0.59462  0.96129  Biso   1.000  H
  H347     1.0000 0.31043  0.58667  0.00089  Biso   1.000  H
  H348     1.0000 0.77150  0.88228  0.97911  Biso   1.000  H
  H349     1.0000 0.68082  0.90538  0.96129  Biso   1.000  H
  H350     1.0000 0.68957  0.91333  0.00089  Biso   1.000  H
  C316     1.0000 0.50000  0.25000  0.24409  Biso   1.000  C
  C317     1.0000 0.43797  0.30602  0.22249  Biso   1.000  C
  H351     1.0000 0.53512  0.28893  0.25859  Biso   1.000  H
  H352     1.0000 0.46488  0.21107  0.25859  Biso   1.000  H
  C318     1.0000 0.56203  0.19398  0.22249  Biso   1.000  C
  C319     1.0000 0.35564  0.27364  0.21210  Biso   1.000  C
  C320     1.0000 0.46281  0.39069  0.21159  Biso   1.000  C
  C321     1.0000 0.53719  0.10931  0.21159  Biso   1.000  C
  C322     1.0000 0.64436  0.22636  0.21210  Biso   1.000  C
  O71      1.0000 0.33287  0.18984  0.22381  Biso   1.000  O
  C323     1.0000 0.30075  0.32492  0.19159  Biso   1.000  C
  H353     1.0000 0.51709  0.41420  0.21880  Biso   1.000  H
  C324     1.0000 0.40912  0.44057  0.19047  Biso   1.000  C
  H354     1.0000 0.48291  0.08580  0.21880  Biso   1.000  H
  C325     1.0000 0.59088  0.05943  0.19047  Biso   1.000  C
  C326     1.0000 0.69925  0.17508  0.19159  Biso   1.000  C
  O72      1.0000 0.66713  0.31016  0.22381  Biso   1.000  O
  C327     1.0000 0.25554  0.14837  0.21017  Biso   1.000  C
  C328     1.0000 0.32679  0.40905  0.18009  Biso   1.000  C
  H355     1.0000 0.24519  0.30268  0.18531  Biso   1.000  H
  O73      1.0000 0.43202  0.52477  0.17877  Biso   1.000  O
  C329     1.0000 0.67321  0.09095  0.18009  Biso   1.000  C
  O74      1.0000 0.56798  0.97523  0.17877  Biso   1.000  O
  H356     1.0000 0.75481  0.19732  0.18531  Biso   1.000  H
  C330     1.0000 0.74446  0.35163  0.21017  Biso   1.000  C
  H357     1.0000 0.20413  0.18423  0.21521  Biso   1.000  H
  H358     1.0000 0.24840  0.09028  0.22019  Biso   1.000  H
  H359     1.0000 0.26189  0.14249  0.18599  Biso   1.000  H
  C331     1.0000 0.26850  0.46187  0.15612  Biso   1.000  C
  C332     1.0000 0.52324  0.54788  0.17798  Biso   1.000  C
  C333     1.0000 0.73150  0.03813  0.15612  Biso   1.000  C
  C334     1.0000 0.47676  0.95212  0.17798  Biso   1.000  C
  H360     1.0000 0.79587  0.31577  0.21521  Biso   1.000  H
  H361     1.0000 0.75160  0.40972  0.22019  Biso   1.000  H
  H362     1.0000 0.73811  0.35751  0.18599  Biso   1.000  H
  H363     1.0000 0.20660  0.44571  0.15991  Biso   1.000  H
  H364     1.0000 0.27491  0.52491  0.16111  Biso   1.000  H
  C335     1.0000 0.29160  0.44591  0.11935  Biso   1.000  C
  H365     1.0000 0.54400  0.55849  0.20070  Biso   1.000  H
  H366     1.0000 0.53112  0.60089  0.16459  Biso   1.000  H
  H367     1.0000 0.55682  0.49980  0.16810  Biso   1.000  H
  H368     1.0000 0.79340  0.05429  0.15991  Biso   1.000  H
  C336     1.0000 0.70840  0.05409  0.11935  Biso   1.000  C
  H369     1.0000 0.72509  0.97509  0.16111  Biso   1.000  H
  H370     1.0000 0.44318  0.00020  0.16810  Biso   1.000  H
  H371     1.0000 0.45600  0.94151  0.20070  Biso   1.000  H
  H372     1.0000 0.46888  0.89911  0.16459  Biso   1.000  H
  C337     1.0000 0.35630  0.49619  0.10306  Biso   1.000  C
  C338     1.0000 0.25120  0.37814  0.10082  Biso   1.000  C
  C339     1.0000 0.64370  0.00381  0.10306  Biso   1.000  C
  C340     1.0000 0.74880  0.12186  0.10082  Biso   1.000  C
  H373     1.0000 0.38388  0.54247  0.11479  Biso   1.000  H
  C341     1.0000 0.38094  0.47917  0.06983  Biso   1.000  C
  C342     1.0000 0.27330  0.36358  0.06744  Biso   1.000  C
  O75      1.0000 0.18763  0.32866  0.11790  Biso   1.000  O
  C343     1.0000 0.61906  0.02083  0.06983  Biso   1.000  C
  H374     1.0000 0.61612  0.95753  0.11479  Biso   1.000  H
  C344     1.0000 0.72670  0.13642  0.06744  Biso   1.000  C
  O76      1.0000 0.81237  0.17134  0.11790  Biso   1.000  O
  C345     1.0000 0.33874  0.41299  0.05107  Biso   1.000  C
  O77      1.0000 0.44645  0.52684  0.05293  Biso   1.000  O
  H375     1.0000 0.24339  0.31931  0.05540  Biso   1.000  H
  C346     1.0000 0.15999  0.24820  0.10314  Biso   1.000  C
  C347     1.0000 0.66126  0.08701  0.05107  Biso   1.000  C
  O78      1.0000 0.55355  0.97316  0.05293  Biso   1.000  O
  H376     1.0000 0.75661  0.18069  0.05540  Biso   1.000  H
  C348     1.0000 0.84001  0.25180  0.10314  Biso   1.000  C
  C349     1.0000 0.36552  0.39096  0.01512  Biso   1.000  C
  C350     1.0000 0.51048  0.57232  0.07217  Biso   1.000  C
  H377     1.0000 0.12707  0.26048  0.08270  Biso   1.000  H
  H378     1.0000 0.12260  0.21641  0.11879  Biso   1.000  H
  H379     1.0000 0.21127  0.21247  0.09779  Biso   1.000  H
  C351     1.0000 0.63448  0.10904  0.01512  Biso   1.000  C
  C352     1.0000 0.48952  0.92768  0.07217  Biso   1.000  C
  H380     1.0000 0.87293  0.23952  0.08270  Biso   1.000  H
  H381     1.0000 0.87740  0.28359  0.11879  Biso   1.000  H
  H382     1.0000 0.78873  0.28753  0.09779  Biso   1.000  H
  H383     1.0000 0.38962  0.44391  0.00420  Biso   1.000  H
  H384     1.0000 0.31330  0.37220  0.00239  Biso   1.000  H
  C353     1.0000 0.43476  0.31744  0.01448  Biso   1.000  C
  H385     1.0000 0.48257  0.62079  0.08410  Biso   1.000  H
  H386     1.0000 0.55602  0.59529  0.05741  Biso   1.000  H
  H387     1.0000 0.53693  0.53198  0.08830  Biso   1.000  H
  C354     1.0000 0.56524  0.18256  0.01448  Biso   1.000  C
  H388     1.0000 0.61038  0.05609  0.00420  Biso   1.000  H
  H389     1.0000 0.68670  0.12780  0.00239  Biso   1.000  H
  H390     1.0000 0.51743  0.87921  0.08410  Biso   1.000  H
  H391     1.0000 0.44398  0.90471  0.05741  Biso   1.000  H
  H392     1.0000 0.46307  0.96802  0.08830  Biso   1.000  H
  C355     1.0000 0.52457  0.33801  0.01448  Biso   1.000  C
  C356     1.0000 0.41052  0.22763  0.01491  Biso   1.000  C
  C357     1.0000 0.58948  0.27237  0.01491  Biso   1.000  C
  C358     1.0000 0.47543  0.16199  0.01448  Biso   1.000  C
  H393     1.0000 0.54187  0.39757  0.01420  Biso   1.000  H
  O79      1.0000 0.31991  0.20994  0.01527  Biso   1.000  O
  O80      1.0000 0.68009  0.29006  0.01527  Biso   1.000  O
  H394     1.0000 0.45813  0.10243  0.01420  Biso   1.000  H
  C359     1.0000 0.29227  0.11999  0.01875  Biso   1.000  C
  C360     1.0000 0.70773  0.38001  0.01875  Biso   1.000  C
  H395     1.0000 0.22850  0.11772  0.02089  Biso   1.000  H
  H396     1.0000 0.31918  0.09462  0.03871  Biso   1.000  H
  H397     1.0000 0.31043  0.08667  0.99911  Biso   1.000  H
  H398     1.0000 0.77150  0.38228  0.02089  Biso   1.000  H
  H399     1.0000 0.68082  0.40538  0.03871  Biso   1.000  H
  H400     1.0000 0.68957  0.41333  0.99911  Biso   1.000  H
