data_image0
_cell_length_a       20.804
_cell_length_b       20.804
_cell_length_c       45.126
_cell_angle_alpha    90
_cell_angle_beta     90
_cell_angle_gamma    120

_symmetry_space_group_name_H-M    "P 1"
_symmetry_int_tables_number       1

loop_
  _symmetry_equiv_pos_as_xyz
  'x, y, z'

loop_
  _atom_site_label
  _atom_site_occupancy
  _atom_site_fract_x
  _atom_site_fract_y
  _atom_site_fract_z
  _atom_site_thermal_displace_type
  _atom_site_B_iso_or_equiv
  _atom_site_type_symbol
  C1       1.0000 0.68481  0.61909  0.42410  Biso   1.000  C
  C2       1.0000 0.64621  0.60072  0.39419  Biso   1.000  C
  C3       1.0000 0.62681  0.59173  0.44830  Biso   1.000  C
  H1       1.0000 0.71459  0.59539  0.42590  Biso   1.000  H
  H2       1.0000 0.71729  0.67232  0.42590  Biso   1.000  H
  C4       1.0000 0.59698  0.63369  0.39068  Biso   1.000  C
  H3       1.0000 0.68320  0.61942  0.37861  Biso   1.000  H
  H4       1.0000 0.61662  0.54732  0.39199  Biso   1.000  H
  C5       1.0000 0.57591  0.62259  0.44571  Biso   1.000  C
  H5       1.0000 0.59777  0.53789  0.44750  Biso   1.000  H
  H6       1.0000 0.65148  0.60549  0.46740  Biso   1.000  H
  N1       1.0000 0.55840  0.61132  0.36245  Biso   1.000  N
  H7       1.0000 0.62703  0.68791  0.39159  Biso   1.000  H
  C6       1.0000 0.53909  0.60538  0.41566  Biso   1.000  C
  H8       1.0000 0.60390  0.67598  0.44861  Biso   1.000  H
  H9       1.0000 0.53830  0.60149  0.46100  Biso   1.000  H
  C7       1.0000 0.56600  0.66122  0.34450  Biso   1.000  C
  N2       1.0000 0.49559  0.64201  0.41278  Biso   1.000  N
  H10      1.0000 0.50638  0.55160  0.41371  Biso   1.000  H
  C8       1.0000 0.53258  0.64640  0.31510  Biso   1.000  C
  H11      1.0000 0.59472  0.71039  0.35040  Biso   1.000  H
  C9       1.0000 0.42740  0.60322  0.40777  Biso   1.000  C
  C10      1.0000 0.48047  0.57458  0.30601  Biso   1.000  C
  C11      1.0000 0.55272  0.70340  0.29491  Biso   1.000  C
  C12      1.0000 0.37937  0.63607  0.40555  Biso   1.000  C
  H12      1.0000 0.40661  0.55232  0.40540  Biso   1.000  H
  C13      1.0000 0.44881  0.55942  0.27849  Biso   1.000  C
  H13      1.0000 0.46681  0.53561  0.31920  Biso   1.000  H
  C14      1.0000 0.52402  0.69041  0.26668  Biso   1.000  C
  H14      1.0000 0.58648  0.75180  0.30060  Biso   1.000  H
  C15      1.0000 0.40810  0.71189  0.40527  Biso   1.000  C
  C16      1.0000 0.30378  0.59189  0.40527  Biso   1.000  C
  C17      1.0000 0.39591  0.48360  0.26918  Biso   1.000  C
  C18      1.0000 0.47133  0.61781  0.25801  Biso   1.000  C
  C19      1.0000 0.55088  0.75241  0.24538  Biso   1.000  C
  C20      1.0000 0.36391  0.74331  0.40555  Biso   1.000  C
  H15      1.0000 0.45942  0.74292  0.40480  Biso   1.000  H
  C21      1.0000 0.25670  0.62059  0.40555  Biso   1.000  C
  H16      1.0000 0.28352  0.54061  0.40480  Biso   1.000  H
  N3       1.0000 0.37072  0.46351  0.24425  Biso   1.000  N
  H17      1.0000 0.37973  0.44703  0.28369  Biso   1.000  H
  H18      1.0000 0.45158  0.60860  0.23900  Biso   1.000  H
  N4       1.0000 0.60290  0.81568  0.25088  Biso   1.000  N
  H19      1.0000 0.52768  0.74370  0.22701  Biso   1.000  H
  C22      1.0000 0.28810  0.69618  0.40527  Biso   1.000  C
  C23      1.0000 0.39680  0.82418  0.40777  Biso   1.000  C
  C24      1.0000 0.17578  0.57258  0.40777  Biso   1.000  C
  C25      1.0000 0.31873  0.38481  0.23909  Biso   1.000  C
  C26      1.0000 0.62628  0.87119  0.22812  Biso   1.000  C
  H20      1.0000 0.25711  0.71650  0.40480  Biso   1.000  H
  N5       1.0000 0.35801  0.85359  0.41278  Biso   1.000  N
  H21      1.0000 0.44773  0.85431  0.40540  Biso   1.000  H
  N6       1.0000 0.14641  0.50442  0.41278  Biso   1.000  N
  H22      1.0000 0.14571  0.59339  0.40540  Biso   1.000  H
  C27      1.0000 0.35097  0.35528  0.21628  Biso   1.000  C
  C28      1.0000 0.24492  0.37371  0.22812  Biso   1.000  C
  H23      1.0000 0.31090  0.35761  0.25770  Biso   1.000  H
  H24      1.0000 0.59781  0.84982  0.20990  Biso   1.000  H
  C29      1.0000 0.70960  0.90238  0.22229  Biso   1.000  C
  C30      1.0000 0.61519  0.93391  0.23909  Biso   1.000  C
  C31      1.0000 0.39460  0.93368  0.41566  Biso   1.000  C
  C32      1.0000 0.06630  0.46090  0.41566  Biso   1.000  C
  C33      1.0000 0.30150  0.27441  0.21030  Biso   1.000  C
  H25      1.0000 0.35929  0.38259  0.19789  Biso   1.000  H
  H26      1.0000 0.39858  0.36349  0.22331  Biso   1.000  H
  C34      1.0000 0.19278  0.29040  0.22229  Biso   1.000  C
  N7       1.0000 0.21277  0.39707  0.25088  Biso   1.000  N
  H27      1.0000 0.25199  0.40218  0.20990  Biso   1.000  H
  H28      1.0000 0.71733  0.86342  0.21440  Biso   1.000  H
  H29      1.0000 0.73661  0.91920  0.24079  Biso   1.000  H
  C35      1.0000 0.74001  0.96782  0.20020  Biso   1.000  C
  C36      1.0000 0.64469  0.99568  0.21628  Biso   1.000  C
  N8       1.0000 0.53652  0.90721  0.24425  Biso   1.000  N
  H30      1.0000 0.64238  0.95328  0.25770  Biso   1.000  H
  C37      1.0000 0.36630  0.96332  0.39068  Biso   1.000  C
  C38      1.0000 0.37738  0.95328  0.44571  Biso   1.000  C
  H31      1.0000 0.44840  0.95478  0.41371  Biso   1.000  H
  C39      1.0000 0.03673  0.40301  0.39068  Biso   1.000  C
  C40      1.0000 0.04670  0.42410  0.44571  Biso   1.000  C
  H32      1.0000 0.04520  0.49360  0.41371  Biso   1.000  H
  C41      1.0000 0.22781  0.25998  0.20020  Biso   1.000  C
  H33      1.0000 0.32360  0.25843  0.19521  Biso   1.000  H
  H34      1.0000 0.29592  0.24633  0.22821  Biso   1.000  H
  H35      1.0000 0.14610  0.28268  0.21440  Biso   1.000  H
  H36      1.0000 0.18261  0.26342  0.24079  Biso   1.000  H
  C42      1.0000 0.20147  0.44908  0.24538  Biso   1.000  C
  H37      1.0000 0.79297  0.98808  0.19780  Biso   1.000  H
  H38      1.0000 0.71684  0.94973  0.18100  Biso   1.000  H
  C43      1.0000 0.72558  0.02710  0.21030  Biso   1.000  C
  H39      1.0000 0.61741  0.97670  0.19789  Biso   1.000  H
  H40      1.0000 0.63651  0.03509  0.22331  Biso   1.000  H
  C44      1.0000 0.51639  0.91232  0.26918  Biso   1.000  C
  N9       1.0000 0.38872  0.94712  0.36245  Biso   1.000  N
  H41      1.0000 0.31209  0.93912  0.39159  Biso   1.000  H
  C45      1.0000 0.39932  0.04552  0.39419  Biso   1.000  C
  H42      1.0000 0.32398  0.92791  0.44861  Biso   1.000  H
  H43      1.0000 0.39851  0.93679  0.46100  Biso   1.000  H
  C46      1.0000 0.40829  0.03509  0.44830  Biso   1.000  C
  N10      1.0000 0.05289  0.44159  0.36245  Biso   1.000  N
  H44      1.0000 0.06089  0.37299  0.39159  Biso   1.000  H
  C47      1.0000 0.95448  0.35378  0.39419  Biso   1.000  C
  H45      1.0000 0.07210  0.39607  0.44861  Biso   1.000  H
  H46      1.0000 0.06318  0.46168  0.46100  Biso   1.000  H
  C48      1.0000 0.96492  0.37321  0.44830  Biso   1.000  C
  H47      1.0000 0.19510  0.20697  0.19780  Biso   1.000  H
  H48      1.0000 0.23287  0.28318  0.18100  Biso   1.000  H
  C49      1.0000 0.16638  0.47600  0.26668  Biso   1.000  C
  H49      1.0000 0.21600  0.47228  0.22701  Biso   1.000  H
  H50      1.0000 0.74161  0.06523  0.19521  Biso   1.000  H
  H51      1.0000 0.75371  0.04963  0.22821  Biso   1.000  H
  C50      1.0000 0.44061  0.88939  0.27849  Biso   1.000  C
  H52      1.0000 0.55301  0.93269  0.28369  Biso   1.000  H
  C51      1.0000 0.33883  0.90482  0.34450  Biso   1.000  C
  C52      1.0000 0.38092  0.06573  0.42410  Biso   1.000  C
  H53      1.0000 0.38058  0.06379  0.37861  Biso   1.000  H
  H54      1.0000 0.45271  0.06934  0.39199  Biso   1.000  H
  H55      1.0000 0.46208  0.05990  0.44750  Biso   1.000  H
  H56      1.0000 0.39453  0.04602  0.46740  Biso   1.000  H
  C53      1.0000 0.09519  0.43398  0.34450  Biso   1.000  C
  C54      1.0000 0.93428  0.31521  0.42410  Biso   1.000  C
  H57      1.0000 0.93619  0.31682  0.37861  Biso   1.000  H
  H58      1.0000 0.93070  0.38342  0.39199  Biso   1.000  H
  H59      1.0000 0.94008  0.40218  0.44750  Biso   1.000  H
  H60      1.0000 0.95401  0.34851  0.46740  Biso   1.000  H
  C55      1.0000 0.15069  0.44730  0.29491  Biso   1.000  C
  C56      1.0000 0.14647  0.52867  0.25801  Biso   1.000  C
  C57      1.0000 0.42540  0.90588  0.30601  Biso   1.000  C
  C58      1.0000 0.38218  0.85348  0.25801  Biso   1.000  C
  C59      1.0000 0.35358  0.88617  0.31510  Biso   1.000  C
  H61      1.0000 0.28958  0.88429  0.35040  Biso   1.000  H
  H62      1.0000 0.40460  0.11923  0.42590  Biso   1.000  H
  H63      1.0000 0.32769  0.04503  0.42590  Biso   1.000  H
  C60      1.0000 0.11382  0.46740  0.31510  Biso   1.000  C
  H64      1.0000 0.11569  0.40529  0.35040  Biso   1.000  H
  H65      1.0000 0.88078  0.28540  0.42590  Biso   1.000  H
  H66      1.0000 0.95498  0.28268  0.42590  Biso   1.000  H
  H67      1.0000 0.16532  0.41350  0.30060  Biso   1.000  H
  C61      1.0000 0.11059  0.55121  0.27849  Biso   1.000  C
  H68      1.0000 0.15700  0.54838  0.23900  Biso   1.000  H
  H69      1.0000 0.46439  0.93119  0.31920  Biso   1.000  H
  C62      1.0000 0.30961  0.83361  0.26668  Biso   1.000  C
  H70      1.0000 0.39141  0.84299  0.23900  Biso   1.000  H
  C63      1.0000 0.29661  0.84932  0.29491  Biso   1.000  C
  C64      1.0000 0.09412  0.51952  0.30601  Biso   1.000  C
  C65      1.0000 0.08772  0.60410  0.26918  Biso   1.000  C
  C66      1.0000 0.24759  0.79848  0.24538  Biso   1.000  C
  H71      1.0000 0.24821  0.83472  0.30060  Biso   1.000  H
  H72      1.0000 0.06881  0.53322  0.31920  Biso   1.000  H
  H73      1.0000 0.06732  0.62031  0.28369  Biso   1.000  H
  N11      1.0000 0.09282  0.62930  0.24425  Biso   1.000  N
  N12      1.0000 0.18432  0.78721  0.25088  Biso   1.000  N
  H74      1.0000 0.25630  0.78399  0.22701  Biso   1.000  H
  C67      1.0000 0.06609  0.68131  0.23909  Biso   1.000  C
  C68      1.0000 0.12879  0.75507  0.22812  Biso   1.000  C
  C69      1.0000 0.00432  0.64901  0.21628  Biso   1.000  C
  H75      1.0000 0.04671  0.68908  0.25770  Biso   1.000  H
  H76      1.0000 0.15021  0.74802  0.20990  Biso   1.000  H
  C70      1.0000 0.09760  0.80719  0.22229  Biso   1.000  C
  H77      1.0000 0.02328  0.64068  0.19789  Biso   1.000  H
  H78      1.0000 0.96489  0.60138  0.22331  Biso   1.000  H
  C71      1.0000 0.97289  0.69852  0.21030  Biso   1.000  C
  C72      1.0000 0.03219  0.77222  0.20020  Biso   1.000  C
  H79      1.0000 0.13663  0.85393  0.21440  Biso   1.000  H
  H80      1.0000 0.08078  0.81740  0.24079  Biso   1.000  H
  H81      1.0000 0.93483  0.67642  0.19521  Biso   1.000  H
  H82      1.0000 0.95041  0.70412  0.22821  Biso   1.000  H
  H83      1.0000 0.01191  0.80492  0.19780  Biso   1.000  H
  H84      1.0000 0.05031  0.76712  0.18100  Biso   1.000  H
  C73      1.0000 0.80934  0.83306  0.39999  Biso   1.000  C
  C74      1.0000 0.78062  0.81735  0.37176  Biso   1.000  C
  C75      1.0000 0.86203  0.81319  0.40866  Biso   1.000  C
  C76      1.0000 0.78244  0.86819  0.42129  Biso   1.000  C
  C77      1.0000 0.80075  0.78049  0.35157  Biso   1.000  C
  H85      1.0000 0.74682  0.83195  0.36606  Biso   1.000  H
  C78      1.0000 0.88455  0.77727  0.38818  Biso   1.000  C
  H86      1.0000 0.88175  0.82368  0.42767  Biso   1.000  H
  N13      1.0000 0.73044  0.87946  0.41579  Biso   1.000  N
  H87      1.0000 0.80564  0.88268  0.43966  Biso   1.000  H
  C79      1.0000 0.76734  0.76184  0.32216  Biso   1.000  C
  C80      1.0000 0.85285  0.76079  0.36066  Biso   1.000  C
  C81      1.0000 0.93740  0.75435  0.39749  Biso   1.000  C
  C82      1.0000 0.70705  0.91159  0.43855  Biso   1.000  C
  N14      1.0000 0.77494  0.71955  0.30421  Biso   1.000  N
  H88      1.0000 0.73862  0.78238  0.31627  Biso   1.000  H
  H89      1.0000 0.86654  0.73548  0.34747  Biso   1.000  H
  H90      1.0000 0.95366  0.73398  0.38297  Biso   1.000  H
  N15      1.0000 0.96265  0.75946  0.42242  Biso   1.000  N
  H91      1.0000 0.73552  0.91864  0.45677  Biso   1.000  H
  C83      1.0000 0.62374  0.85948  0.44438  Biso   1.000  C
  C84      1.0000 0.71812  0.98536  0.42758  Biso   1.000  C
  C85      1.0000 0.73631  0.70334  0.27598  Biso   1.000  C
  C86      1.0000 0.01462  0.73276  0.42758  Biso   1.000  C
  H92      1.0000 0.61604  0.81274  0.45227  Biso   1.000  H
  H93      1.0000 0.59671  0.84926  0.42587  Biso   1.000  H
  C87      1.0000 0.59330  0.89444  0.46647  Biso   1.000  C
  H94      1.0000 0.69097  0.97759  0.40897  Biso   1.000  H
  C88      1.0000 0.68865  0.01766  0.45038  Biso   1.000  C
  N16      1.0000 0.79685  0.03737  0.42242  Biso   1.000  N
  C89      1.0000 0.68713  0.62114  0.27248  Biso   1.000  C
  C90      1.0000 0.79425  0.73298  0.25101  Biso   1.000  C
  H95      1.0000 0.70630  0.72754  0.27507  Biso   1.000  H
  C91      1.0000 0.98234  0.67099  0.45038  Biso   1.000  C
  C92      1.0000 0.08842  0.79548  0.43855  Biso   1.000  C
  H96      1.0000 0.02243  0.71339  0.40897  Biso   1.000  H
  H97      1.0000 0.54033  0.86175  0.46886  Biso   1.000  H
  H98      1.0000 0.61652  0.89955  0.48566  Biso   1.000  H
  C93      1.0000 0.60771  0.96815  0.45637  Biso   1.000  C
  H99      1.0000 0.71594  0.02599  0.46878  Biso   1.000  H
  H100     1.0000 0.69684  0.06528  0.44336  Biso   1.000  H
  C94      1.0000 0.81695  0.06256  0.39749  Biso   1.000  C
  C95      1.0000 0.64853  0.60094  0.24257  Biso   1.000  C
  H101     1.0000 0.65012  0.60288  0.28806  Biso   1.000  H
  H102     1.0000 0.71674  0.59739  0.27468  Biso   1.000  H
  C96      1.0000 0.75744  0.71339  0.22096  Biso   1.000  C
  N17      1.0000 0.83775  0.81307  0.25389  Biso   1.000  N
  H103     1.0000 0.82696  0.71189  0.25296  Biso   1.000  H
  H104     1.0000 0.97405  0.68997  0.46878  Biso   1.000  H
  H105     1.0000 0.93476  0.63158  0.44336  Biso   1.000  H
  C97      1.0000 0.03181  0.63957  0.45637  Biso   1.000  C
  N18      1.0000 0.12055  0.85098  0.41579  Biso   1.000  N
  H106     1.0000 0.08132  0.81685  0.45677  Biso   1.000  H
  C98      1.0000 0.14056  0.76429  0.44438  Biso   1.000  C
  H107     1.0000 0.59174  0.99024  0.47146  Biso   1.000  H
  H108     1.0000 0.57962  0.96255  0.43846  Biso   1.000  H
  C99      1.0000 0.89271  0.11546  0.38818  Biso   1.000  C
  H109     1.0000 0.78034  0.04636  0.38297  Biso   1.000  H
  C100     1.0000 0.70653  0.63158  0.21837  Biso   1.000  C
  H110     1.0000 0.61873  0.54749  0.24077  Biso   1.000  H
  H111     1.0000 0.61600  0.62164  0.24077  Biso   1.000  H
  H112     1.0000 0.72940  0.73876  0.21806  Biso   1.000  H
  H113     1.0000 0.79505  0.72987  0.20567  Biso   1.000  H
  C101     1.0000 0.90596  0.84249  0.25890  Biso   1.000  C
  C102     1.0000 0.10553  0.69885  0.46647  Biso   1.000  C
  H114     1.0000 0.00975  0.60149  0.47146  Biso   1.000  H
  H115     1.0000 0.03744  0.61709  0.43846  Biso   1.000  H
  C103     1.0000 0.13181  0.91426  0.42129  Biso   1.000  C
  H116     1.0000 0.18724  0.80325  0.45227  Biso   1.000  H
  H117     1.0000 0.15075  0.74747  0.42587  Biso   1.000  H
  C104     1.0000 0.90793  0.14715  0.36066  Biso   1.000  C
  C105     1.0000 0.95114  0.13799  0.40866  Biso   1.000  C
  H118     1.0000 0.73551  0.60677  0.21916  Biso   1.000  H
  H119     1.0000 0.68184  0.62064  0.19926  Biso   1.000  H
  C106     1.0000 0.95394  0.92336  0.26111  Biso   1.000  C
  H120     1.0000 0.92675  0.81235  0.26127  Biso   1.000  H
  H121     1.0000 0.13823  0.67859  0.46886  Biso   1.000  H
  H122     1.0000 0.10044  0.71694  0.48566  Biso   1.000  H
  C107     1.0000 0.16694  0.97626  0.39999  Biso   1.000  C
  H123     1.0000 0.11732  0.92297  0.43966  Biso   1.000  H
  C108     1.0000 0.97975  0.19927  0.35157  Biso   1.000  C
  H124     1.0000 0.86895  0.13350  0.34747  Biso   1.000  H
  H125     1.0000 0.94196  0.11829  0.42767  Biso   1.000  H
  C109     1.0000 0.02371  0.19067  0.39999  Biso   1.000  C
  C110     1.0000 0.92525  0.97048  0.26140  Biso   1.000  C
  C111     1.0000 0.02954  0.95478  0.26140  Biso   1.000  C
  C112     1.0000 0.18265  0.96327  0.37176  Biso   1.000  C
  C113     1.0000 0.18685  0.04885  0.40866  Biso   1.000  C
  C114     1.0000 0.99454  0.23268  0.32216  Biso   1.000  C
  C115     1.0000 0.03671  0.21936  0.37176  Biso   1.000  C
  C116     1.0000 0.08572  0.21759  0.42129  Biso   1.000  C
  H126     1.0000 0.87395  0.95017  0.26187  Biso   1.000  H
  C117     1.0000 0.96944  0.04608  0.26111  Biso   1.000  C
  H127     1.0000 0.04984  0.92375  0.26187  Biso   1.000  H
  C118     1.0000 0.07663  0.03059  0.26111  Biso   1.000  C
  C119     1.0000 0.21952  0.02027  0.35157  Biso   1.000  C
  H128     1.0000 0.16802  0.91487  0.36606  Biso   1.000  H
  C120     1.0000 0.22275  0.10730  0.38818  Biso   1.000  C
  H129     1.0000 0.17631  0.05807  0.42767  Biso   1.000  H
  N19      1.0000 0.94464  0.22508  0.30421  Biso   1.000  N
  H130     1.0000 0.04373  0.26138  0.31627  Biso   1.000  H
  H131     1.0000 0.08515  0.25316  0.36606  Biso   1.000  H
  N20      1.0000 0.14902  0.26959  0.41579  Biso   1.000  N
  H132     1.0000 0.07705  0.19439  0.43966  Biso   1.000  H
  C121     1.0000 0.93654  0.09409  0.25890  Biso   1.000  C
  C122     1.0000 0.04522  0.07478  0.26140  Biso   1.000  C
  C123     1.0000 0.15752  0.06345  0.25890  Biso   1.000  C
  C124     1.0000 0.23811  0.00545  0.32216  Biso   1.000  C
  C125     1.0000 0.23923  0.09209  0.36066  Biso   1.000  C
  C126     1.0000 0.24564  0.18306  0.39749  Biso   1.000  C
  C127     1.0000 0.96705  0.26365  0.27598  Biso   1.000  C
  C128     1.0000 0.20455  0.29296  0.43855  Biso   1.000  C
  N21      1.0000 0.97536  0.16230  0.25389  Biso   1.000  N
  H133     1.0000 0.88566  0.07328  0.26127  Biso   1.000  H
  H134     1.0000 0.07625  0.12606  0.26187  Biso   1.000  H
  N22      1.0000 0.18691  0.02466  0.25389  Biso   1.000  N
  H135     1.0000 0.18766  0.11440  0.26127  Biso   1.000  H
  N23      1.0000 0.28044  0.05540  0.30421  Biso   1.000  N
  H136     1.0000 0.21766  0.95627  0.31627  Biso   1.000  H
  H137     1.0000 0.26453  0.13106  0.34747  Biso   1.000  H
  H138     1.0000 0.26607  0.21970  0.38297  Biso   1.000  H
  N24      1.0000 0.24054  0.20316  0.42242  Biso   1.000  N
  C129     1.0000 0.93873  0.20576  0.25101  Biso   1.000  C
  C130     1.0000 0.93403  0.31289  0.27248  Biso   1.000  C
  H139     1.0000 0.02124  0.29368  0.27507  Biso   1.000  H
  C131     1.0000 0.26725  0.28186  0.42758  Biso   1.000  C
  H140     1.0000 0.18315  0.26449  0.45677  Biso   1.000  H
  C132     1.0000 0.23572  0.37627  0.44438  Biso   1.000  C
  C133     1.0000 0.26704  0.06129  0.25101  Biso   1.000  C
  C134     1.0000 0.29663  0.03298  0.27598  Biso   1.000  C
  C135     1.0000 0.95593  0.24256  0.22096  Biso   1.000  C
  H141     1.0000 0.88494  0.17307  0.25296  Biso   1.000  H
  C136     1.0000 0.95241  0.35146  0.24257  Biso   1.000  C
  H142     1.0000 0.95271  0.34985  0.28806  Biso   1.000  H
  H143     1.0000 0.88064  0.28330  0.27468  Biso   1.000  H
  C137     1.0000 0.32903  0.31139  0.45038  Biso   1.000  C
  H144     1.0000 0.28662  0.30906  0.40897  Biso   1.000  H
  H145     1.0000 0.19675  0.38399  0.45227  Biso   1.000  H
  H146     1.0000 0.25255  0.40330  0.42587  Biso   1.000  H
  C138     1.0000 0.30116  0.40669  0.46647  Biso   1.000  C
  C139     1.0000 0.28665  0.04408  0.22096  Biso   1.000  C
  H147     1.0000 0.28812  0.11507  0.25296  Biso   1.000  H
  H148     1.0000 0.27245  0.97875  0.27507  Biso   1.000  H
  C140     1.0000 0.37885  0.06601  0.27248  Biso   1.000  C
  H149     1.0000 0.93483  0.20499  0.20567  Biso   1.000  H
  C141     1.0000 0.92504  0.29346  0.21837  Biso   1.000  C
  H150     1.0000 0.00936  0.27059  0.21806  Biso   1.000  H
  H151     1.0000 0.92871  0.38127  0.24077  Biso   1.000  H
  H152     1.0000 0.00563  0.38399  0.24077  Biso   1.000  H
  H153     1.0000 0.31004  0.28408  0.46878  Biso   1.000  H
  H154     1.0000 0.36842  0.30317  0.44336  Biso   1.000  H
  C142     1.0000 0.36042  0.39226  0.45637  Biso   1.000  C
  H155     1.0000 0.32146  0.45969  0.46886  Biso   1.000  H
  H156     1.0000 0.28302  0.38349  0.48566  Biso   1.000  H
  H157     1.0000 0.26125  0.99069  0.21806  Biso   1.000  H
  H158     1.0000 0.27014  0.06517  0.20567  Biso   1.000  H
  C143     1.0000 0.36844  0.07500  0.21837  Biso   1.000  C
  C144     1.0000 0.39905  0.04758  0.24257  Biso   1.000  C
  H159     1.0000 0.39714  0.04730  0.28806  Biso   1.000  H
  H160     1.0000 0.40266  0.11940  0.27468  Biso   1.000  H
  H161     1.0000 0.87124  0.26449  0.21916  Biso   1.000  H
  H162     1.0000 0.93883  0.31816  0.19926  Biso   1.000  H
  H163     1.0000 0.39853  0.40830  0.47146  Biso   1.000  H
  H164     1.0000 0.38295  0.42040  0.43846  Biso   1.000  H
  H165     1.0000 0.39322  0.12878  0.21916  Biso   1.000  H
  H166     1.0000 0.37932  0.06118  0.19926  Biso   1.000  H
  H167     1.0000 0.37830  0.99435  0.24077  Biso   1.000  H
  H168     1.0000 0.45253  0.07128  0.24077  Biso   1.000  H
  C145     1.0000 0.64902  0.43321  0.43839  Biso   1.000  C
  C146     1.0000 0.59647  0.40079  0.41065  Biso   1.000  C
  C147     1.0000 0.57751  0.38064  0.41397  Biso   1.000  C
  N25      1.0000 0.62368  0.42338  0.46370  Biso   1.000  N
  H169     1.0000 0.70020  0.46029  0.43560  Biso   1.000  H
  N26      1.0000 0.58643  0.39225  0.46246  Biso   1.000  N
  H170     1.0000 0.67662  0.42938  0.43567  Biso   1.000  H
  C148     1.0000 0.52009  0.36810  0.41389  Biso   1.000  C
  C149     1.0000 0.62752  0.41212  0.38253  Biso   1.000  C
  C150     1.0000 0.61603  0.42077  0.38907  Biso   1.000  C
  C151     1.0000 0.62521  0.40607  0.43707  Biso   1.000  C
  C152     1.0000 0.50344  0.32575  0.41158  Biso   1.000  C
  C153     1.0000 0.67459  0.45069  0.48850  Biso   1.000  C
  C154     1.0000 0.63035  0.42854  0.48996  Biso   1.000  C
  C155     1.0000 0.47458  0.34668  0.38900  Biso   1.000  C
  C156     1.0000 0.46774  0.31099  0.38430  Biso   1.000  C
  H171     1.0000 0.49928  0.36061  0.43270  Biso   1.000  H
  C157     1.0000 0.58209  0.39058  0.35762  Biso   1.000  C
  C158     1.0000 0.58041  0.40607  0.36179  Biso   1.000  C
  H172     1.0000 0.67867  0.43387  0.38040  Biso   1.000  H
  H173     1.0000 0.66563  0.45757  0.39066  Biso   1.000  H
  H174     1.0000 0.47773  0.29894  0.42827  Biso   1.000  H
  C159     1.0000 0.65478  0.39580  0.51190  Biso   1.000  C
  H175     1.0000 0.67529  0.49421  0.49670  Biso   1.000  H
  H176     1.0000 0.72421  0.46562  0.48150  Biso   1.000  H
  C160     1.0000 0.62312  0.36516  0.51106  Biso   1.000  C
  H177     1.0000 0.61126  0.45718  0.49967  Biso   1.000  H
  H178     1.0000 0.68206  0.46179  0.48498  Biso   1.000  H
  C161     1.0000 0.50571  0.35789  0.36088  Biso   1.000  C
  C162     1.0000 0.50634  0.35117  0.35942  Biso   1.000  C
  H179     1.0000 0.42351  0.32481  0.39119  Biso   1.000  H
  H180     1.0000 0.41822  0.27424  0.38266  Biso   1.000  H
  H181     1.0000 0.60290  0.39807  0.33881  Biso   1.000  H
  H182     1.0000 0.60612  0.43287  0.34517  Biso   1.000  H
  H183     1.0000 0.60310  0.37598  0.51711  Biso   1.000  H
  H184     1.0000 0.68436  0.41978  0.52930  Biso   1.000  H
  N27      1.0000 0.66660  0.33330  0.50310  Biso   1.000  N
  H185     1.0000 0.63674  0.38509  0.53096  Biso   1.000  H
  H186     1.0000 0.57141  0.32614  0.51157  Biso   1.000  H
  N28      1.0000 0.46380  0.33330  0.33329  Biso   1.000  N
  C163     1.0000 0.74099  0.34518  0.51190  Biso   1.000  C
  C164     1.0000 0.60421  0.25898  0.51190  Biso   1.000  C
  C165     1.0000 0.63486  0.25798  0.51106  Biso   1.000  C
  C166     1.0000 0.74203  0.37687  0.51106  Biso   1.000  C
  C167     1.0000 0.39411  0.33330  0.33329  Biso   1.000  C
  C168     1.0000 0.48115  0.30877  0.30579  Biso   1.000  C
  C169     1.0000 0.48850  0.31548  0.30725  Biso   1.000  C
  H187     1.0000 0.77291  0.39691  0.51711  Biso   1.000  H
  H188     1.0000 0.73538  0.31559  0.52930  Biso   1.000  H
  C170     1.0000 0.77610  0.32542  0.48850  Biso   1.000  C
  H189     1.0000 0.74835  0.36327  0.53096  Biso   1.000  H
  C171     1.0000 0.79822  0.36966  0.48996  Biso   1.000  C
  H190     1.0000 0.62399  0.22712  0.51711  Biso   1.000  H
  H191     1.0000 0.58019  0.26459  0.52930  Biso   1.000  H
  C172     1.0000 0.54932  0.22390  0.48850  Biso   1.000  C
  H192     1.0000 0.61492  0.25165  0.53096  Biso   1.000  H
  C173     1.0000 0.57141  0.20176  0.48996  Biso   1.000  C
  H193     1.0000 0.67383  0.24527  0.51157  Biso   1.000  H
  H194     1.0000 0.75475  0.42854  0.51157  Biso   1.000  H
  C174     1.0000 0.33824  0.27386  0.31787  Biso   1.000  C
  C175     1.0000 0.32832  0.28190  0.31975  Biso   1.000  C
  C176     1.0000 0.39771  0.39280  0.34880  Biso   1.000  C
  C177     1.0000 0.37974  0.38475  0.34692  Biso   1.000  C
  C178     1.0000 0.46123  0.31998  0.27767  Biso   1.000  C
  C179     1.0000 0.52484  0.27608  0.30905  Biso   1.000  C
  C180     1.0000 0.50767  0.26059  0.30488  Biso   1.000  C
  C181     1.0000 0.49011  0.35572  0.28236  Biso   1.000  C
  N29      1.0000 0.79972  0.37632  0.46370  Biso   1.000  N
  H195     1.0000 0.81890  0.32470  0.49670  Biso   1.000  H
  H196     1.0000 0.74139  0.27580  0.48150  Biso   1.000  H
  H197     1.0000 0.84593  0.38875  0.49967  Biso   1.000  H
  H198     1.0000 0.77974  0.31798  0.48498  Biso   1.000  H
  N30      1.0000 0.80585  0.41356  0.46246  Biso   1.000  N
  N31      1.0000 0.57660  0.20031  0.46370  Biso   1.000  N
  H199     1.0000 0.50581  0.18111  0.49670  Biso   1.000  H
  H200     1.0000 0.53441  0.25859  0.48150  Biso   1.000  H
  H201     1.0000 0.54286  0.15408  0.49967  Biso   1.000  H
  H202     1.0000 0.53821  0.22024  0.48498  Biso   1.000  H
  N32      1.0000 0.60775  0.19415  0.46246  Biso   1.000  N
  C182     1.0000 0.26795  0.26586  0.31596  Biso   1.000  C
  H203     1.0000 0.34790  0.23944  0.30876  Biso   1.000  H
  H204     1.0000 0.32592  0.24211  0.30940  Biso   1.000  H
  C183     1.0000 0.26588  0.28979  0.32170  Biso   1.000  C
  C184     1.0000 0.30942  0.37687  0.34497  Biso   1.000  C
  C185     1.0000 0.33542  0.40079  0.35071  Biso   1.000  C
  H205     1.0000 0.44178  0.42721  0.35791  Biso   1.000  H
  H206     1.0000 0.41714  0.42455  0.35727  Biso   1.000  H
  C186     1.0000 0.48532  0.29855  0.25278  Biso   1.000  C
  H207     1.0000 0.43203  0.34185  0.27547  Biso   1.000  H
  C187     1.0000 0.51101  0.34090  0.25509  Biso   1.000  C
  H208     1.0000 0.53816  0.26858  0.32786  Biso   1.000  H
  C188     1.0000 0.54873  0.25454  0.28414  Biso   1.000  C
  C189     1.0000 0.52858  0.24588  0.27760  Biso   1.000  C
  H209     1.0000 0.50658  0.23378  0.32150  Biso   1.000  H
  H210     1.0000 0.47731  0.39241  0.28400  Biso   1.000  H
  C190     1.0000 0.78418  0.35101  0.43839  Biso   1.000  C
  C191     1.0000 0.78082  0.37476  0.43707  Biso   1.000  C
  C192     1.0000 0.56680  0.21580  0.43839  Biso   1.000  C
  C193     1.0000 0.59392  0.21918  0.43707  Biso   1.000  C
  C194     1.0000 0.25352  0.31737  0.32957  Biso   1.000  C
  H211     1.0000 0.23041  0.22607  0.30557  Biso   1.000  H
  C195     1.0000 0.26948  0.34929  0.33710  Biso   1.000  C
  H212     1.0000 0.33768  0.44059  0.36110  Biso   1.000  H
  C196     1.0000 0.52901  0.26586  0.25602  Biso   1.000  C
  H213     1.0000 0.47200  0.30605  0.23397  Biso   1.000  H
  C197     1.0000 0.53019  0.28601  0.25269  Biso   1.000  C
  H214     1.0000 0.51211  0.36771  0.23840  Biso   1.000  H
  H215     1.0000 0.57813  0.23278  0.28627  Biso   1.000  H
  H216     1.0000 0.54138  0.20908  0.27600  Biso   1.000  H
  C198     1.0000 0.80428  0.40351  0.41065  Biso   1.000  C
  H217     1.0000 0.76011  0.29978  0.43560  Biso   1.000  H
  H218     1.0000 0.75272  0.32336  0.43567  Biso   1.000  H
  C199     1.0000 0.80313  0.42244  0.41397  Biso   1.000  C
  C200     1.0000 0.59920  0.19571  0.41065  Biso   1.000  C
  H219     1.0000 0.53967  0.23989  0.43560  Biso   1.000  H
  H220     1.0000 0.57062  0.24727  0.43567  Biso   1.000  H
  C201     1.0000 0.61935  0.19687  0.41397  Biso   1.000  C
  H221     1.0000 0.22942  0.35722  0.33850  Biso   1.000  H
  H222     1.0000 0.20555  0.30949  0.32817  Biso   1.000  H
  C202     1.0000 0.54914  0.23345  0.22827  Biso   1.000  C
  C203     1.0000 0.55247  0.26059  0.22960  Biso   1.000  C
  C204     1.0000 0.84800  0.47989  0.41389  Biso   1.000  C
  C205     1.0000 0.78459  0.37249  0.38253  Biso   1.000  C
  C206     1.0000 0.80475  0.38398  0.38907  Biso   1.000  C
  C207     1.0000 0.82237  0.49659  0.41158  Biso   1.000  C
  C208     1.0000 0.63192  0.15202  0.41389  Biso   1.000  C
  C209     1.0000 0.58790  0.21541  0.38253  Biso   1.000  C
  C210     1.0000 0.57922  0.19526  0.38907  Biso   1.000  C
  C211     1.0000 0.67425  0.17767  0.41158  Biso   1.000  C
  N33      1.0000 0.53362  0.24327  0.20297  Biso   1.000  N
  H223     1.0000 0.57324  0.20636  0.23106  Biso   1.000  H
  N34      1.0000 0.52751  0.27441  0.20421  Biso   1.000  N
  H224     1.0000 0.58057  0.23728  0.23100  Biso   1.000  H
  H225     1.0000 0.86129  0.50070  0.43270  Biso   1.000  H
  C212     1.0000 0.87210  0.52540  0.38900  Biso   1.000  C
  C213     1.0000 0.84324  0.53228  0.38430  Biso   1.000  C
  C214     1.0000 0.80849  0.41789  0.35762  Biso   1.000  C
  H226     1.0000 0.75520  0.32131  0.38040  Biso   1.000  H
  H227     1.0000 0.79191  0.33435  0.39066  Biso   1.000  H
  C215     1.0000 0.82562  0.41955  0.36179  Biso   1.000  C
  H228     1.0000 0.82123  0.52229  0.42827  Biso   1.000  H
  H229     1.0000 0.63939  0.13870  0.43270  Biso   1.000  H
  C216     1.0000 0.65330  0.12788  0.38900  Biso   1.000  C
  C217     1.0000 0.68902  0.15674  0.38430  Biso   1.000  C
  C218     1.0000 0.60940  0.19149  0.35762  Biso   1.000  C
  H230     1.0000 0.56613  0.24483  0.38040  Biso   1.000  H
  H231     1.0000 0.54242  0.20808  0.39066  Biso   1.000  H
  C219     1.0000 0.59393  0.17439  0.36179  Biso   1.000  C
  H232     1.0000 0.70105  0.17878  0.42827  Biso   1.000  H
  C220     1.0000 0.55722  0.21597  0.17817  Biso   1.000  C
  C221     1.0000 0.53513  0.23811  0.17671  Biso   1.000  C
  H233     1.0000 0.90131  0.57652  0.39119  Biso   1.000  H
  C222     1.0000 0.85219  0.49432  0.36088  Biso   1.000  C
  C223     1.0000 0.84484  0.49365  0.35942  Biso   1.000  C
  H234     1.0000 0.85603  0.58179  0.38266  Biso   1.000  H
  H235     1.0000 0.79520  0.39707  0.33881  Biso   1.000  H
  H236     1.0000 0.82671  0.39385  0.34517  Biso   1.000  H
  H237     1.0000 0.67518  0.09869  0.39119  Biso   1.000  H
  C224     1.0000 0.64211  0.14781  0.36088  Biso   1.000  C
  C225     1.0000 0.64883  0.15519  0.35942  Biso   1.000  C
  H238     1.0000 0.72576  0.14398  0.38266  Biso   1.000  H
  H239     1.0000 0.60192  0.20481  0.33881  Biso   1.000  H
  H240     1.0000 0.56713  0.17328  0.34517  Biso   1.000  H
  C226     1.0000 0.59231  0.27086  0.15477  Biso   1.000  C
  H241     1.0000 0.51441  0.17245  0.16997  Biso   1.000  H
  H242     1.0000 0.59194  0.20109  0.18517  Biso   1.000  H
  C227     1.0000 0.59129  0.30150  0.15561  Biso   1.000  C
  H243     1.0000 0.48743  0.20953  0.16700  Biso   1.000  H
  H244     1.0000 0.55362  0.20492  0.18169  Biso   1.000  H
  N35      1.0000 0.86953  0.53622  0.33329  Biso   1.000  N
  N36      1.0000 0.66672  0.13049  0.33329  Biso   1.000  N
  H245     1.0000 0.56045  0.29067  0.14956  Biso   1.000  H
  H246     1.0000 0.59792  0.24688  0.13737  Biso   1.000  H
  N37      1.0000 0.66663  0.33336  0.16356  Biso   1.000  N
  H247     1.0000 0.58501  0.28163  0.13571  Biso   1.000  H
  H248     1.0000 0.57859  0.34052  0.15510  Biso   1.000  H
  C228     1.0000 0.82763  0.51885  0.30579  Biso   1.000  C
  C229     1.0000 0.82700  0.51152  0.30725  Biso   1.000  C
  C230     1.0000 0.93921  0.60588  0.33329  Biso   1.000  C
  C231     1.0000 0.69120  0.17234  0.30579  Biso   1.000  C
  C232     1.0000 0.68451  0.17301  0.30725  Biso   1.000  C
  C233     1.0000 0.66671  0.06078  0.33329  Biso   1.000  C
  C234     1.0000 0.72914  0.32148  0.15477  Biso   1.000  C
  C235     1.0000 0.67855  0.40768  0.15477  Biso   1.000  C
  C236     1.0000 0.71020  0.40867  0.15561  Biso   1.000  C
  C237     1.0000 0.69849  0.28979  0.15561  Biso   1.000  C
  C238     1.0000 0.85875  0.53878  0.27767  Biso   1.000  C
  C239     1.0000 0.86561  0.50991  0.28236  Biso   1.000  C
  C240     1.0000 0.75124  0.47517  0.30905  Biso   1.000  C
  C241     1.0000 0.75289  0.49232  0.30488  Biso   1.000  C
  C242     1.0000 0.99512  0.60233  0.34880  Biso   1.000  C
  C243     1.0000 0.93563  0.66177  0.31787  Biso   1.000  C
  C244     1.0000 0.95362  0.67171  0.31975  Biso   1.000  C
  C245     1.0000 0.00504  0.62025  0.34692  Biso   1.000  C
  C246     1.0000 0.68003  0.14126  0.27767  Biso   1.000  C
  C247     1.0000 0.64429  0.13437  0.28236  Biso   1.000  C
  C248     1.0000 0.72393  0.24877  0.30905  Biso   1.000  C
  C249     1.0000 0.73939  0.24710  0.30488  Biso   1.000  C
  C250     1.0000 0.60718  0.00488  0.34880  Biso   1.000  C
  C251     1.0000 0.72615  0.06438  0.31787  Biso   1.000  C
  C252     1.0000 0.71812  0.04640  0.31975  Biso   1.000  C
  C253     1.0000 0.61524  0.99495  0.34692  Biso   1.000  C
  H249     1.0000 0.70933  0.26975  0.14956  Biso   1.000  H
  H250     1.0000 0.75311  0.35106  0.13737  Biso   1.000  H
  C254     1.0000 0.78404  0.34129  0.17817  Biso   1.000  C
  H251     1.0000 0.71841  0.30338  0.13571  Biso   1.000  H
  C255     1.0000 0.76189  0.29700  0.17671  Biso   1.000  C
  H252     1.0000 0.73023  0.43959  0.14956  Biso   1.000  H
  H253     1.0000 0.64893  0.40207  0.13737  Biso   1.000  H
  C256     1.0000 0.65874  0.44275  0.17817  Biso   1.000  C
  H254     1.0000 0.69659  0.41500  0.13571  Biso   1.000  H
  C257     1.0000 0.70298  0.46490  0.17671  Biso   1.000  C
  H255     1.0000 0.76188  0.42138  0.15510  Biso   1.000  H
  H256     1.0000 0.65953  0.23811  0.15510  Biso   1.000  H
  C258     1.0000 0.81325  0.51469  0.25278  Biso   1.000  C
  C259     1.0000 0.82991  0.48899  0.25509  Biso   1.000  C
  H257     1.0000 0.90983  0.56797  0.27547  Biso   1.000  H
  H258     1.0000 0.91511  0.52268  0.28400  Biso   1.000  H
  C260     1.0000 0.70582  0.45125  0.28414  Biso   1.000  C
  C261     1.0000 0.71729  0.47139  0.27760  Biso   1.000  C
  H259     1.0000 0.73044  0.46185  0.32786  Biso   1.000  H
  H260     1.0000 0.72717  0.49337  0.32150  Biso   1.000  H
  H261     1.0000 0.98541  0.55820  0.35791  Biso   1.000  H
  C262     1.0000 0.06538  0.66460  0.35071  Biso   1.000  C
  H262     1.0000 0.00744  0.58285  0.35727  Biso   1.000  H
  C263     1.0000 0.06746  0.69058  0.34497  Biso   1.000  C
  C264     1.0000 0.99792  0.73204  0.31596  Biso   1.000  C
  H263     1.0000 0.89155  0.65206  0.30876  Biso   1.000  H
  H264     1.0000 0.91621  0.67409  0.30940  Biso   1.000  H
  C265     1.0000 0.02389  0.73409  0.32170  Biso   1.000  C
  C266     1.0000 0.70144  0.18677  0.25278  Biso   1.000  C
  C267     1.0000 0.65913  0.17012  0.25509  Biso   1.000  C
  H265     1.0000 0.65815  0.09019  0.27547  Biso   1.000  H
  H266     1.0000 0.60759  0.08492  0.28400  Biso   1.000  H
  C268     1.0000 0.74543  0.29417  0.28414  Biso   1.000  C
  C269     1.0000 0.75411  0.28268  0.27760  Biso   1.000  C
  H267     1.0000 0.73146  0.26958  0.32786  Biso   1.000  H
  H268     1.0000 0.76618  0.27280  0.32150  Biso   1.000  H
  H269     1.0000 0.57281  0.01460  0.35791  Biso   1.000  H
  C270     1.0000 0.59918  0.93456  0.35071  Biso   1.000  C
  H270     1.0000 0.57545  0.99256  0.35727  Biso   1.000  H
  C271     1.0000 0.62313  0.93256  0.34497  Biso   1.000  C
  C272     1.0000 0.73411  0.00205  0.31596  Biso   1.000  C
  H271     1.0000 0.76053  0.10845  0.30876  Biso   1.000  H
  H272     1.0000 0.75792  0.08381  0.30940  Biso   1.000  H
  C273     1.0000 0.71021  0.97608  0.32170  Biso   1.000  C
  N38      1.0000 0.75674  0.29034  0.20297  Biso   1.000  N
  H273     1.0000 0.82754  0.34196  0.16997  Biso   1.000  H
  H274     1.0000 0.79892  0.39086  0.18517  Biso   1.000  H
  H275     1.0000 0.79051  0.27791  0.16700  Biso   1.000  H
  H276     1.0000 0.79508  0.34867  0.18169  Biso   1.000  H
  N39      1.0000 0.72562  0.25310  0.20421  Biso   1.000  N
  N40      1.0000 0.70962  0.46634  0.20297  Biso   1.000  N
  H277     1.0000 0.65803  0.48555  0.16997  Biso   1.000  H
  H278     1.0000 0.60915  0.40806  0.18517  Biso   1.000  H
  H279     1.0000 0.72211  0.51258  0.16700  Biso   1.000  H
  H280     1.0000 0.65130  0.44642  0.18169  Biso   1.000  H
  N41      1.0000 0.74692  0.47250  0.20421  Biso   1.000  N
  C274     1.0000 0.73682  0.47095  0.25602  Biso   1.000  C
  C275     1.0000 0.75580  0.46978  0.25269  Biso   1.000  C
  H281     1.0000 0.83401  0.52795  0.23397  Biso   1.000  H
  H282     1.0000 0.85560  0.48788  0.23840  Biso   1.000  H
  H283     1.0000 0.65465  0.42188  0.28627  Biso   1.000  H
  H284     1.0000 0.66769  0.45863  0.27600  Biso   1.000  H
  C276     1.0000 0.07977  0.73049  0.33710  Biso   1.000  C
  H285     1.0000 0.10289  0.66233  0.36110  Biso   1.000  H
  C277     1.0000 0.06382  0.74647  0.32957  Biso   1.000  C
  H286     1.0000 0.99562  0.76956  0.30557  Biso   1.000  H
  C278     1.0000 0.73410  0.26314  0.25602  Biso   1.000  C
  C279     1.0000 0.71401  0.24422  0.25269  Biso   1.000  C
  H287     1.0000 0.69392  0.16596  0.23397  Biso   1.000  H
  H288     1.0000 0.63230  0.14442  0.23840  Biso   1.000  H
  H289     1.0000 0.76722  0.34534  0.28627  Biso   1.000  H
  H290     1.0000 0.79089  0.33230  0.27600  Biso   1.000  H
  C280     1.0000 0.65068  0.92019  0.33710  Biso   1.000  C
  H291     1.0000 0.55939  0.89710  0.36110  Biso   1.000  H
  C281     1.0000 0.68261  0.93617  0.32957  Biso   1.000  C
  H292     1.0000 0.77392  0.00438  0.30557  Biso   1.000  H
  C282     1.0000 0.76651  0.31565  0.22827  Biso   1.000  C
  C283     1.0000 0.73939  0.29189  0.22960  Biso   1.000  C
  C284     1.0000 0.68433  0.45086  0.22827  Biso   1.000  C
  C285     1.0000 0.70809  0.44753  0.22960  Biso   1.000  C
  H293     1.0000 0.12781  0.77061  0.33850  Biso   1.000  H
  H294     1.0000 0.10393  0.79448  0.32817  Biso   1.000  H
  H295     1.0000 0.64278  0.87217  0.33850  Biso   1.000  H
  H296     1.0000 0.69052  0.89604  0.32817  Biso   1.000  H
  H297     1.0000 0.79366  0.36688  0.23106  Biso   1.000  H
  H298     1.0000 0.76269  0.34329  0.23100  Biso   1.000  H
  H299     1.0000 0.63311  0.42677  0.23106  Biso   1.000  H
  H300     1.0000 0.65667  0.41939  0.23100  Biso   1.000  H
  C286     1.0000 0.59171  0.62680  0.55170  Biso   1.000  C
  C287     1.0000 0.62260  0.57591  0.55429  Biso   1.000  C
  C288     1.0000 0.61908  0.68481  0.57590  Biso   1.000  C
  H301     1.0000 0.53788  0.59778  0.55250  Biso   1.000  H
  H302     1.0000 0.60551  0.65150  0.53260  Biso   1.000  H
  C289     1.0000 0.60540  0.53911  0.58434  Biso   1.000  C
  H303     1.0000 0.67600  0.60388  0.55139  Biso   1.000  H
  H304     1.0000 0.60148  0.53828  0.53900  Biso   1.000  H
  C290     1.0000 0.60068  0.64617  0.60581  Biso   1.000  C
  H305     1.0000 0.59538  0.71461  0.57410  Biso   1.000  H
  H306     1.0000 0.67228  0.71728  0.57410  Biso   1.000  H
  N42      1.0000 0.64200  0.49559  0.58722  Biso   1.000  N
  C291     1.0000 0.63372  0.59700  0.60932  Biso   1.000  C
  H307     1.0000 0.55161  0.50642  0.58629  Biso   1.000  H
  H308     1.0000 0.61938  0.68320  0.62139  Biso   1.000  H
  H309     1.0000 0.54729  0.61659  0.60801  Biso   1.000  H
  C292     1.0000 0.60318  0.42738  0.59223  Biso   1.000  C
  N43      1.0000 0.61131  0.55842  0.63755  Biso   1.000  N
  H310     1.0000 0.68791  0.62703  0.60841  Biso   1.000  H
  C293     1.0000 0.63612  0.37942  0.59445  Biso   1.000  C
  H311     1.0000 0.55233  0.40662  0.59460  Biso   1.000  H
  C294     1.0000 0.66121  0.56603  0.65550  Biso   1.000  C
  C295     1.0000 0.59193  0.30383  0.59473  Biso   1.000  C
  C296     1.0000 0.71189  0.40812  0.59473  Biso   1.000  C
  H312     1.0000 0.71041  0.59472  0.64960  Biso   1.000  H
  C297     1.0000 0.64643  0.53261  0.68490  Biso   1.000  C
  C298     1.0000 0.62061  0.25670  0.59445  Biso   1.000  C
  H313     1.0000 0.54062  0.28351  0.59520  Biso   1.000  H
  C299     1.0000 0.74328  0.36388  0.59445  Biso   1.000  C
  H314     1.0000 0.74292  0.45940  0.59520  Biso   1.000  H
  C300     1.0000 0.57461  0.48050  0.69399  Biso   1.000  C
  C301     1.0000 0.70339  0.55271  0.70509  Biso   1.000  C
  C302     1.0000 0.57260  0.17578  0.59223  Biso   1.000  C
  C303     1.0000 0.69621  0.28812  0.59473  Biso   1.000  C
  C304     1.0000 0.82419  0.39680  0.59223  Biso   1.000  C
  C305     1.0000 0.55939  0.44880  0.72151  Biso   1.000  C
  H315     1.0000 0.53559  0.46679  0.68080  Biso   1.000  H
  C306     1.0000 0.69038  0.52401  0.73332  Biso   1.000  C
  H316     1.0000 0.75182  0.58651  0.69940  Biso   1.000  H
  N44      1.0000 0.50442  0.14642  0.58722  Biso   1.000  N
  H317     1.0000 0.59342  0.14570  0.59460  Biso   1.000  H
  H318     1.0000 0.71651  0.25709  0.59520  Biso   1.000  H
  N45      1.0000 0.85358  0.35800  0.58722  Biso   1.000  N
  H319     1.0000 0.85430  0.44769  0.59460  Biso   1.000  H
  C307     1.0000 0.48362  0.39591  0.73082  Biso   1.000  C
  C308     1.0000 0.61778  0.47128  0.74199  Biso   1.000  C
  C309     1.0000 0.75236  0.55087  0.75462  Biso   1.000  C
  C310     1.0000 0.46092  0.06633  0.58434  Biso   1.000  C
  C311     1.0000 0.93369  0.39458  0.58434  Biso   1.000  C
  N46      1.0000 0.46352  0.37071  0.75575  Biso   1.000  N
  H320     1.0000 0.44701  0.37970  0.71631  Biso   1.000  H
  H321     1.0000 0.60860  0.45158  0.76100  Biso   1.000  H
  N47      1.0000 0.81567  0.60288  0.74912  Biso   1.000  N
  H322     1.0000 0.74370  0.52767  0.77299  Biso   1.000  H
  C312     1.0000 0.42408  0.04668  0.55429  Biso   1.000  C
  C313     1.0000 0.40298  0.03669  0.60932  Biso   1.000  C
  H323     1.0000 0.49361  0.04518  0.58629  Biso   1.000  H
  C314     1.0000 0.96330  0.36632  0.60932  Biso   1.000  C
  C315     1.0000 0.95333  0.37743  0.55429  Biso   1.000  C
  H324     1.0000 0.95479  0.44841  0.58629  Biso   1.000  H
  C316     1.0000 0.38479  0.31870  0.76091  Biso   1.000  C
  C317     1.0000 0.87122  0.62630  0.77188  Biso   1.000  C
  H325     1.0000 0.39608  0.07210  0.55139  Biso   1.000  H
  H326     1.0000 0.46172  0.06322  0.53900  Biso   1.000  H
  C318     1.0000 0.37318  0.96487  0.55170  Biso   1.000  C
  N48      1.0000 0.44161  0.05290  0.63755  Biso   1.000  N
  H327     1.0000 0.37297  0.06089  0.60841  Biso   1.000  H
  C319     1.0000 0.35381  0.95449  0.60581  Biso   1.000  C
  N49      1.0000 0.94709  0.38869  0.63755  Biso   1.000  N
  H328     1.0000 0.93912  0.31210  0.60841  Biso   1.000  H
  C320     1.0000 0.04549  0.39929  0.60581  Biso   1.000  C
  H329     1.0000 0.92790  0.32398  0.55139  Biso   1.000  H
  H330     1.0000 0.93681  0.39852  0.53900  Biso   1.000  H
  C321     1.0000 0.03509  0.40829  0.55170  Biso   1.000  C
  C322     1.0000 0.37369  0.24488  0.77188  Biso   1.000  C
  C323     1.0000 0.35532  0.35101  0.78372  Biso   1.000  C
  H331     1.0000 0.35761  0.31088  0.74230  Biso   1.000  H
  C324     1.0000 0.93392  0.61520  0.76091  Biso   1.000  C
  H332     1.0000 0.84979  0.59778  0.79010  Biso   1.000  H
  C325     1.0000 0.90239  0.70962  0.77771  Biso   1.000  C
  H333     1.0000 0.40218  0.94011  0.55250  Biso   1.000  H
  H334     1.0000 0.34851  0.95399  0.53260  Biso   1.000  H
  C326     1.0000 0.31520  0.93428  0.57590  Biso   1.000  C
  C327     1.0000 0.43401  0.09519  0.65550  Biso   1.000  C
  H335     1.0000 0.31677  0.93617  0.62139  Biso   1.000  H
  H336     1.0000 0.38338  0.93068  0.60801  Biso   1.000  H
  C328     1.0000 0.90478  0.33880  0.65550  Biso   1.000  C
  C329     1.0000 0.06573  0.38092  0.57590  Biso   1.000  C
  H337     1.0000 0.06378  0.38059  0.62139  Biso   1.000  H
  H338     1.0000 0.06931  0.45269  0.60801  Biso   1.000  H
  H339     1.0000 0.05989  0.46212  0.55250  Biso   1.000  H
  H340     1.0000 0.04599  0.39452  0.53260  Biso   1.000  H
  N50      1.0000 0.39711  0.21280  0.74912  Biso   1.000  N
  H341     1.0000 0.40219  0.25199  0.79010  Biso   1.000  H
  C330     1.0000 0.29041  0.19282  0.77771  Biso   1.000  C
  C331     1.0000 0.27438  0.30150  0.78970  Biso   1.000  C
  H342     1.0000 0.38258  0.35928  0.80211  Biso   1.000  H
  H343     1.0000 0.36349  0.39857  0.77669  Biso   1.000  H
  N51      1.0000 0.90721  0.53650  0.75575  Biso   1.000  N
  C332     1.0000 0.99567  0.64468  0.78372  Biso   1.000  C
  H344     1.0000 0.95329  0.64240  0.74230  Biso   1.000  H
  H345     1.0000 0.86340  0.71728  0.78560  Biso   1.000  H
  H346     1.0000 0.91920  0.73659  0.75921  Biso   1.000  H
  C333     1.0000 0.96781  0.73998  0.79980  Biso   1.000  C
  H347     1.0000 0.28537  0.88078  0.57410  Biso   1.000  H
  H348     1.0000 0.28267  0.95499  0.57410  Biso   1.000  H
  H349     1.0000 0.40530  0.11573  0.64960  Biso   1.000  H
  C334     1.0000 0.46739  0.11378  0.68490  Biso   1.000  C
  H350     1.0000 0.88433  0.28962  0.64960  Biso   1.000  H
  C335     1.0000 0.88619  0.35361  0.68490  Biso   1.000  C
  H351     1.0000 0.11920  0.40462  0.57410  Biso   1.000  H
  H352     1.0000 0.04498  0.32769  0.57410  Biso   1.000  H
  C336     1.0000 0.44909  0.20148  0.75462  Biso   1.000  C
  H353     1.0000 0.28271  0.14609  0.78560  Biso   1.000  H
  H354     1.0000 0.26339  0.18261  0.75921  Biso   1.000  H
  C337     1.0000 0.25997  0.22779  0.79980  Biso   1.000  C
  H355     1.0000 0.25841  0.32359  0.80479  Biso   1.000  H
  H356     1.0000 0.24629  0.29589  0.77179  Biso   1.000  H
  C338     1.0000 0.91231  0.51641  0.73082  Biso   1.000  C
  H357     1.0000 0.97671  0.61742  0.80211  Biso   1.000  H
  H358     1.0000 0.03509  0.63652  0.77669  Biso   1.000  H
  C339     1.0000 0.02710  0.72560  0.78970  Biso   1.000  C
  H359     1.0000 0.98811  0.79298  0.80220  Biso   1.000  H
  H360     1.0000 0.94967  0.71678  0.81900  Biso   1.000  H
  C340     1.0000 0.51950  0.09408  0.69399  Biso   1.000  C
  C341     1.0000 0.44729  0.15069  0.70509  Biso   1.000  C
  C342     1.0000 0.90587  0.42538  0.69399  Biso   1.000  C
  C343     1.0000 0.84933  0.29661  0.70509  Biso   1.000  C
  C344     1.0000 0.47601  0.16640  0.73332  Biso   1.000  C
  H361     1.0000 0.47232  0.21602  0.77299  Biso   1.000  H
  H362     1.0000 0.20700  0.19510  0.80220  Biso   1.000  H
  H363     1.0000 0.28319  0.23289  0.81900  Biso   1.000  H
  C345     1.0000 0.88940  0.44059  0.72151  Biso   1.000  C
  H364     1.0000 0.93271  0.55298  0.71631  Biso   1.000  H
  H365     1.0000 0.06518  0.74159  0.80479  Biso   1.000  H
  H366     1.0000 0.04960  0.75369  0.77179  Biso   1.000  H
  C346     1.0000 0.55122  0.11062  0.72151  Biso   1.000  C
  H367     1.0000 0.53321  0.06882  0.68080  Biso   1.000  H
  H368     1.0000 0.41349  0.16529  0.69940  Biso   1.000  H
  H369     1.0000 0.93120  0.46440  0.68080  Biso   1.000  H
  C347     1.0000 0.83361  0.30960  0.73332  Biso   1.000  C
  H370     1.0000 0.83469  0.24821  0.69940  Biso   1.000  H
  C348     1.0000 0.52868  0.14647  0.74199  Biso   1.000  C
  C349     1.0000 0.85352  0.38220  0.74199  Biso   1.000  C
  C350     1.0000 0.60408  0.08770  0.73082  Biso   1.000  C
  C351     1.0000 0.79848  0.24760  0.75462  Biso   1.000  C
  H371     1.0000 0.54842  0.15702  0.76100  Biso   1.000  H
  H372     1.0000 0.84299  0.39141  0.76100  Biso   1.000  H
  H373     1.0000 0.62033  0.06733  0.71631  Biso   1.000  H
  N52      1.0000 0.62932  0.09280  0.75575  Biso   1.000  N
  N53      1.0000 0.78719  0.18427  0.74912  Biso   1.000  N
  H374     1.0000 0.78399  0.25632  0.77299  Biso   1.000  H
  C352     1.0000 0.68129  0.06610  0.76091  Biso   1.000  C
  C353     1.0000 0.75510  0.12882  0.77188  Biso   1.000  C
  C354     1.0000 0.64898  0.00427  0.78372  Biso   1.000  C
  H375     1.0000 0.68908  0.04668  0.74230  Biso   1.000  H
  H376     1.0000 0.74800  0.15019  0.79010  Biso   1.000  H
  C355     1.0000 0.80720  0.09758  0.77771  Biso   1.000  C
  H377     1.0000 0.64072  0.02331  0.80211  Biso   1.000  H
  H378     1.0000 0.60140  0.96487  0.77669  Biso   1.000  H
  C356     1.0000 0.69848  0.97291  0.78970  Biso   1.000  C
  C357     1.0000 0.77220  0.03219  0.79980  Biso   1.000  C
  H379     1.0000 0.85392  0.13659  0.78560  Biso   1.000  H
  H380     1.0000 0.81742  0.08081  0.75921  Biso   1.000  H
  H381     1.0000 0.67639  0.93478  0.80479  Biso   1.000  H
  H382     1.0000 0.70409  0.95038  0.77179  Biso   1.000  H
  H383     1.0000 0.80487  0.01188  0.80220  Biso   1.000  H
  H384     1.0000 0.76712  0.05029  0.81900  Biso   1.000  H
  C358     1.0000 0.42857  0.63036  0.51004  Biso   1.000  C
  C359     1.0000 0.36517  0.62314  0.48894  Biso   1.000  C
  C360     1.0000 0.39579  0.65478  0.48810  Biso   1.000  C
  N54      1.0000 0.42341  0.62370  0.53630  Biso   1.000  N
  H385     1.0000 0.49421  0.67531  0.50330  Biso   1.000  H
  H386     1.0000 0.45716  0.61121  0.50033  Biso   1.000  H
  H387     1.0000 0.46176  0.68203  0.51502  Biso   1.000  H
  N55      1.0000 0.39229  0.58645  0.53754  Biso   1.000  N
  H388     1.0000 0.37601  0.60310  0.48289  Biso   1.000  H
  N56      1.0000 0.33331  0.66671  0.49690  Biso   1.000  N
  H389     1.0000 0.38509  0.63674  0.46904  Biso   1.000  H
  H390     1.0000 0.32618  0.57141  0.48843  Biso   1.000  H
  H391     1.0000 0.41979  0.68442  0.47070  Biso   1.000  H
  C361     1.0000 0.45069  0.67459  0.51150  Biso   1.000  C
  C362     1.0000 0.43318  0.64901  0.56161  Biso   1.000  C
  C363     1.0000 0.40607  0.62525  0.56293  Biso   1.000  C
  C364     1.0000 0.34520  0.74098  0.48810  Biso   1.000  C
  C365     1.0000 0.25899  0.60421  0.48810  Biso   1.000  C
  C366     1.0000 0.37688  0.74203  0.48894  Biso   1.000  C
  C367     1.0000 0.25797  0.63485  0.48894  Biso   1.000  C
  H392     1.0000 0.46560  0.72421  0.51850  Biso   1.000  H
  C368     1.0000 0.40078  0.59650  0.58935  Biso   1.000  C
  H393     1.0000 0.46031  0.70018  0.56440  Biso   1.000  H
  H394     1.0000 0.42936  0.67665  0.56433  Biso   1.000  H
  C369     1.0000 0.38066  0.57752  0.58603  Biso   1.000  C
  H395     1.0000 0.39688  0.77289  0.48289  Biso   1.000  H
  H396     1.0000 0.31561  0.73543  0.47070  Biso   1.000  H
  C370     1.0000 0.32542  0.77611  0.51150  Biso   1.000  C
  H397     1.0000 0.36327  0.74836  0.46904  Biso   1.000  H
  C371     1.0000 0.36966  0.79826  0.51004  Biso   1.000  C
  H398     1.0000 0.22710  0.62397  0.48289  Biso   1.000  H
  H399     1.0000 0.26457  0.58018  0.47070  Biso   1.000  H
  C372     1.0000 0.22390  0.54932  0.51150  Biso   1.000  C
  H400     1.0000 0.25166  0.61493  0.46904  Biso   1.000  H
  C373     1.0000 0.20178  0.57141  0.51004  Biso   1.000  C
  H401     1.0000 0.42856  0.75474  0.48843  Biso   1.000  H
  H402     1.0000 0.24524  0.67382  0.48843  Biso   1.000  H
  C374     1.0000 0.36812  0.52013  0.58611  Biso   1.000  C
  C375     1.0000 0.41211  0.62753  0.61747  Biso   1.000  C
  C376     1.0000 0.42078  0.61604  0.61093  Biso   1.000  C
  C377     1.0000 0.32578  0.50342  0.58842  Biso   1.000  C
  N57      1.0000 0.37630  0.79970  0.53630  Biso   1.000  N
  H403     1.0000 0.32471  0.81890  0.50330  Biso   1.000  H
  H404     1.0000 0.27582  0.74142  0.51850  Biso   1.000  H
  H405     1.0000 0.38879  0.84593  0.50033  Biso   1.000  H
  H406     1.0000 0.31795  0.77972  0.51502  Biso   1.000  H
  N58      1.0000 0.41360  0.80586  0.53754  Biso   1.000  N
  N59      1.0000 0.20027  0.57657  0.53630  Biso   1.000  N
  H407     1.0000 0.18109  0.50581  0.50330  Biso   1.000  H
  H408     1.0000 0.25859  0.53439  0.51850  Biso   1.000  H
  H409     1.0000 0.15408  0.54283  0.50033  Biso   1.000  H
  H410     1.0000 0.22027  0.53822  0.51502  Biso   1.000  H
  N60      1.0000 0.19416  0.60771  0.53754  Biso   1.000  N
  H411     1.0000 0.36060  0.49931  0.56730  Biso   1.000  H
  C378     1.0000 0.34671  0.47461  0.61100  Biso   1.000  C
  C379     1.0000 0.31097  0.46773  0.61570  Biso   1.000  C
  C380     1.0000 0.39061  0.58212  0.64238  Biso   1.000  C
  H412     1.0000 0.43390  0.67870  0.61960  Biso   1.000  H
  H413     1.0000 0.45756  0.66566  0.60934  Biso   1.000  H
  C381     1.0000 0.40607  0.58046  0.63821  Biso   1.000  C
  H414     1.0000 0.29895  0.47772  0.57173  Biso   1.000  H
  C382     1.0000 0.35101  0.78421  0.56161  Biso   1.000  C
  C383     1.0000 0.37474  0.78083  0.56293  Biso   1.000  C
  C384     1.0000 0.21582  0.56680  0.56161  Biso   1.000  C
  C385     1.0000 0.21915  0.59395  0.56293  Biso   1.000  C
  H415     1.0000 0.32480  0.42349  0.60881  Biso   1.000  H
  C386     1.0000 0.35788  0.50569  0.63912  Biso   1.000  C
  C387     1.0000 0.35119  0.50636  0.64058  Biso   1.000  C
  H416     1.0000 0.27424  0.41822  0.61734  Biso   1.000  H
  H417     1.0000 0.39811  0.60288  0.66119  Biso   1.000  H
  H418     1.0000 0.43286  0.60616  0.65483  Biso   1.000  H
  C388     1.0000 0.40350  0.80431  0.58935  Biso   1.000  C
  H419     1.0000 0.29979  0.76012  0.56440  Biso   1.000  H
  H420     1.0000 0.32335  0.75274  0.56433  Biso   1.000  H
  C389     1.0000 0.42248  0.80314  0.58603  Biso   1.000  C
  C390     1.0000 0.19569  0.59922  0.58935  Biso   1.000  C
  H421     1.0000 0.23991  0.53972  0.56440  Biso   1.000  H
  H422     1.0000 0.24725  0.57063  0.56433  Biso   1.000  H
  C391     1.0000 0.19684  0.61931  0.58603  Biso   1.000  C
  N61      1.0000 0.33332  0.46379  0.66671  Biso   1.000  N
  C392     1.0000 0.47990  0.84799  0.58611  Biso   1.000  C
  C393     1.0000 0.37250  0.78460  0.61747  Biso   1.000  C
  C394     1.0000 0.38396  0.80475  0.61093  Biso   1.000  C
  C395     1.0000 0.49659  0.82234  0.58842  Biso   1.000  C
  C396     1.0000 0.15200  0.63191  0.58611  Biso   1.000  C
  C397     1.0000 0.21541  0.58790  0.61747  Biso   1.000  C
  C398     1.0000 0.19526  0.57924  0.61093  Biso   1.000  C
  C399     1.0000 0.17769  0.67426  0.58842  Biso   1.000  C
  C400     1.0000 0.30876  0.48111  0.69421  Biso   1.000  C
  C401     1.0000 0.33331  0.39408  0.66671  Biso   1.000  C
  C402     1.0000 0.31548  0.48849  0.69275  Biso   1.000  C
  H423     1.0000 0.50069  0.86131  0.56730  Biso   1.000  H
  C403     1.0000 0.52540  0.87208  0.61100  Biso   1.000  C
  C404     1.0000 0.53226  0.84321  0.61570  Biso   1.000  C
  C405     1.0000 0.41791  0.80852  0.64238  Biso   1.000  C
  H424     1.0000 0.32130  0.75518  0.61960  Biso   1.000  H
  H425     1.0000 0.33434  0.79193  0.60934  Biso   1.000  H
  C406     1.0000 0.41954  0.82562  0.63821  Biso   1.000  C
  H426     1.0000 0.52228  0.82123  0.57173  Biso   1.000  H
  H427     1.0000 0.13868  0.63940  0.56730  Biso   1.000  H
  C407     1.0000 0.12788  0.65328  0.61100  Biso   1.000  C
  C408     1.0000 0.15676  0.68902  0.61570  Biso   1.000  C
  C409     1.0000 0.19149  0.60938  0.64238  Biso   1.000  C
  H428     1.0000 0.24478  0.56608  0.61960  Biso   1.000  H
  H429     1.0000 0.20806  0.54244  0.60934  Biso   1.000  H
  C410     1.0000 0.17435  0.59395  0.63821  Biso   1.000  C
  H430     1.0000 0.17876  0.70101  0.57173  Biso   1.000  H
  C411     1.0000 0.31998  0.46124  0.72233  Biso   1.000  C
  C412     1.0000 0.27607  0.52484  0.69095  Biso   1.000  C
  C413     1.0000 0.26058  0.50769  0.69512  Biso   1.000  C
  C414     1.0000 0.35570  0.49010  0.71764  Biso   1.000  C
  C415     1.0000 0.39280  0.39768  0.65120  Biso   1.000  C
  C416     1.0000 0.27386  0.33824  0.68213  Biso   1.000  C
  C417     1.0000 0.28192  0.32830  0.68025  Biso   1.000  C
  C418     1.0000 0.38479  0.37976  0.65308  Biso   1.000  C
  H431     1.0000 0.57650  0.90133  0.60881  Biso   1.000  H
  C419     1.0000 0.49431  0.85220  0.63912  Biso   1.000  C
  C420     1.0000 0.49365  0.84482  0.64058  Biso   1.000  C
  H432     1.0000 0.58179  0.85603  0.61734  Biso   1.000  H
  H433     1.0000 0.39712  0.79520  0.66119  Biso   1.000  H
  H434     1.0000 0.39385  0.82673  0.65483  Biso   1.000  H
  H435     1.0000 0.09871  0.67520  0.60881  Biso   1.000  H
  C421     1.0000 0.14783  0.64212  0.63912  Biso   1.000  C
  C422     1.0000 0.15517  0.64884  0.64058  Biso   1.000  C
  H436     1.0000 0.14396  0.72571  0.61734  Biso   1.000  H
  H437     1.0000 0.20481  0.60188  0.66119  Biso   1.000  H
  H438     1.0000 0.17325  0.56714  0.65483  Biso   1.000  H
  C423     1.0000 0.29857  0.48533  0.74722  Biso   1.000  C
  H439     1.0000 0.34186  0.43204  0.72453  Biso   1.000  H
  C424     1.0000 0.34093  0.51102  0.74491  Biso   1.000  C
  H440     1.0000 0.26857  0.53811  0.67214  Biso   1.000  H
  C425     1.0000 0.25455  0.54871  0.71586  Biso   1.000  C
  C426     1.0000 0.24590  0.52862  0.72240  Biso   1.000  C
  H441     1.0000 0.23378  0.50658  0.67850  Biso   1.000  H
  H442     1.0000 0.39241  0.47728  0.71600  Biso   1.000  H
  C427     1.0000 0.40078  0.33541  0.64929  Biso   1.000  C
  H443     1.0000 0.42721  0.44181  0.64209  Biso   1.000  H
  H444     1.0000 0.42457  0.41711  0.64273  Biso   1.000  H
  C428     1.0000 0.37689  0.30943  0.65503  Biso   1.000  C
  C429     1.0000 0.26586  0.26792  0.68404  Biso   1.000  C
  H445     1.0000 0.23949  0.34795  0.69124  Biso   1.000  H
  H446     1.0000 0.24213  0.32592  0.69060  Biso   1.000  H
  C430     1.0000 0.28980  0.26592  0.67830  Biso   1.000  C
  N62      1.0000 0.53623  0.86952  0.66671  Biso   1.000  N
  N63      1.0000 0.13051  0.66671  0.66671  Biso   1.000  N
  C431     1.0000 0.26585  0.52901  0.74398  Biso   1.000  C
  H447     1.0000 0.30606  0.47206  0.76603  Biso   1.000  H
  C432     1.0000 0.28602  0.53023  0.74731  Biso   1.000  C
  H448     1.0000 0.36770  0.51208  0.76160  Biso   1.000  H
  H449     1.0000 0.23278  0.57813  0.71373  Biso   1.000  H
  H450     1.0000 0.20907  0.54138  0.72400  Biso   1.000  H
  C433     1.0000 0.34929  0.26953  0.66290  Biso   1.000  C
  H451     1.0000 0.44057  0.33768  0.63890  Biso   1.000  H
  C434     1.0000 0.31736  0.25354  0.67043  Biso   1.000  C
  H452     1.0000 0.22607  0.23045  0.69443  Biso   1.000  H
  C435     1.0000 0.51884  0.82762  0.69421  Biso   1.000  C
  C436     1.0000 0.60591  0.93918  0.66671  Biso   1.000  C
  C437     1.0000 0.51151  0.82701  0.69275  Biso   1.000  C
  C438     1.0000 0.17239  0.69124  0.69421  Biso   1.000  C
  C439     1.0000 0.06081  0.66671  0.66671  Biso   1.000  C
  C440     1.0000 0.17299  0.68447  0.69275  Biso   1.000  C
  C441     1.0000 0.23348  0.54915  0.77173  Biso   1.000  C
  C442     1.0000 0.26057  0.55248  0.77040  Biso   1.000  C
  H453     1.0000 0.35720  0.22940  0.66150  Biso   1.000  H
  H454     1.0000 0.30946  0.20553  0.67183  Biso   1.000  H
  C443     1.0000 0.53878  0.85875  0.72233  Biso   1.000  C
  C444     1.0000 0.47517  0.75124  0.69095  Biso   1.000  C
  C445     1.0000 0.49230  0.75291  0.69512  Biso   1.000  C
  C446     1.0000 0.50989  0.86558  0.71764  Biso   1.000  C
  C447     1.0000 0.60230  0.99513  0.65120  Biso   1.000  C
  C448     1.0000 0.66177  0.93563  0.68213  Biso   1.000  C
  C449     1.0000 0.67172  0.95361  0.68025  Biso   1.000  C
  C450     1.0000 0.62030  0.00506  0.65308  Biso   1.000  C
  C451     1.0000 0.14126  0.68003  0.72233  Biso   1.000  C
  C452     1.0000 0.24877  0.72394  0.69095  Biso   1.000  C
  C453     1.0000 0.24709  0.73942  0.69512  Biso   1.000  C
  C454     1.0000 0.13439  0.64429  0.71764  Biso   1.000  C
  C455     1.0000 0.00491  0.60721  0.65120  Biso   1.000  C
  C456     1.0000 0.06439  0.72616  0.68213  Biso   1.000  C
  C457     1.0000 0.04642  0.71811  0.68025  Biso   1.000  C
  C458     1.0000 0.99500  0.61526  0.65308  Biso   1.000  C
  N64      1.0000 0.24325  0.53361  0.79703  Biso   1.000  N
  H455     1.0000 0.20635  0.57324  0.76894  Biso   1.000  H
  N65      1.0000 0.27442  0.52751  0.79579  Biso   1.000  N
  H456     1.0000 0.23729  0.58062  0.76900  Biso   1.000  H
  C459     1.0000 0.51468  0.81324  0.74722  Biso   1.000  C
  H457     1.0000 0.56796  0.90982  0.72453  Biso   1.000  H
  C460     1.0000 0.48902  0.82989  0.74491  Biso   1.000  C
  H458     1.0000 0.46188  0.73043  0.67214  Biso   1.000  H
  C461     1.0000 0.45127  0.70584  0.71586  Biso   1.000  C
  C462     1.0000 0.47140  0.71728  0.72240  Biso   1.000  C
  H459     1.0000 0.49339  0.72721  0.67850  Biso   1.000  H
  H460     1.0000 0.52268  0.91509  0.71600  Biso   1.000  H
  H461     1.0000 0.55822  0.98541  0.64209  Biso   1.000  H
  C463     1.0000 0.66460  0.06539  0.64929  Biso   1.000  C
  H462     1.0000 0.58289  0.00745  0.64273  Biso   1.000  H
  C464     1.0000 0.69057  0.06745  0.65503  Biso   1.000  C
  C465     1.0000 0.73206  0.99796  0.68404  Biso   1.000  C
  H463     1.0000 0.65209  0.89156  0.69124  Biso   1.000  H
  H464     1.0000 0.67412  0.91620  0.69060  Biso   1.000  H
  C466     1.0000 0.73414  0.02393  0.67830  Biso   1.000  C
  C467     1.0000 0.18677  0.70146  0.74722  Biso   1.000  C
  H465     1.0000 0.09016  0.65811  0.72453  Biso   1.000  H
  C468     1.0000 0.17011  0.65911  0.74491  Biso   1.000  C
  H466     1.0000 0.26958  0.73143  0.67214  Biso   1.000  H
  C469     1.0000 0.29417  0.74542  0.71586  Biso   1.000  C
  C470     1.0000 0.28268  0.75407  0.72240  Biso   1.000  C
  H467     1.0000 0.27277  0.76617  0.67850  Biso   1.000  H
  H468     1.0000 0.08490  0.60760  0.71600  Biso   1.000  H
  H469     1.0000 0.01458  0.57280  0.64209  Biso   1.000  H
  C471     1.0000 0.93463  0.59922  0.64929  Biso   1.000  C
  H470     1.0000 0.99257  0.57541  0.64273  Biso   1.000  H
  C472     1.0000 0.93256  0.62314  0.65503  Biso   1.000  C
  C473     1.0000 0.00210  0.73415  0.68404  Biso   1.000  C
  H471     1.0000 0.10843  0.76051  0.69124  Biso   1.000  H
  H472     1.0000 0.08382  0.75790  0.69060  Biso   1.000  H
  C474     1.0000 0.97610  0.71023  0.67830  Biso   1.000  C
  C475     1.0000 0.21600  0.55726  0.82183  Biso   1.000  C
  C476     1.0000 0.23809  0.53511  0.82329  Biso   1.000  C
  C477     1.0000 0.47093  0.73681  0.74398  Biso   1.000  C
  H473     1.0000 0.52797  0.83406  0.76603  Biso   1.000  H
  C478     1.0000 0.46980  0.75579  0.74731  Biso   1.000  C
  H474     1.0000 0.48788  0.85559  0.76160  Biso   1.000  H
  H475     1.0000 0.42185  0.65461  0.71373  Biso   1.000  H
  H476     1.0000 0.45859  0.66771  0.72400  Biso   1.000  H
  C479     1.0000 0.73050  0.07983  0.66290  Biso   1.000  C
  H477     1.0000 0.66230  0.10292  0.63890  Biso   1.000  H
  C480     1.0000 0.74645  0.06384  0.67043  Biso   1.000  C
  H478     1.0000 0.76954  0.99563  0.69443  Biso   1.000  H
  C481     1.0000 0.26315  0.73415  0.74398  Biso   1.000  C
  H479     1.0000 0.16593  0.69391  0.76603  Biso   1.000  H
  C482     1.0000 0.24419  0.71400  0.74731  Biso   1.000  C
  H480     1.0000 0.14440  0.63230  0.76160  Biso   1.000  H
  H481     1.0000 0.34535  0.76723  0.71373  Biso   1.000  H
  H482     1.0000 0.33228  0.79087  0.72400  Biso   1.000  H
  C483     1.0000 0.92020  0.65073  0.66290  Biso   1.000  C
  H483     1.0000 0.89709  0.55942  0.63890  Biso   1.000  H
  C484     1.0000 0.93616  0.68264  0.67043  Biso   1.000  C
  H484     1.0000 0.00435  0.77394  0.69443  Biso   1.000  H
  C485     1.0000 0.27088  0.59234  0.84523  Biso   1.000  C
  H485     1.0000 0.17246  0.51441  0.83003  Biso   1.000  H
  H486     1.0000 0.20109  0.59195  0.81483  Biso   1.000  H
  C486     1.0000 0.30151  0.59128  0.84439  Biso   1.000  C
  H487     1.0000 0.20951  0.48738  0.83300  Biso   1.000  H
  H488     1.0000 0.20489  0.55359  0.81831  Biso   1.000  H
  C487     1.0000 0.45083  0.68431  0.77173  Biso   1.000  C
  C488     1.0000 0.44750  0.70812  0.77040  Biso   1.000  C
  H489     1.0000 0.77061  0.12784  0.66150  Biso   1.000  H
  H490     1.0000 0.79449  0.10397  0.67183  Biso   1.000  H
  C489     1.0000 0.31567  0.76651  0.77173  Biso   1.000  C
  C490     1.0000 0.29189  0.73942  0.77040  Biso   1.000  C
  H491     1.0000 0.87220  0.64279  0.66150  Biso   1.000  H
  H492     1.0000 0.89607  0.69052  0.67183  Biso   1.000  H
  H493     1.0000 0.29064  0.56042  0.85044  Biso   1.000  H
  H494     1.0000 0.24687  0.59794  0.86263  Biso   1.000  H
  N66      1.0000 0.33328  0.66666  0.83644  Biso   1.000  N
  H495     1.0000 0.28159  0.58501  0.86429  Biso   1.000  H
  H496     1.0000 0.34051  0.57863  0.84490  Biso   1.000  H
  N67      1.0000 0.46637  0.70962  0.79703  Biso   1.000  N
  H497     1.0000 0.42678  0.63313  0.76894  Biso   1.000  H
  N68      1.0000 0.47252  0.74691  0.79579  Biso   1.000  N
  H498     1.0000 0.41940  0.65672  0.76900  Biso   1.000  H
  N69      1.0000 0.29036  0.75674  0.79703  Biso   1.000  N
  H499     1.0000 0.36688  0.79365  0.76894  Biso   1.000  H
  N70      1.0000 0.25311  0.72560  0.79579  Biso   1.000  N
  H500     1.0000 0.34327  0.76268  0.76900  Biso   1.000  H
  C491     1.0000 0.40767  0.67853  0.84523  Biso   1.000  C
  C492     1.0000 0.40871  0.71023  0.84439  Biso   1.000  C
  C493     1.0000 0.32146  0.72915  0.84523  Biso   1.000  C
  C494     1.0000 0.28980  0.69852  0.84439  Biso   1.000  C
  C495     1.0000 0.44275  0.65872  0.82183  Biso   1.000  C
  C496     1.0000 0.46490  0.70301  0.82329  Biso   1.000  C
  C497     1.0000 0.34126  0.78405  0.82183  Biso   1.000  C
  C498     1.0000 0.29702  0.76190  0.82329  Biso   1.000  C
  H501     1.0000 0.43956  0.73021  0.85044  Biso   1.000  H
  H502     1.0000 0.40206  0.64895  0.86263  Biso   1.000  H
  H503     1.0000 0.41500  0.69657  0.86429  Biso   1.000  H
  H504     1.0000 0.42142  0.76190  0.84490  Biso   1.000  H
  H505     1.0000 0.26978  0.70934  0.85044  Biso   1.000  H
  H506     1.0000 0.35104  0.75313  0.86263  Biso   1.000  H
  H507     1.0000 0.30339  0.71839  0.86429  Biso   1.000  H
  H508     1.0000 0.23808  0.65950  0.84490  Biso   1.000  H
  H509     1.0000 0.48558  0.65805  0.83003  Biso   1.000  H
  H510     1.0000 0.40807  0.60915  0.81483  Biso   1.000  H
  H511     1.0000 0.51261  0.72210  0.83300  Biso   1.000  H
  H512     1.0000 0.44639  0.65128  0.81831  Biso   1.000  H
  H513     1.0000 0.34194  0.82751  0.83003  Biso   1.000  H
  H514     1.0000 0.39086  0.79892  0.81483  Biso   1.000  H
  H515     1.0000 0.27791  0.79048  0.83300  Biso   1.000  H
  H516     1.0000 0.34871  0.79509  0.81831  Biso   1.000  H
  C499     1.0000 0.85946  0.62375  0.55562  Biso   1.000  C
  C500     1.0000 0.89449  0.59334  0.53353  Biso   1.000  C
  C501     1.0000 0.91157  0.70701  0.56145  Biso   1.000  C
  H517     1.0000 0.81278  0.61604  0.54773  Biso   1.000  H
  H518     1.0000 0.84926  0.59672  0.57413  Biso   1.000  H
  H519     1.0000 0.86178  0.54033  0.53114  Biso   1.000  H
  H520     1.0000 0.89955  0.61654  0.51434  Biso   1.000  H
  C502     1.0000 0.96815  0.60771  0.54363  Biso   1.000  C
  N71      1.0000 0.87944  0.73043  0.58421  Biso   1.000  N
  H521     1.0000 0.91867  0.73554  0.54323  Biso   1.000  H
  C503     1.0000 0.98538  0.71811  0.57242  Biso   1.000  C
  H522     1.0000 0.99025  0.59173  0.52854  Biso   1.000  H
  H523     1.0000 0.96257  0.57963  0.56154  Biso   1.000  H
  C504     1.0000 0.01765  0.68864  0.54962  Biso   1.000  C
  C505     1.0000 0.86815  0.78244  0.57871  Biso   1.000  C
  H524     1.0000 0.97755  0.69091  0.59103  Biso   1.000  H
  N72      1.0000 0.03737  0.79681  0.57758  Biso   1.000  N
  H525     1.0000 0.02597  0.71594  0.53122  Biso   1.000  H
  H526     1.0000 0.06526  0.69685  0.55664  Biso   1.000  H
  C506     1.0000 0.83306  0.80936  0.60001  Biso   1.000  C
  H527     1.0000 0.88268  0.80564  0.56034  Biso   1.000  H
  C507     1.0000 0.06259  0.81696  0.60251  Biso   1.000  C
  C508     1.0000 0.81736  0.78066  0.62824  Biso   1.000  C
  C509     1.0000 0.81315  0.86203  0.59134  Biso   1.000  C
  C510     1.0000 0.11546  0.89272  0.61182  Biso   1.000  C
  H528     1.0000 0.04638  0.78033  0.61703  Biso   1.000  H
  H529     1.0000 0.83200  0.74686  0.63394  Biso   1.000  H
  C511     1.0000 0.78050  0.80075  0.64843  Biso   1.000  C
  C512     1.0000 0.77724  0.88451  0.61182  Biso   1.000  C
  H530     1.0000 0.82368  0.88173  0.57233  Biso   1.000  H
  C513     1.0000 0.14715  0.90793  0.63934  Biso   1.000  C
  C514     1.0000 0.13798  0.95111  0.59134  Biso   1.000  C
  C515     1.0000 0.76187  0.76734  0.67784  Biso   1.000  C
  C516     1.0000 0.76077  0.85282  0.63934  Biso   1.000  C
  C517     1.0000 0.75440  0.93746  0.60251  Biso   1.000  C
  H531     1.0000 0.13346  0.86891  0.65253  Biso   1.000  H
  C518     1.0000 0.19926  0.97975  0.64843  Biso   1.000  C
  H532     1.0000 0.11826  0.94195  0.57233  Biso   1.000  H
  C519     1.0000 0.19070  0.02377  0.60001  Biso   1.000  C
  N73      1.0000 0.71957  0.77494  0.69579  Biso   1.000  N
  H533     1.0000 0.78237  0.73864  0.68373  Biso   1.000  H
  H534     1.0000 0.73546  0.86652  0.65253  Biso   1.000  H
  H535     1.0000 0.73397  0.95361  0.61703  Biso   1.000  H
  N74      1.0000 0.75950  0.96266  0.57758  Biso   1.000  N
  C520     1.0000 0.23265  0.99452  0.67784  Biso   1.000  C
  C521     1.0000 0.21940  0.03676  0.62824  Biso   1.000  C
  C522     1.0000 0.21756  0.08576  0.57871  Biso   1.000  C
  C523     1.0000 0.70338  0.73631  0.72402  Biso   1.000  C
  C524     1.0000 0.73277  0.01466  0.57242  Biso   1.000  C
  N75      1.0000 0.22505  0.94462  0.69579  Biso   1.000  N
  H536     1.0000 0.26140  0.04375  0.68373  Biso   1.000  H
  H537     1.0000 0.25316  0.08515  0.63394  Biso   1.000  H
  N76      1.0000 0.26958  0.14904  0.58421  Biso   1.000  N
  H538     1.0000 0.19436  0.07705  0.56034  Biso   1.000  H
  H539     1.0000 0.72757  0.70634  0.72493  Biso   1.000  H
  C525     1.0000 0.73298  0.79426  0.74899  Biso   1.000  C
  C526     1.0000 0.62116  0.68714  0.72752  Biso   1.000  C
  C527     1.0000 0.67097  0.98231  0.54962  Biso   1.000  C
  C528     1.0000 0.79546  0.08843  0.56145  Biso   1.000  C
  H540     1.0000 0.71339  0.02244  0.59103  Biso   1.000  H
  C529     1.0000 0.26366  0.96704  0.72402  Biso   1.000  C
  C530     1.0000 0.29296  0.20454  0.56145  Biso   1.000  C
  C531     1.0000 0.71338  0.75746  0.77904  Biso   1.000  C
  N77      1.0000 0.81306  0.83772  0.74611  Biso   1.000  N
  H541     1.0000 0.71188  0.82695  0.74704  Biso   1.000  H
  C532     1.0000 0.60093  0.64851  0.75743  Biso   1.000  C
  H542     1.0000 0.60284  0.65012  0.71194  Biso   1.000  H
  H543     1.0000 0.59735  0.71672  0.72532  Biso   1.000  H
  H544     1.0000 0.68996  0.97404  0.53122  Biso   1.000  H
  H545     1.0000 0.63157  0.93474  0.55664  Biso   1.000  H
  C533     1.0000 0.63957  0.03187  0.54363  Biso   1.000  C
  N78      1.0000 0.85100  0.12057  0.58421  Biso   1.000  N
  H546     1.0000 0.81686  0.08132  0.54323  Biso   1.000  H
  C534     1.0000 0.76427  0.14055  0.55562  Biso   1.000  C
  C535     1.0000 0.20576  0.93874  0.74899  Biso   1.000  C
  C536     1.0000 0.31286  0.93402  0.72752  Biso   1.000  C
  H547     1.0000 0.29371  0.02127  0.72493  Biso   1.000  H
  H548     1.0000 0.26446  0.18312  0.54323  Biso   1.000  H
  C537     1.0000 0.37628  0.23574  0.55562  Biso   1.000  C
  C538     1.0000 0.28187  0.26726  0.57242  Biso   1.000  C
  H549     1.0000 0.73878  0.72943  0.78194  Biso   1.000  H
  H550     1.0000 0.72986  0.79504  0.79433  Biso   1.000  H
  C539     1.0000 0.63157  0.70651  0.78163  Biso   1.000  C
  C540     1.0000 0.84246  0.90593  0.74110  Biso   1.000  C
  H551     1.0000 0.54746  0.61876  0.75923  Biso   1.000  H
  H552     1.0000 0.62166  0.61604  0.75923  Biso   1.000  H
  C541     1.0000 0.69884  0.10552  0.53353  Biso   1.000  C
  H553     1.0000 0.60148  0.00972  0.52854  Biso   1.000  H
  H554     1.0000 0.61706  0.03742  0.56154  Biso   1.000  H
  C542     1.0000 0.91426  0.13183  0.57871  Biso   1.000  C
  H555     1.0000 0.80328  0.18723  0.54773  Biso   1.000  H
  H556     1.0000 0.74746  0.15076  0.57413  Biso   1.000  H
  C543     1.0000 0.24258  0.95594  0.77904  Biso   1.000  C
  N79      1.0000 0.16224  0.97531  0.74611  Biso   1.000  N
  H557     1.0000 0.17306  0.88495  0.74704  Biso   1.000  H
  C544     1.0000 0.35149  0.95244  0.75743  Biso   1.000  C
  H558     1.0000 0.34985  0.95272  0.71194  Biso   1.000  H
  H559     1.0000 0.28327  0.88062  0.72532  Biso   1.000  H
  H560     1.0000 0.38400  0.19677  0.54773  Biso   1.000  H
  H561     1.0000 0.40329  0.25255  0.57413  Biso   1.000  H
  C545     1.0000 0.40666  0.30112  0.53353  Biso   1.000  C
  C546     1.0000 0.31137  0.32904  0.54962  Biso   1.000  C
  N80      1.0000 0.20320  0.24056  0.57758  Biso   1.000  N
  H562     1.0000 0.30905  0.28663  0.59103  Biso   1.000  H
  H563     1.0000 0.60676  0.73554  0.78084  Biso   1.000  H
  H564     1.0000 0.62066  0.68181  0.80074  Biso   1.000  H
  C547     1.0000 0.92338  0.95394  0.73889  Biso   1.000  C
  H565     1.0000 0.81239  0.92675  0.73873  Biso   1.000  H
  H566     1.0000 0.67859  0.13827  0.53114  Biso   1.000  H
  H567     1.0000 0.71696  0.10042  0.51434  Biso   1.000  H
  C548     1.0000 0.97629  0.16697  0.60001  Biso   1.000  C
  H568     1.0000 0.92298  0.11735  0.56034  Biso   1.000  H
  H569     1.0000 0.20498  0.93485  0.79433  Biso   1.000  H
  C549     1.0000 0.29346  0.92503  0.78163  Biso   1.000  C
  H570     1.0000 0.27058  0.00934  0.78194  Biso   1.000  H
  C550     1.0000 0.09405  0.93652  0.74110  Biso   1.000  C
  H571     1.0000 0.38126  0.92874  0.75923  Biso   1.000  H
  H572     1.0000 0.38394  0.00562  0.75923  Biso   1.000  H
  H573     1.0000 0.45965  0.32143  0.53114  Biso   1.000  H
  H574     1.0000 0.38349  0.28303  0.51434  Biso   1.000  H
  C551     1.0000 0.39225  0.36045  0.54363  Biso   1.000  C
  H575     1.0000 0.28409  0.31006  0.53122  Biso   1.000  H
  H576     1.0000 0.30319  0.36845  0.55664  Biso   1.000  H
  C552     1.0000 0.18306  0.24567  0.60251  Biso   1.000  C
  C553     1.0000 0.97046  0.92525  0.73860  Biso   1.000  C
  C554     1.0000 0.95478  0.02954  0.73860  Biso   1.000  C
  C555     1.0000 0.96326  0.18262  0.62824  Biso   1.000  C
  C556     1.0000 0.04886  0.18684  0.59134  Biso   1.000  C
  H577     1.0000 0.26445  0.87124  0.78084  Biso   1.000  H
  H578     1.0000 0.31815  0.93885  0.80074  Biso   1.000  H
  C557     1.0000 0.04605  0.96943  0.73889  Biso   1.000  C
  H579     1.0000 0.07326  0.88562  0.73873  Biso   1.000  H
  H580     1.0000 0.40826  0.39853  0.52854  Biso   1.000  H
  H581     1.0000 0.42036  0.38293  0.56154  Biso   1.000  H
  C558     1.0000 0.10729  0.22275  0.61182  Biso   1.000  C
  H582     1.0000 0.21969  0.26604  0.61703  Biso   1.000  H
  H583     1.0000 0.95017  0.87391  0.73813  Biso   1.000  H
  H584     1.0000 0.92379  0.04985  0.73813  Biso   1.000  H
  C559     1.0000 0.03059  0.07666  0.73889  Biso   1.000  C
  H585     1.0000 0.91486  0.16802  0.63394  Biso   1.000  H
  C560     1.0000 0.02026  0.21953  0.64843  Biso   1.000  C
  H586     1.0000 0.05808  0.17635  0.57233  Biso   1.000  H
  C561     1.0000 0.07478  0.04525  0.73860  Biso   1.000  C
  C562     1.0000 0.09207  0.23923  0.63934  Biso   1.000  C
  C563     1.0000 0.06348  0.15753  0.74110  Biso   1.000  C
  C564     1.0000 0.00548  0.23812  0.67784  Biso   1.000  C
  H587     1.0000 0.12607  0.07622  0.73813  Biso   1.000  H
  H588     1.0000 0.13107  0.26454  0.65253  Biso   1.000  H
  N81      1.0000 0.02469  0.18695  0.74611  Biso   1.000  N
  H589     1.0000 0.11441  0.18767  0.73873  Biso   1.000  H
  H590     1.0000 0.95625  0.21764  0.68373  Biso   1.000  H
  N82      1.0000 0.05540  0.28047  0.69579  Biso   1.000  N
  C565     1.0000 0.06127  0.26704  0.74899  Biso   1.000  C
  C566     1.0000 0.03295  0.29662  0.72402  Biso   1.000  C
  C567     1.0000 0.04406  0.28663  0.77904  Biso   1.000  C
  H591     1.0000 0.11508  0.28813  0.74704  Biso   1.000  H
  H592     1.0000 0.97874  0.27242  0.72493  Biso   1.000  H
  C568     1.0000 0.06597  0.37882  0.72752  Biso   1.000  C
  H593     1.0000 0.99066  0.26127  0.78194  Biso   1.000  H
  H594     1.0000 0.06518  0.27015  0.79433  Biso   1.000  H
  C569     1.0000 0.07496  0.36845  0.78163  Biso   1.000  C
  C570     1.0000 0.04757  0.39903  0.75743  Biso   1.000  C
  H595     1.0000 0.04725  0.39714  0.71194  Biso   1.000  H
  H596     1.0000 0.11936  0.40264  0.72532  Biso   1.000  H
  H597     1.0000 0.12876  0.39326  0.78084  Biso   1.000  H
  H598     1.0000 0.06118  0.37932  0.80074  Biso   1.000  H
  H599     1.0000 0.99434  0.37833  0.75923  Biso   1.000  H
  H600     1.0000 0.07125  0.45253  0.75923  Biso   1.000  H
  C571     1.0000 0.93756  0.92569  0.17857  Biso   1.000  C
  C572     1.0000 0.90474  0.86841  0.15663  Biso   1.000  C
  C573     1.0000 0.88265  0.89056  0.15517  Biso   1.000  C
  H601     1.0000 0.95732  0.89378  0.18377  Biso   1.000  H
  H602     1.0000 0.91352  0.93124  0.19596  Biso   1.000  H
  N83      1.0000 0.99993  0.99996  0.16977  Biso   1.000  N
  H603     1.0000 0.94824  0.91831  0.19762  Biso   1.000  H
  N84      1.0000 0.90993  0.86697  0.13037  Biso   1.000  N
  H604     1.0000 0.83914  0.84776  0.16336  Biso   1.000  H
  C574     1.0000 0.96818  0.92464  0.17772  Biso   1.000  C
  H605     1.0000 0.87619  0.82073  0.16633  Biso   1.000  H
  H606     1.0000 0.87157  0.88695  0.15164  Biso   1.000  H
  N85      1.0000 0.94108  0.86081  0.12913  Biso   1.000  N
  H607     1.0000 0.86774  0.92525  0.14816  Biso   1.000  H
  C575     1.0000 0.98811  0.06245  0.17857  Biso   1.000  C
  C576     1.0000 0.95648  0.03187  0.17772  Biso   1.000  C
  C577     1.0000 0.07434  0.01189  0.17857  Biso   1.000  C
  C578     1.0000 0.07536  0.04353  0.17772  Biso   1.000  C
  C579     1.0000 0.90013  0.88245  0.10506  Biso   1.000  C
  C580     1.0000 0.92725  0.88584  0.10373  Biso   1.000  C
  H608     1.0000 0.00716  0.91193  0.17823  Biso   1.000  H
  H609     1.0000 0.93646  0.04269  0.18377  Biso   1.000  H
  H610     1.0000 0.97006  0.05174  0.19762  Biso   1.000  H
  C581     1.0000 0.96370  0.09526  0.15663  Biso   1.000  C
  H611     1.0000 0.01772  0.08649  0.19596  Biso   1.000  H
  C582     1.0000 0.00794  0.11740  0.15517  Biso   1.000  C
  H612     1.0000 0.90476  0.99285  0.17823  Biso   1.000  H
  H613     1.0000 0.06871  0.98225  0.19596  Biso   1.000  H
  C583     1.0000 0.10943  0.99207  0.15517  Biso   1.000  C
  H614     1.0000 0.10624  0.06356  0.18377  Biso   1.000  H
  H615     1.0000 0.08168  0.02993  0.19762  Biso   1.000  H
  C584     1.0000 0.13157  0.03637  0.15663  Biso   1.000  C
  H616     1.0000 0.08810  0.09526  0.17823  Biso   1.000  H
  C585     1.0000 0.93253  0.86236  0.07732  Biso   1.000  C
  H617     1.0000 0.87300  0.90654  0.10227  Biso   1.000  H
  H618     1.0000 0.90394  0.91393  0.10234  Biso   1.000  H
  C586     1.0000 0.95267  0.86353  0.08064  Biso   1.000  C
  N86      1.0000 0.95704  0.09009  0.13037  Biso   1.000  N
  H619     1.0000 0.94459  0.12384  0.16633  Biso   1.000  H
  N87      1.0000 0.91979  0.05896  0.12913  Biso   1.000  N
  H620     1.0000 0.00862  0.16086  0.16336  Biso   1.000  H
  H621     1.0000 0.01539  0.12845  0.15164  Biso   1.000  H
  H622     1.0000 0.05753  0.13228  0.14816  Biso   1.000  H
  H623     1.0000 0.15223  0.99135  0.16336  Biso   1.000  H
  H624     1.0000 0.07472  0.94245  0.14816  Biso   1.000  H
  N88      1.0000 0.13305  0.04297  0.13037  Biso   1.000  N
  H625     1.0000 0.11306  0.98464  0.15164  Biso   1.000  H
  H626     1.0000 0.17929  0.05546  0.16633  Biso   1.000  H
  N89      1.0000 0.13920  0.08027  0.12913  Biso   1.000  N
  C587     1.0000 0.96524  0.81868  0.08055  Biso   1.000  C
  C588     1.0000 0.92123  0.88207  0.04920  Biso   1.000  C
  C589     1.0000 0.91255  0.86192  0.05573  Biso   1.000  C
  C590     1.0000 0.00758  0.84432  0.07825  Biso   1.000  C
  C591     1.0000 0.98235  0.09986  0.10506  Biso   1.000  C
  C592     1.0000 0.95854  0.07272  0.10373  Biso   1.000  C
  C593     1.0000 0.11751  0.01766  0.10506  Biso   1.000  C
  C594     1.0000 0.11415  0.04142  0.10373  Biso   1.000  C
  H627     1.0000 0.97271  0.80536  0.09937  Biso   1.000  H
  C595     1.0000 0.98665  0.79459  0.05567  Biso   1.000  C
  C596     1.0000 0.02238  0.82345  0.05097  Biso   1.000  C
  C597     1.0000 0.94272  0.85814  0.02429  Biso   1.000  C
  H628     1.0000 0.89945  0.91148  0.04707  Biso   1.000  H
  H629     1.0000 0.87575  0.87474  0.05733  Biso   1.000  H
  C598     1.0000 0.92725  0.84105  0.02845  Biso   1.000  C
  H630     1.0000 0.03438  0.84543  0.09493  Biso   1.000  H
  C599     1.0000 0.92983  0.06750  0.07732  Biso   1.000  C
  C600     1.0000 0.91086  0.04736  0.08064  Biso   1.000  C
  H631     1.0000 0.03356  0.12700  0.10227  Biso   1.000  H
  H632     1.0000 0.00995  0.09603  0.10234  Biso   1.000  H
  H633     1.0000 0.09346  0.96649  0.10227  Biso   1.000  H
  H634     1.0000 0.08605  0.99002  0.10234  Biso   1.000  H
  C601     1.0000 0.13761  0.07017  0.07732  Biso   1.000  C
  C602     1.0000 0.13648  0.08915  0.08064  Biso   1.000  C
  C603     1.0000 0.97544  0.81446  0.02755  Biso   1.000  C
  C604     1.0000 0.98216  0.82184  0.02608  Biso   1.000  C
  H635     1.0000 0.00851  0.76534  0.05786  Biso   1.000  H
  H636     1.0000 0.05908  0.81063  0.04933  Biso   1.000  H
  H637     1.0000 0.93525  0.87146  0.00547  Biso   1.000  H
  H638     1.0000 0.90045  0.83994  0.01183  Biso   1.000  H
  C605     1.0000 0.85342  0.03476  0.08055  Biso   1.000  C
  C606     1.0000 0.96084  0.07877  0.04920  Biso   1.000  C
  C607     1.0000 0.94936  0.08743  0.05573  Biso   1.000  C
  C608     1.0000 0.83676  0.99241  0.07825  Biso   1.000  C
  C609     1.0000 0.18135  0.14660  0.08055  Biso   1.000  C
  C610     1.0000 0.11795  0.03920  0.04920  Biso   1.000  C
  C611     1.0000 0.13808  0.05063  0.05573  Biso   1.000  C
  C612     1.0000 0.15570  0.16325  0.07825  Biso   1.000  C
  N90      1.0000 1.00000  0.79715  0.00004  Biso   1.000  N
  C613     1.0000 0.80107  0.97764  0.05097  Biso   1.000  C
  H639     1.0000 0.83261  0.02726  0.09937  Biso   1.000  H
  C614     1.0000 0.80793  0.01339  0.05567  Biso   1.000  C
  C615     1.0000 0.91545  0.05729  0.02429  Biso   1.000  C
  H640     1.0000 0.99895  0.12423  0.05733  Biso   1.000  H
  C616     1.0000 0.91374  0.07272  0.02845  Biso   1.000  C
  H641     1.0000 0.01203  0.10058  0.04707  Biso   1.000  H
  H642     1.0000 0.81108  0.96565  0.09493  Biso   1.000  H
  H643     1.0000 0.19462  0.16736  0.09937  Biso   1.000  H
  C617     1.0000 0.20543  0.19205  0.05567  Biso   1.000  C
  C618     1.0000 0.17657  0.19894  0.05097  Biso   1.000  C
  H644     1.0000 0.08853  0.98797  0.04707  Biso   1.000  H
  C619     1.0000 0.14185  0.08460  0.02429  Biso   1.000  C
  H645     1.0000 0.12527  0.00107  0.05733  Biso   1.000  H
  C620     1.0000 0.15898  0.08626  0.02845  Biso   1.000  C
  H646     1.0000 0.15456  0.18895  0.09493  Biso   1.000  H
  C621     1.0000 0.99999  0.72743  0.00004  Biso   1.000  C
  C622     1.0000 0.02455  0.83905  0.97245  Biso   1.000  C
  C623     1.0000 0.01784  0.83966  0.97392  Biso   1.000  C
  H647     1.0000 0.75684  0.99146  0.05786  Biso   1.000  H
  H648     1.0000 0.75158  0.94096  0.04933  Biso   1.000  H
  C624     1.0000 0.83906  0.02460  0.02755  Biso   1.000  C
  C625     1.0000 0.83967  0.01783  0.02608  Biso   1.000  C
  H649     1.0000 0.93626  0.06478  0.00547  Biso   1.000  H
  H650     1.0000 0.93945  0.09953  0.01183  Biso   1.000  H
  H651     1.0000 0.23464  0.24317  0.05786  Biso   1.000  H
  C626     1.0000 0.18551  0.16097  0.02755  Biso   1.000  C
  C627     1.0000 0.17819  0.16036  0.02608  Biso   1.000  C
  H652     1.0000 0.18935  0.24845  0.04933  Biso   1.000  H
  H653     1.0000 0.12856  0.06379  0.00547  Biso   1.000  H
  H654     1.0000 0.16007  0.06057  0.01183  Biso   1.000  H
  C628     1.0000 0.94051  0.67154  0.01547  Biso   1.000  C
  C629     1.0000 0.94860  0.66166  0.01358  Biso   1.000  C
  C630     1.0000 0.05947  0.73104  0.98453  Biso   1.000  C
  C631     1.0000 0.05144  0.71306  0.98642  Biso   1.000  C
  C632     1.0000 0.97764  0.80109  0.94903  Biso   1.000  C
  C633     1.0000 0.01336  0.80791  0.94433  Biso   1.000  C
  C634     1.0000 0.05726  0.91542  0.97571  Biso   1.000  C
  C635     1.0000 0.07272  0.91376  0.97155  Biso   1.000  C
  N91      1.0000 0.79719  0.00007  0.00004  Biso   1.000  N
  N92      1.0000 0.20288  0.20282  0.00004  Biso   1.000  N
  C636     1.0000 0.93253  0.60127  0.01737  Biso   1.000  C
  H655     1.0000 0.90614  0.68125  0.02458  Biso   1.000  H
  H656     1.0000 0.90878  0.65922  0.02393  Biso   1.000  H
  C637     1.0000 0.95645  0.59922  0.01163  Biso   1.000  C
  C638     1.0000 0.06743  0.66871  0.98263  Biso   1.000  C
  H657     1.0000 0.09386  0.77511  0.97542  Biso   1.000  H
  H658     1.0000 0.09125  0.75047  0.97607  Biso   1.000  H
  C639     1.0000 0.04356  0.64279  0.98837  Biso   1.000  C
  H659     1.0000 0.99148  0.75685  0.94214  Biso   1.000  H
  H660     1.0000 0.94092  0.75158  0.95067  Biso   1.000  H
  C640     1.0000 0.99246  0.83677  0.92175  Biso   1.000  C
  C641     1.0000 0.03477  0.85343  0.91945  Biso   1.000  C
  H661     1.0000 0.06478  0.93624  0.99453  Biso   1.000  H
  C642     1.0000 0.07876  0.96083  0.95080  Biso   1.000  C
  C643     1.0000 0.08746  0.94939  0.94427  Biso   1.000  C
  H662     1.0000 0.09951  0.93946  0.98817  Biso   1.000  H
  C644     1.0000 0.81448  0.97542  0.97245  Biso   1.000  C
  C645     1.0000 0.82182  0.98214  0.97392  Biso   1.000  C
  C646     1.0000 0.72749  0.00007  0.00004  Biso   1.000  C
  C647     1.0000 0.16099  0.18556  0.97245  Biso   1.000  C
  C648     1.0000 0.16033  0.17818  0.97392  Biso   1.000  C
  C649     1.0000 0.27259  0.27254  0.00004  Biso   1.000  C
  C650     1.0000 0.98401  0.58684  0.00377  Biso   1.000  C
  H663     1.0000 0.89272  0.56375  0.02777  Biso   1.000  H
  C651     1.0000 0.01594  0.60283  0.99623  Biso   1.000  C
  H664     1.0000 0.10725  0.67104  0.97223  Biso   1.000  H
  H665     1.0000 0.96562  0.81108  0.90507  Biso   1.000  H
  H666     1.0000 0.02725  0.83261  0.90063  Biso   1.000  H
  C652     1.0000 0.04734  0.91087  0.91936  Biso   1.000  C
  C653     1.0000 0.06746  0.92985  0.92268  Biso   1.000  C
  H667     1.0000 0.12421  0.99896  0.94267  Biso   1.000  H
  H668     1.0000 0.10058  0.01206  0.95293  Biso   1.000  H
  C654     1.0000 0.79456  0.98664  0.94433  Biso   1.000  C
  C655     1.0000 0.85817  0.94273  0.97571  Biso   1.000  C
  C656     1.0000 0.84100  0.92725  0.97155  Biso   1.000  C
  C657     1.0000 0.82344  0.02238  0.94903  Biso   1.000  C
  C658     1.0000 0.67156  0.94051  0.98453  Biso   1.000  C
  C659     1.0000 0.66165  0.94856  0.98642  Biso   1.000  C
  C660     1.0000 0.73104  0.05946  0.01547  Biso   1.000  C
  C661     1.0000 0.71310  0.05146  0.01358  Biso   1.000  C
  C662     1.0000 0.19207  0.20543  0.94433  Biso   1.000  C
  C663     1.0000 0.08456  0.14182  0.97571  Biso   1.000  C
  C664     1.0000 0.08622  0.15897  0.97155  Biso   1.000  C
  C665     1.0000 0.19894  0.17657  0.94903  Biso   1.000  C
  C666     1.0000 0.26895  0.32843  0.98453  Biso   1.000  C
  C667     1.0000 0.28695  0.33836  0.98642  Biso   1.000  C
  C668     1.0000 0.32844  0.26898  0.01547  Biso   1.000  C
  C669     1.0000 0.33840  0.28697  0.01358  Biso   1.000  C
  H669     1.0000 0.97613  0.53889  0.00516  Biso   1.000  H
  H670     1.0000 0.02388  0.56275  0.99484  Biso   1.000  H
  C670     1.0000 0.09983  0.98231  0.89494  Biso   1.000  C
  C671     1.0000 0.07272  0.95855  0.89627  Biso   1.000  C
  C672     1.0000 0.81865  0.96521  0.91945  Biso   1.000  C
  H671     1.0000 0.76538  0.00856  0.94214  Biso   1.000  H
  C673     1.0000 0.84434  0.00756  0.92175  Biso   1.000  C
  H672     1.0000 0.87148  0.93524  0.99453  Biso   1.000  H
  C674     1.0000 0.88208  0.92125  0.95080  Biso   1.000  C
  C675     1.0000 0.86194  0.91259  0.94427  Biso   1.000  C
  H673     1.0000 0.83993  0.90049  0.98817  Biso   1.000  H
  H674     1.0000 0.81063  0.05907  0.95067  Biso   1.000  H
  C676     1.0000 0.60128  0.93252  0.98263  Biso   1.000  C
  H675     1.0000 0.68125  0.90615  0.97542  Biso   1.000  H
  H676     1.0000 0.65925  0.90876  0.97607  Biso   1.000  H
  C677     1.0000 0.59921  0.95644  0.98837  Biso   1.000  C
  C678     1.0000 0.66877  0.06750  0.01737  Biso   1.000  C
  H677     1.0000 0.77511  0.09387  0.02458  Biso   1.000  H
  H678     1.0000 0.75049  0.09126  0.02393  Biso   1.000  H
  C679     1.0000 0.64275  0.04353  0.01163  Biso   1.000  C
  C680     1.0000 0.14657  0.18134  0.91945  Biso   1.000  C
  H679     1.0000 0.24315  0.23463  0.94214  Biso   1.000  H
  C681     1.0000 0.16327  0.15570  0.92175  Biso   1.000  C
  H680     1.0000 0.06380  0.12856  0.99453  Biso   1.000  H
  C682     1.0000 0.03917  0.11796  0.95080  Biso   1.000  C
  C683     1.0000 0.05064  0.13810  0.94427  Biso   1.000  C
  H681     1.0000 0.06053  0.16008  0.98817  Biso   1.000  H
  H682     1.0000 0.24846  0.18939  0.95067  Biso   1.000  H
  C684     1.0000 0.33127  0.39875  0.98263  Biso   1.000  C
  H683     1.0000 0.22490  0.31877  0.97542  Biso   1.000  H
  H684     1.0000 0.24957  0.34080  0.97607  Biso   1.000  H
  C685     1.0000 0.35725  0.40080  0.98837  Biso   1.000  C
  C686     1.0000 0.39871  0.33126  0.01737  Biso   1.000  C
  H685     1.0000 0.31874  0.22486  0.02458  Biso   1.000  H
  H686     1.0000 0.34079  0.24956  0.02393  Biso   1.000  H
  C687     1.0000 0.40079  0.35723  0.01163  Biso   1.000  C
  N93      1.0000 0.09009  0.95705  0.86963  Biso   1.000  N
  N94      1.0000 0.05894  0.91975  0.87087  Biso   1.000  N
  H687     1.0000 0.12699  0.03354  0.89773  Biso   1.000  H
  H688     1.0000 0.09604  0.01000  0.89766  Biso   1.000  H
  C688     1.0000 0.86234  0.93252  0.92268  Biso   1.000  C
  H689     1.0000 0.80536  0.97276  0.90063  Biso   1.000  H
  C689     1.0000 0.86352  0.95267  0.91936  Biso   1.000  C
  H690     1.0000 0.84544  0.03437  0.90507  Biso   1.000  H
  H691     1.0000 0.91146  0.89944  0.95293  Biso   1.000  H
  H692     1.0000 0.87474  0.87579  0.94267  Biso   1.000  H
  C690     1.0000 0.58685  0.98403  0.99623  Biso   1.000  C
  H693     1.0000 0.56374  0.89272  0.97223  Biso   1.000  H
  C691     1.0000 0.60284  0.01600  0.00377  Biso   1.000  C
  H694     1.0000 0.67103  0.10730  0.02777  Biso   1.000  H
  C692     1.0000 0.07018  0.13766  0.92268  Biso   1.000  C
  H695     1.0000 0.16737  0.19466  0.90063  Biso   1.000  H
  C693     1.0000 0.08916  0.13650  0.91936  Biso   1.000  C
  H696     1.0000 0.18896  0.15459  0.90507  Biso   1.000  H
  H697     1.0000 0.98798  0.08854  0.95293  Biso   1.000  H
  H698     1.0000 0.00102  0.12528  0.94267  Biso   1.000  H
  C694     1.0000 0.39715  0.41313  0.99623  Biso   1.000  C
  H699     1.0000 0.32898  0.43627  0.97223  Biso   1.000  H
  C695     1.0000 0.41312  0.39720  0.00377  Biso   1.000  C
  H700     1.0000 0.43622  0.32898  0.02777  Biso   1.000  H
  C696     1.0000 0.09522  0.96366  0.84337  Biso   1.000  C
  C697     1.0000 0.11737  0.00795  0.84483  Biso   1.000  C
  C698     1.0000 0.88250  0.90016  0.89494  Biso   1.000  C
  C699     1.0000 0.88580  0.92725  0.89627  Biso   1.000  C
  H701     1.0000 0.53888  0.97614  0.99484  Biso   1.000  H
  H702     1.0000 0.56275  0.02388  0.00516  Biso   1.000  H
  C700     1.0000 0.01769  0.11757  0.89494  Biso   1.000  C
  C701     1.0000 0.04142  0.11418  0.89627  Biso   1.000  C
  H703     1.0000 0.43726  0.46114  0.99484  Biso   1.000  H
  H704     1.0000 0.46114  0.43727  0.00516  Biso   1.000  H
  C702     1.0000 0.06247  0.98813  0.82143  Biso   1.000  C
  C703     1.0000 0.03182  0.95644  0.82228  Biso   1.000  C
  H705     1.0000 0.12384  0.94456  0.83367  Biso   1.000  H
  H706     1.0000 0.16089  0.00867  0.83664  Biso   1.000  H
  H707     1.0000 0.12844  0.01539  0.84836  Biso   1.000  H
  H708     1.0000 0.13227  0.05757  0.85184  Biso   1.000  H
  N95      1.0000 0.86695  0.90993  0.86963  Biso   1.000  N
  H709     1.0000 0.90656  0.87302  0.89773  Biso   1.000  H
  N96      1.0000 0.86084  0.94107  0.87087  Biso   1.000  N
  H710     1.0000 0.91393  0.90399  0.89766  Biso   1.000  H
  H711     1.0000 0.96644  0.09342  0.89773  Biso   1.000  H
  H712     1.0000 0.99003  0.08610  0.89766  Biso   1.000  H
  N97      1.0000 0.04297  0.13305  0.86963  Biso   1.000  N
  N98      1.0000 0.08025  0.13916  0.87087  Biso   1.000  N
  N99      1.0000 0.99999  0.00007  0.83023  Biso   1.000  N
  H713     1.0000 0.04269  0.93646  0.81623  Biso   1.000  H
  H714     1.0000 0.05174  0.97004  0.80238  Biso   1.000  H
  H715     1.0000 0.08644  0.01772  0.80404  Biso   1.000  H
  H716     1.0000 0.99286  0.90477  0.82177  Biso   1.000  H
  C704     1.0000 0.89055  0.88262  0.84483  Biso   1.000  C
  C705     1.0000 0.86846  0.90477  0.84337  Biso   1.000  C
  C706     1.0000 0.99210  0.10946  0.84483  Biso   1.000  C
  C707     1.0000 0.03631  0.13156  0.84337  Biso   1.000  C
  C708     1.0000 0.92564  0.93751  0.82143  Biso   1.000  C
  C709     1.0000 0.92462  0.96815  0.82228  Biso   1.000  C
  C710     1.0000 0.01188  0.07433  0.82143  Biso   1.000  C
  C711     1.0000 0.04356  0.07539  0.82228  Biso   1.000  C
  H717     1.0000 0.84774  0.83911  0.83664  Biso   1.000  H
  H718     1.0000 0.92527  0.86775  0.85184  Biso   1.000  H
  H719     1.0000 0.82076  0.87618  0.83367  Biso   1.000  H
  H720     1.0000 0.88695  0.87158  0.84836  Biso   1.000  H
  H721     1.0000 0.99139  0.15226  0.83664  Biso   1.000  H
  H722     1.0000 0.94247  0.07472  0.85184  Biso   1.000  H
  H723     1.0000 0.98463  0.11307  0.84836  Biso   1.000  H
  H724     1.0000 0.05547  0.17929  0.83367  Biso   1.000  H
  H725     1.0000 0.89378  0.95733  0.81623  Biso   1.000  H
  H726     1.0000 0.93124  0.91354  0.80404  Biso   1.000  H
  H727     1.0000 0.91833  0.94828  0.80238  Biso   1.000  H
  H728     1.0000 0.91192  0.00717  0.82177  Biso   1.000  H
  H729     1.0000 0.98226  0.06873  0.80404  Biso   1.000  H
  H730     1.0000 0.06355  0.10625  0.81623  Biso   1.000  H
  H731     1.0000 0.02992  0.08166  0.80238  Biso   1.000  H
  H732     1.0000 0.09524  0.08810  0.82177  Biso   1.000  H
  C712     1.0000 0.43888  0.36555  0.13314  Biso   1.000  C
  C713     1.0000 0.36513  0.30621  0.12303  Biso   1.000  C
  C714     1.0000 0.47388  0.43093  0.11104  Biso   1.000  C
  H733     1.0000 0.47155  0.34523  0.13553  Biso   1.000  H
  H734     1.0000 0.43379  0.38364  0.15233  Biso   1.000  H
  C715     1.0000 0.31566  0.33763  0.11705  Biso   1.000  C
  H735     1.0000 0.34307  0.26814  0.13812  Biso   1.000  H
  H736     1.0000 0.37077  0.28374  0.10513  Biso   1.000  H
  C716     1.0000 0.42175  0.46212  0.10522  Biso   1.000  C
  H737     1.0000 0.52059  0.46995  0.11893  Biso   1.000  H
  H738     1.0000 0.48407  0.41411  0.09254  Biso   1.000  H
  H739     1.0000 0.30737  0.35661  0.13544  Biso   1.000  H
  H740     1.0000 0.26808  0.29822  0.11003  Biso   1.000  H
  C717     1.0000 0.34797  0.39946  0.09425  Biso   1.000  C
  N100     1.0000 0.45387  0.51763  0.08246  Biso   1.000  N
  H741     1.0000 0.41467  0.48355  0.12343  Biso   1.000  H
  N101     1.0000 0.29600  0.42616  0.08908  Biso   1.000  N
  H742     1.0000 0.35575  0.38003  0.07563  Biso   1.000  H
  C718     1.0000 0.46516  0.58096  0.08795  Biso   1.000  C
  C719     1.0000 0.27075  0.42105  0.06415  Biso   1.000  C
  C720     1.0000 0.50029  0.64296  0.06666  Biso   1.000  C
  H743     1.0000 0.45064  0.58962  0.10632  Biso   1.000  H
  C721     1.0000 0.21787  0.44392  0.05485  Biso   1.000  C
  H744     1.0000 0.28698  0.40063  0.04964  Biso   1.000  H
  C722     1.0000 0.51598  0.62991  0.03843  Biso   1.000  C
  C723     1.0000 0.52020  0.71555  0.07532  Biso   1.000  C
  C724     1.0000 0.18617  0.42743  0.02732  Biso   1.000  C
  C725     1.0000 0.19536  0.47983  0.07532  Biso   1.000  C
  H745     1.0000 0.50134  0.58151  0.03273  Biso   1.000  H
  C726     1.0000 0.55284  0.68691  0.01824  Biso   1.000  C
  C727     1.0000 0.55607  0.77394  0.05485  Biso   1.000  C
  H746     1.0000 0.50964  0.72471  0.09434  Biso   1.000  H
  H747     1.0000 0.19986  0.40212  0.01414  Biso   1.000  H
  C728     1.0000 0.13407  0.44714  0.01824  Biso   1.000  C
  C729     1.0000 0.14269  0.49976  0.06666  Biso   1.000  C
  H748     1.0000 0.21507  0.49032  0.09434  Biso   1.000  H
  C730     1.0000 0.57255  0.75874  0.02732  Biso   1.000  C
  C731     1.0000 0.57146  0.67215  0.98883  Biso   1.000  C
  C732     1.0000 0.57896  0.84971  0.06415  Biso   1.000  C
  C733     1.0000 0.11397  0.48405  0.03843  Biso   1.000  C
  C734     1.0000 0.10069  0.42854  0.98883  Biso   1.000  C
  C735     1.0000 0.11576  0.53483  0.08795  Biso   1.000  C
  H749     1.0000 0.59788  0.79776  0.01414  Biso   1.000  H
  N102     1.0000 0.61376  0.72205  0.97088  Biso   1.000  N
  H750     1.0000 0.55098  0.62292  0.98294  Biso   1.000  H
  H751     1.0000 0.59939  0.88634  0.04964  Biso   1.000  H
  N103     1.0000 0.57389  0.86986  0.08908  Biso   1.000  N
  H752     1.0000 0.08017  0.49865  0.03273  Biso   1.000  H
  N104     1.0000 0.10829  0.38625  0.97088  Biso   1.000  N
  H753     1.0000 0.07195  0.44903  0.98294  Biso   1.000  H
  N105     1.0000 0.06379  0.54616  0.08246  Biso   1.000  N
  H754     1.0000 0.13897  0.54932  0.10632  Biso   1.000  H
  C736     1.0000 0.62995  0.69963  0.94265  Biso   1.000  C
  C737     1.0000 0.60060  0.94856  0.09425  Biso   1.000  C
  C738     1.0000 0.06966  0.37004  0.94265  Biso   1.000  C
  C739     1.0000 0.04037  0.57824  0.10522  Biso   1.000  C
  H755     1.0000 0.60580  0.64545  0.94174  Biso   1.000  H
  C740     1.0000 0.60036  0.72793  0.91767  Biso   1.000  C
  C741     1.0000 0.71217  0.73265  0.93915  Biso   1.000  C
  C742     1.0000 0.66235  0.97803  0.11705  Biso   1.000  C
  C743     1.0000 0.53790  0.95966  0.10522  Biso   1.000  C
  H756     1.0000 0.61997  0.97576  0.07563  Biso   1.000  H
  H757     1.0000 0.03965  0.39424  0.94174  Biso   1.000  H
  C744     1.0000 0.12757  0.39963  0.91767  Biso   1.000  C
  C745     1.0000 0.02048  0.28784  0.93915  Biso   1.000  C
  H758     1.0000 0.06887  0.58534  0.12343  Biso   1.000  H
  C746     1.0000 0.05147  0.65206  0.09425  Biso   1.000  C
  C747     1.0000 0.95706  0.52612  0.11104  Biso   1.000  C
  C748     1.0000 0.61998  0.71073  0.88763  Biso   1.000  C
  N106     1.0000 0.52026  0.69136  0.92056  Biso   1.000  N
  H759     1.0000 0.62144  0.78172  0.91963  Biso   1.000  H
  C749     1.0000 0.73238  0.71422  0.90923  Biso   1.000  C
  H760     1.0000 0.73046  0.71395  0.95473  Biso   1.000  H
  H761     1.0000 0.73599  0.78604  0.94134  Biso   1.000  H
  H762     1.0000 0.64336  0.95072  0.13544  Biso   1.000  H
  H763     1.0000 0.70174  0.96982  0.11003  Biso   1.000  H
  C750     1.0000 0.69377  0.05896  0.12303  Biso   1.000  C
  N107     1.0000 0.48235  0.93624  0.08246  Biso   1.000  N
  H764     1.0000 0.51647  0.93113  0.12343  Biso   1.000  H
  C751     1.0000 0.56907  0.04297  0.11104  Biso   1.000  C
  C752     1.0000 0.09076  0.38003  0.88763  Biso   1.000  C
  N108     1.0000 0.17107  0.47972  0.92056  Biso   1.000  N
  H765     1.0000 0.16028  0.37854  0.91963  Biso   1.000  H
  C753     1.0000 0.98188  0.26764  0.90923  Biso   1.000  C
  H766     1.0000 0.98345  0.26953  0.95473  Biso   1.000  H
  H767     1.0000 0.05006  0.26403  0.94134  Biso   1.000  H
  C754     1.0000 0.02197  0.68431  0.11705  Biso   1.000  C
  N109     1.0000 0.13017  0.70401  0.08908  Biso   1.000  N
  H768     1.0000 0.02429  0.64423  0.07563  Biso   1.000  H
  H769     1.0000 0.94939  0.47944  0.11893  Biso   1.000  H
  H770     1.0000 0.93004  0.51591  0.09254  Biso   1.000  H
  C755     1.0000 0.92665  0.56114  0.13314  Biso   1.000  C
  H771     1.0000 0.59458  0.65733  0.88472  Biso   1.000  H
  H772     1.0000 0.60346  0.73182  0.87234  Biso   1.000  H
  C756     1.0000 0.70177  0.74164  0.88503  Biso   1.000  C
  C757     1.0000 0.49087  0.73015  0.92556  Biso   1.000  C
  H773     1.0000 0.78585  0.73792  0.90744  Biso   1.000  H
  H774     1.0000 0.71165  0.66105  0.90744  Biso   1.000  H
  C758     1.0000 0.63448  0.07333  0.13314  Biso   1.000  C
  H775     1.0000 0.73186  0.07494  0.13812  Biso   1.000  H
  H776     1.0000 0.71628  0.08704  0.10513  Biso   1.000  H
  C759     1.0000 0.41904  0.88423  0.08795  Biso   1.000  C
  H777     1.0000 0.53007  0.05063  0.11893  Biso   1.000  H
  H778     1.0000 0.58588  0.06995  0.09254  Biso   1.000  H
  H779     1.0000 0.06275  0.40546  0.88472  Biso   1.000  H
  H780     1.0000 0.12837  0.39652  0.87234  Biso   1.000  H
  C760     1.0000 0.03985  0.29822  0.88503  Biso   1.000  C
  C761     1.0000 0.23928  0.50914  0.92556  Biso   1.000  C
  H781     1.0000 0.95205  0.21413  0.90744  Biso   1.000  H
  H782     1.0000 0.94935  0.28834  0.90744  Biso   1.000  H
  H783     1.0000 0.04926  0.69263  0.13544  Biso   1.000  H
  H784     1.0000 0.03016  0.73193  0.11003  Biso   1.000  H
  C762     1.0000 0.94106  0.63485  0.12303  Biso   1.000  C
  C763     1.0000 0.15027  0.72921  0.06415  Biso   1.000  C
  H785     1.0000 0.87368  0.52845  0.13553  Biso   1.000  H
  H786     1.0000 0.94987  0.56625  0.15233  Biso   1.000  H
  H787     1.0000 0.72654  0.79542  0.88583  Biso   1.000  H
  H788     1.0000 0.71264  0.72782  0.86593  Biso   1.000  H
  C764     1.0000 0.40995  0.69724  0.92778  Biso   1.000  C
  H789     1.0000 0.52098  0.78105  0.92794  Biso   1.000  H
  H790     1.0000 0.65479  0.12634  0.13553  Biso   1.000  H
  H791     1.0000 0.61635  0.05013  0.15233  Biso   1.000  H
  C765     1.0000 0.35703  0.85731  0.06666  Biso   1.000  C
  H792     1.0000 0.41037  0.86103  0.10632  Biso   1.000  H
  H793     1.0000 0.06883  0.27341  0.88583  Biso   1.000  H
  H794     1.0000 0.01519  0.28734  0.86593  Biso   1.000  H
  C766     1.0000 0.28729  0.59006  0.92778  Biso   1.000  C
  H795     1.0000 0.26010  0.47905  0.92794  Biso   1.000  H
  H796     1.0000 0.92509  0.65694  0.13812  Biso   1.000  H
  H797     1.0000 0.91297  0.62925  0.10513  Biso   1.000  H
  C767     1.0000 0.22606  0.78216  0.05485  Biso   1.000  C
  H798     1.0000 0.11369  0.71306  0.04964  Biso   1.000  H
  C768     1.0000 0.36286  0.62142  0.92807  Biso   1.000  C
  C769     1.0000 0.37854  0.74142  0.92807  Biso   1.000  C
  C770     1.0000 0.28446  0.80464  0.07532  Biso   1.000  C
  C771     1.0000 0.37004  0.88601  0.03843  Biso   1.000  C
  C772     1.0000 0.25858  0.63713  0.92807  Biso   1.000  C
  C773     1.0000 0.24128  0.81385  0.02732  Biso   1.000  C
  H799     1.0000 0.38319  0.59045  0.92853  Biso   1.000  H
  C774     1.0000 0.30277  0.71272  0.92778  Biso   1.000  C
  H800     1.0000 0.40960  0.79276  0.92853  Biso   1.000  H
  H801     1.0000 0.27528  0.78493  0.09434  Biso   1.000  H
  C775     1.0000 0.31308  0.86591  0.01824  Biso   1.000  C
  H802     1.0000 0.41847  0.91981  0.03273  Biso   1.000  H
  H803     1.0000 0.20727  0.61681  0.92853  Biso   1.000  H
  H804     1.0000 0.20227  0.80014  0.01414  Biso   1.000  H
  C776     1.0000 0.26986  0.76073  0.92556  Biso   1.000  C
  C777     1.0000 0.32786  0.89933  0.98883  Biso   1.000  C
  N110     1.0000 0.30868  0.82895  0.92056  Biso   1.000  N
  H805     1.0000 0.21898  0.73992  0.92794  Biso   1.000  H
  N111     1.0000 0.27796  0.89172  0.97088  Biso   1.000  N
  H806     1.0000 0.37706  0.92802  0.98294  Biso   1.000  H
  C778     1.0000 0.27205  0.87241  0.91767  Biso   1.000  C
  C779     1.0000 0.30040  0.93035  0.94265  Biso   1.000  C
  C780     1.0000 0.28925  0.90921  0.88763  Biso   1.000  C
  H807     1.0000 0.21826  0.83972  0.91963  Biso   1.000  H
  H808     1.0000 0.35456  0.96033  0.94174  Biso   1.000  H
  C781     1.0000 0.26736  0.97953  0.93915  Biso   1.000  C
  H809     1.0000 0.34268  0.93724  0.88472  Biso   1.000  H
  H810     1.0000 0.26816  0.87163  0.87234  Biso   1.000  H
  C782     1.0000 0.25839  0.96016  0.88503  Biso   1.000  C
  H811     1.0000 0.21397  0.94995  0.94134  Biso   1.000  H
  C783     1.0000 0.28576  0.01816  0.90923  Biso   1.000  C
  H812     1.0000 0.28606  0.01655  0.95473  Biso   1.000  H
  H813     1.0000 0.20456  0.93113  0.88583  Biso   1.000  H
  H814     1.0000 0.27218  0.98486  0.86593  Biso   1.000  H
  H815     1.0000 0.26206  0.04797  0.90744  Biso   1.000  H
  H816     1.0000 0.33896  0.05063  0.90744  Biso   1.000  H
  C784     1.0000 0.36551  0.43887  0.86686  Biso   1.000  C
  C785     1.0000 0.43095  0.47389  0.88896  Biso   1.000  C
  H817     1.0000 0.34523  0.47156  0.86447  Biso   1.000  H
  H818     1.0000 0.38363  0.43376  0.84767  Biso   1.000  H
  C786     1.0000 0.30621  0.36516  0.87697  Biso   1.000  C
  C787     1.0000 0.46214  0.42177  0.89478  Biso   1.000  C
  H819     1.0000 0.46996  0.52057  0.88107  Biso   1.000  H
  H820     1.0000 0.41411  0.48405  0.90746  Biso   1.000  H
  C788     1.0000 0.33765  0.31565  0.88295  Biso   1.000  C
  H821     1.0000 0.26815  0.34307  0.86188  Biso   1.000  H
  H822     1.0000 0.28373  0.37077  0.89487  Biso   1.000  H
  N112     1.0000 0.51764  0.45385  0.91754  Biso   1.000  N
  H823     1.0000 0.48353  0.41467  0.87657  Biso   1.000  H
  C789     1.0000 0.39941  0.34795  0.90575  Biso   1.000  C
  H824     1.0000 0.35663  0.30738  0.86456  Biso   1.000  H
  H825     1.0000 0.29824  0.26808  0.88997  Biso   1.000  H
  C790     1.0000 0.58094  0.46518  0.91205  Biso   1.000  C
  N113     1.0000 0.42614  0.29595  0.91092  Biso   1.000  N
  H826     1.0000 0.38006  0.35578  0.92437  Biso   1.000  H
  C791     1.0000 0.64294  0.50026  0.93334  Biso   1.000  C
  H827     1.0000 0.58965  0.45069  0.89368  Biso   1.000  H
  C792     1.0000 0.42104  0.27075  0.93585  Biso   1.000  C
  C793     1.0000 0.62993  0.51596  0.96157  Biso   1.000  C
  C794     1.0000 0.71553  0.52018  0.92468  Biso   1.000  C
  C795     1.0000 0.44391  0.21785  0.94515  Biso   1.000  C
  H828     1.0000 0.40064  0.28695  0.95036  Biso   1.000  H
  H829     1.0000 0.58153  0.50137  0.96727  Biso   1.000  H
  C796     1.0000 0.68693  0.55287  0.98176  Biso   1.000  C
  C797     1.0000 0.77396  0.55609  0.94515  Biso   1.000  C
  H830     1.0000 0.72476  0.50969  0.90566  Biso   1.000  H
  C798     1.0000 0.42744  0.18616  0.97268  Biso   1.000  C
  C799     1.0000 0.47982  0.19537  0.92468  Biso   1.000  C
  C800     1.0000 0.75875  0.57258  0.97268  Biso   1.000  C
  C801     1.0000 0.67215  0.57147  0.01117  Biso   1.000  C
  C802     1.0000 0.84971  0.57896  0.93585  Biso   1.000  C
  H831     1.0000 0.40214  0.19987  0.98586  Biso   1.000  H
  C803     1.0000 0.44714  0.13404  0.98176  Biso   1.000  C
  C804     1.0000 0.49970  0.14264  0.93334  Biso   1.000  C
  H832     1.0000 0.49035  0.21508  0.90566  Biso   1.000  H
  H833     1.0000 0.79774  0.59789  0.98586  Biso   1.000  H
  N114     1.0000 0.72204  0.61376  0.02912  Biso   1.000  N
  H834     1.0000 0.62293  0.55099  0.01706  Biso   1.000  H
  H835     1.0000 0.88636  0.59939  0.95036  Biso   1.000  H
  N115     1.0000 0.86984  0.57385  0.91092  Biso   1.000  N
  C805     1.0000 0.48401  0.11395  0.96157  Biso   1.000  C
  C806     1.0000 0.42854  0.10068  0.01117  Biso   1.000  C
  C807     1.0000 0.53482  0.11578  0.91205  Biso   1.000  C
  C808     1.0000 0.69962  0.62997  0.05735  Biso   1.000  C
  C809     1.0000 0.94852  0.60055  0.90575  Biso   1.000  C
  H836     1.0000 0.49864  0.08015  0.96727  Biso   1.000  H
  N116     1.0000 0.38624  0.10829  0.02912  Biso   1.000  N
  H837     1.0000 0.44904  0.07199  0.01706  Biso   1.000  H
  N117     1.0000 0.54611  0.06377  0.91754  Biso   1.000  N
  H838     1.0000 0.54935  0.13898  0.89368  Biso   1.000  H
  H839     1.0000 0.64541  0.60577  0.05826  Biso   1.000  H
  C810     1.0000 0.72795  0.60038  0.08233  Biso   1.000  C
  C811     1.0000 0.73265  0.71217  0.06085  Biso   1.000  C
  C812     1.0000 0.97804  0.66238  0.88295  Biso   1.000  C
  C813     1.0000 0.95963  0.53789  0.89478  Biso   1.000  C
  H840     1.0000 0.97573  0.61998  0.92437  Biso   1.000  H
  C814     1.0000 0.37005  0.06966  0.05735  Biso   1.000  C
  C815     1.0000 0.57824  0.04035  0.89478  Biso   1.000  C
  C816     1.0000 0.71073  0.61998  0.11237  Biso   1.000  C
  N118     1.0000 0.69136  0.52029  0.07944  Biso   1.000  N
  H841     1.0000 0.78175  0.62148  0.08037  Biso   1.000  H
  C817     1.0000 0.71424  0.73237  0.09077  Biso   1.000  C
  H842     1.0000 0.71393  0.73049  0.04527  Biso   1.000  H
  H843     1.0000 0.78603  0.73598  0.05866  Biso   1.000  H
  H844     1.0000 0.95073  0.64334  0.86456  Biso   1.000  H
  H845     1.0000 0.96986  0.70179  0.88997  Biso   1.000  H
  C818     1.0000 0.05890  0.69374  0.87697  Biso   1.000  C
  N119     1.0000 0.93625  0.48238  0.91754  Biso   1.000  N
  H846     1.0000 0.93113  0.51646  0.87657  Biso   1.000  H
  C819     1.0000 0.04295  0.56908  0.88896  Biso   1.000  C
  H847     1.0000 0.39424  0.03969  0.05826  Biso   1.000  H
  C820     1.0000 0.39962  0.12755  0.08233  Biso   1.000  C
  C821     1.0000 0.28783  0.02048  0.06085  Biso   1.000  C
  H848     1.0000 0.58534  0.06888  0.87657  Biso   1.000  H
  C822     1.0000 0.65205  0.05145  0.90575  Biso   1.000  C
  C823     1.0000 0.52611  0.95704  0.88896  Biso   1.000  C
  H849     1.0000 0.65731  0.59456  0.11528  Biso   1.000  H
  H850     1.0000 0.73186  0.60349  0.12766  Biso   1.000  H
  C824     1.0000 0.74164  0.70179  0.11497  Biso   1.000  C
  C825     1.0000 0.73015  0.49088  0.07444  Biso   1.000  C
  H851     1.0000 0.73792  0.78588  0.09256  Biso   1.000  H
  H852     1.0000 0.66102  0.71167  0.09256  Biso   1.000  H
  C826     1.0000 0.07334  0.63446  0.86686  Biso   1.000  C
  H853     1.0000 0.07493  0.73187  0.86188  Biso   1.000  H
  H854     1.0000 0.08704  0.71628  0.89487  Biso   1.000  H
  C827     1.0000 0.88420  0.41905  0.91205  Biso   1.000  C
  H855     1.0000 0.05065  0.53006  0.88107  Biso   1.000  H
  H856     1.0000 0.06994  0.58584  0.90746  Biso   1.000  H
  C828     1.0000 0.38002  0.09075  0.11237  Biso   1.000  C
  N120     1.0000 0.47973  0.17106  0.07944  Biso   1.000  N
  H857     1.0000 0.37852  0.16024  0.08037  Biso   1.000  H
  C829     1.0000 0.26760  0.98185  0.09077  Biso   1.000  C
  H858     1.0000 0.26951  0.98346  0.04527  Biso   1.000  H
  H859     1.0000 0.26402  0.05006  0.05866  Biso   1.000  H
  C830     1.0000 0.68432  0.02198  0.88295  Biso   1.000  C
  N121     1.0000 0.70404  0.13016  0.91092  Biso   1.000  N
  H860     1.0000 0.64422  0.02426  0.92437  Biso   1.000  H
  H861     1.0000 0.47945  0.94938  0.88107  Biso   1.000  H
  H862     1.0000 0.51594  0.93007  0.90746  Biso   1.000  H
  C831     1.0000 0.56116  0.92668  0.86686  Biso   1.000  C
  H863     1.0000 0.79540  0.72654  0.11417  Biso   1.000  H
  H864     1.0000 0.72785  0.71267  0.13407  Biso   1.000  H
  C832     1.0000 0.69724  0.40995  0.07222  Biso   1.000  C
  H865     1.0000 0.78105  0.52096  0.07206  Biso   1.000  H
  H866     1.0000 0.12632  0.65478  0.86447  Biso   1.000  H
  H867     1.0000 0.05016  0.61637  0.84767  Biso   1.000  H
  C833     1.0000 0.85734  0.35706  0.93334  Biso   1.000  C
  H868     1.0000 0.86101  0.41034  0.89368  Biso   1.000  H
  H869     1.0000 0.40545  0.06277  0.11528  Biso   1.000  H
  H870     1.0000 0.39653  0.12838  0.12766  Biso   1.000  H
  C834     1.0000 0.29824  0.03985  0.11497  Biso   1.000  C
  C835     1.0000 0.50913  0.23928  0.07444  Biso   1.000  C
  H871     1.0000 0.21410  0.95204  0.09256  Biso   1.000  H
  H872     1.0000 0.28833  0.94938  0.09256  Biso   1.000  H
  H873     1.0000 0.69264  0.04929  0.86456  Biso   1.000  H
  H874     1.0000 0.73193  0.03019  0.88997  Biso   1.000  H
  C836     1.0000 0.63482  0.94105  0.87697  Biso   1.000  C
  C837     1.0000 0.72923  0.15025  0.93585  Biso   1.000  C
  H875     1.0000 0.52845  0.87367  0.86447  Biso   1.000  H
  H876     1.0000 0.56622  0.94988  0.84767  Biso   1.000  H
  C838     1.0000 0.62145  0.36288  0.07193  Biso   1.000  C
  C839     1.0000 0.74145  0.37859  0.07193  Biso   1.000  C
  C840     1.0000 0.88604  0.37004  0.96157  Biso   1.000  C
  C841     1.0000 0.80465  0.28446  0.92468  Biso   1.000  C
  H877     1.0000 0.27343  0.06888  0.11417  Biso   1.000  H
  H878     1.0000 0.28733  0.01515  0.13407  Biso   1.000  H
  C842     1.0000 0.59005  0.28729  0.07222  Biso   1.000  C
  H879     1.0000 0.47906  0.26009  0.07206  Biso   1.000  H
  H880     1.0000 0.65692  0.92507  0.86188  Biso   1.000  H
  H881     1.0000 0.62924  0.91297  0.89487  Biso   1.000  H
  C843     1.0000 0.78214  0.22607  0.94515  Biso   1.000  C
  H882     1.0000 0.71306  0.11367  0.95036  Biso   1.000  H
  H883     1.0000 0.59044  0.38314  0.07147  Biso   1.000  H
  C844     1.0000 0.71272  0.30277  0.07222  Biso   1.000  C
  H884     1.0000 0.79275  0.40956  0.07147  Biso   1.000  H
  H885     1.0000 0.91981  0.41844  0.96727  Biso   1.000  H
  C845     1.0000 0.86590  0.31304  0.98176  Biso   1.000  C
  H886     1.0000 0.78490  0.27524  0.90566  Biso   1.000  H
  C846     1.0000 0.63713  0.25859  0.07193  Biso   1.000  C
  C847     1.0000 0.81382  0.24127  0.97268  Biso   1.000  C
  C848     1.0000 0.76072  0.26986  0.07444  Biso   1.000  C
  C849     1.0000 0.89932  0.32786  0.01117  Biso   1.000  C
  H887     1.0000 0.61684  0.20725  0.07147  Biso   1.000  H
  H888     1.0000 0.80013  0.20226  0.98586  Biso   1.000  H
  N122     1.0000 0.82891  0.30866  0.07944  Biso   1.000  N
  H889     1.0000 0.73994  0.21896  0.07206  Biso   1.000  H
  N123     1.0000 0.89172  0.27796  0.02912  Biso   1.000  N
  H890     1.0000 0.92807  0.37709  0.01706  Biso   1.000  H
  C850     1.0000 0.87244  0.27208  0.08233  Biso   1.000  C
  C851     1.0000 0.93033  0.30039  0.05735  Biso   1.000  C
  C852     1.0000 0.90926  0.28929  0.11237  Biso   1.000  C
  H891     1.0000 0.83970  0.21824  0.08037  Biso   1.000  H
  H892     1.0000 0.96035  0.35456  0.05826  Biso   1.000  H
  C853     1.0000 0.97953  0.26736  0.06085  Biso   1.000  C
  H893     1.0000 0.93725  0.34268  0.11528  Biso   1.000  H
  H894     1.0000 0.87165  0.26819  0.12766  Biso   1.000  H
  C854     1.0000 0.96013  0.25837  0.11497  Biso   1.000  C
  H895     1.0000 0.94995  0.21397  0.05866  Biso   1.000  H
  C855     1.0000 0.01816  0.28579  0.09077  Biso   1.000  C
  H896     1.0000 0.01652  0.28607  0.04527  Biso   1.000  H
  H897     1.0000 0.93112  0.20459  0.11417  Biso   1.000  H
  H898     1.0000 0.98483  0.27219  0.13407  Biso   1.000  H
  H899     1.0000 0.04794  0.26209  0.09256  Biso   1.000  H
  H900     1.0000 0.05061  0.33896  0.09256  Biso   1.000  H
