data_image0
_cell_length_a       20.792
_cell_length_b       20.792
_cell_length_c       45.156
_cell_angle_alpha    90
_cell_angle_beta     90
_cell_angle_gamma    120

_symmetry_space_group_name_H-M    "P 1"
_symmetry_int_tables_number       1

loop_
  _symmetry_equiv_pos_as_xyz
  'x, y, z'

loop_
  _atom_site_label
  _atom_site_occupancy
  _atom_site_fract_x
  _atom_site_fract_y
  _atom_site_fract_z
  _atom_site_thermal_displace_type
  _atom_site_B_iso_or_equiv
  _atom_site_type_symbol
  N1       1.0000 0.49612  0.64211  0.41363  Biso   1.000  N
  C1       1.0000 0.53971  0.60567  0.41607  Biso   1.000  C
  C2       1.0000 0.42848  0.60379  0.40843  Biso   1.000  C
  C3       1.0000 0.59721  0.63372  0.39133  Biso   1.000  C
  C4       1.0000 0.57610  0.62228  0.44628  Biso   1.000  C
  H1       1.0000 0.50701  0.55191  0.41401  Biso   1.000  H
  C5       1.0000 0.37931  0.63550  0.40586  Biso   1.000  C
  H2       1.0000 0.40809  0.55280  0.40599  Biso   1.000  H
  N2       1.0000 0.55902  0.61150  0.36274  Biso   1.000  N
  H3       1.0000 0.62691  0.68792  0.39231  Biso   1.000  H
  C6       1.0000 0.64789  0.60090  0.39470  Biso   1.000  C
  H4       1.0000 0.60430  0.67570  0.44920  Biso   1.000  H
  H5       1.0000 0.53791  0.60151  0.46140  Biso   1.000  H
  C7       1.0000 0.62691  0.59068  0.44962  Biso   1.000  C
  C8       1.0000 0.40817  0.71169  0.40584  Biso   1.000  C
  C9       1.0000 0.30349  0.59179  0.40584  Biso   1.000  C
  C10      1.0000 0.56728  0.66121  0.34492  Biso   1.000  C
  C11      1.0000 0.68411  0.61822  0.42471  Biso   1.000  C
  H6       1.0000 0.61933  0.54753  0.39200  Biso   1.000  H
  H7       1.0000 0.68599  0.62111  0.37951  Biso   1.000  H
  H8       1.0000 0.59800  0.53681  0.44920  Biso   1.000  H
  H9       1.0000 0.65222  0.60562  0.46860  Biso   1.000  H
  C12      1.0000 0.36449  0.74379  0.40586  Biso   1.000  C
  H10      1.0000 0.45950  0.74240  0.40579  Biso   1.000  H
  C13      1.0000 0.25621  0.62072  0.40586  Biso   1.000  C
  H11      1.0000 0.28289  0.54047  0.40579  Biso   1.000  H
  C14      1.0000 0.53332  0.64599  0.31540  Biso   1.000  C
  H12      1.0000 0.59670  0.71053  0.35070  Biso   1.000  H
  H13      1.0000 0.71637  0.67148  0.42650  Biso   1.000  H
  H14      1.0000 0.71450  0.59512  0.42650  Biso   1.000  H
  C15      1.0000 0.28831  0.69647  0.40584  Biso   1.000  C
  C16      1.0000 0.39619  0.82471  0.40843  Biso   1.000  C
  C17      1.0000 0.17533  0.57152  0.40843  Biso   1.000  C
  C18      1.0000 0.48241  0.57457  0.30663  Biso   1.000  C
  C19      1.0000 0.55407  0.70308  0.29509  Biso   1.000  C
  H15      1.0000 0.25759  0.71708  0.40579  Biso   1.000  H
  N3       1.0000 0.35787  0.85397  0.41363  Biso   1.000  N
  H16      1.0000 0.44718  0.85531  0.40599  Biso   1.000  H
  N4       1.0000 0.14598  0.50388  0.41363  Biso   1.000  N
  H17      1.0000 0.14469  0.59190  0.40599  Biso   1.000  H
  C20      1.0000 0.45087  0.55969  0.27804  Biso   1.000  C
  H18      1.0000 0.46850  0.53559  0.31989  Biso   1.000  H
  C21      1.0000 0.52532  0.69031  0.26687  Biso   1.000  C
  H19      1.0000 0.58828  0.75140  0.30069  Biso   1.000  H
  C22      1.0000 0.39428  0.93400  0.41607  Biso   1.000  C
  C23      1.0000 0.06599  0.46028  0.41607  Biso   1.000  C
  C24      1.0000 0.39850  0.48361  0.26960  Biso   1.000  C
  C25      1.0000 0.47321  0.61822  0.25839  Biso   1.000  C
  C26      1.0000 0.55209  0.75290  0.24566  Biso   1.000  C
  C27      1.0000 0.36632  0.96349  0.39133  Biso   1.000  C
  C28      1.0000 0.37769  0.95383  0.44628  Biso   1.000  C
  H20      1.0000 0.44812  0.95510  0.41401  Biso   1.000  H
  C29      1.0000 0.03648  0.40280  0.39133  Biso   1.000  C
  C30      1.0000 0.04622  0.42390  0.44628  Biso   1.000  C
  H21      1.0000 0.04488  0.49299  0.41401  Biso   1.000  H
  N5       1.0000 0.37107  0.46328  0.24453  Biso   1.000  N
  H22      1.0000 0.38427  0.44717  0.28410  Biso   1.000  H
  H23      1.0000 0.45331  0.60939  0.23939  Biso   1.000  H
  N6       1.0000 0.60400  0.81699  0.25122  Biso   1.000  N
  H24      1.0000 0.52907  0.74418  0.22730  Biso   1.000  H
  N7       1.0000 0.38848  0.94750  0.36274  Biso   1.000  N
  H25      1.0000 0.31208  0.93900  0.39231  Biso   1.000  H
  C31      1.0000 0.39906  0.04696  0.39470  Biso   1.000  C
  H26      1.0000 0.32430  0.92861  0.44920  Biso   1.000  H
  H27      1.0000 0.39850  0.93639  0.46140  Biso   1.000  H
  C32      1.0000 0.40930  0.03619  0.44962  Biso   1.000  C
  N8       1.0000 0.05251  0.44101  0.36274  Biso   1.000  N
  H28      1.0000 0.06102  0.37309  0.39231  Biso   1.000  H
  C33      1.0000 0.95298  0.35210  0.39470  Biso   1.000  C
  H29      1.0000 0.07140  0.39569  0.44920  Biso   1.000  H
  H30      1.0000 0.06359  0.46211  0.46140  Biso   1.000  H
  C34      1.0000 0.96381  0.37309  0.44962  Biso   1.000  C
  C35      1.0000 0.31990  0.38470  0.23926  Biso   1.000  C
  C36      1.0000 0.62753  0.87241  0.22841  Biso   1.000  C
  C37      1.0000 0.33883  0.90612  0.34492  Biso   1.000  C
  C38      1.0000 0.38179  0.06590  0.42471  Biso   1.000  C
  H31      1.0000 0.45250  0.07179  0.39200  Biso   1.000  H
  H32      1.0000 0.37888  0.06490  0.37951  Biso   1.000  H
  H33      1.0000 0.46321  0.06118  0.44920  Biso   1.000  H
  H34      1.0000 0.39439  0.04657  0.46860  Biso   1.000  H
  C39      1.0000 0.09389  0.43268  0.34492  Biso   1.000  C
  C40      1.0000 0.93411  0.31589  0.42471  Biso   1.000  C
  H35      1.0000 0.92818  0.38070  0.39200  Biso   1.000  H
  H36      1.0000 0.93509  0.31400  0.37951  Biso   1.000  H
  H37      1.0000 0.93880  0.40202  0.44920  Biso   1.000  H
  H38      1.0000 0.95339  0.34782  0.46860  Biso   1.000  H
  C41      1.0000 0.35390  0.35632  0.21625  Biso   1.000  C
  C42      1.0000 0.24487  0.37248  0.22841  Biso   1.000  C
  H39      1.0000 0.31239  0.35737  0.25780  Biso   1.000  H
  H40      1.0000 0.59911  0.85059  0.21020  Biso   1.000  H
  C43      1.0000 0.71150  0.90462  0.22256  Biso   1.000  C
  C44      1.0000 0.61531  0.93522  0.23926  Biso   1.000  C
  C45      1.0000 0.35400  0.88730  0.31540  Biso   1.000  C
  H41      1.0000 0.28948  0.88618  0.35070  Biso   1.000  H
  H42      1.0000 0.32846  0.04485  0.42650  Biso   1.000  H
  H43      1.0000 0.40487  0.11938  0.42650  Biso   1.000  H
  C46      1.0000 0.11269  0.46672  0.31540  Biso   1.000  C
  H44      1.0000 0.11378  0.40330  0.35070  Biso   1.000  H
  H45      1.0000 0.95510  0.28362  0.42650  Biso   1.000  H
  H46      1.0000 0.88059  0.28551  0.42650  Biso   1.000  H
  C47      1.0000 0.30229  0.27329  0.21049  Biso   1.000  C
  H47      1.0000 0.36219  0.38359  0.19789  Biso   1.000  H
  H48      1.0000 0.40151  0.36448  0.22329  Biso   1.000  H
  C48      1.0000 0.19312  0.28851  0.22256  Biso   1.000  C
  N9       1.0000 0.21302  0.39603  0.25122  Biso   1.000  N
  H49      1.0000 0.25149  0.40091  0.21020  Biso   1.000  H
  H50      1.0000 0.73840  0.92139  0.24110  Biso   1.000  H
  H51      1.0000 0.71961  0.86591  0.21459  Biso   1.000  H
  C49      1.0000 0.74129  0.96988  0.20057  Biso   1.000  C
  C50      1.0000 0.64371  0.99759  0.21625  Biso   1.000  C
  N10      1.0000 0.53671  0.90779  0.24453  Biso   1.000  N
  H52      1.0000 0.64261  0.95499  0.25780  Biso   1.000  H
  C51      1.0000 0.42537  0.90779  0.30663  Biso   1.000  C
  C52      1.0000 0.29688  0.85098  0.29509  Biso   1.000  C
  C53      1.0000 0.14898  0.44590  0.29509  Biso   1.000  C
  C54      1.0000 0.09219  0.51759  0.30663  Biso   1.000  C
  C55      1.0000 0.22861  0.25869  0.20057  Biso   1.000  C
  H53      1.0000 0.32389  0.25658  0.19550  Biso   1.000  H
  H54      1.0000 0.29690  0.24569  0.22850  Biso   1.000  H
  H55      1.0000 0.18297  0.26157  0.24110  Biso   1.000  H
  H56      1.0000 0.14631  0.28040  0.21459  Biso   1.000  H
  C56      1.0000 0.20081  0.44790  0.24566  Biso   1.000  C
  H57      1.0000 0.79439  0.99048  0.19820  Biso   1.000  H
  H58      1.0000 0.71811  0.95161  0.18139  Biso   1.000  H
  C57      1.0000 0.72668  0.02897  0.21049  Biso   1.000  C
  H59      1.0000 0.61641  0.97860  0.19789  Biso   1.000  H
  H60      1.0000 0.63550  0.03696  0.22329  Biso   1.000  H
  C58      1.0000 0.51641  0.91490  0.26960  Biso   1.000  C
  C59      1.0000 0.44030  0.89118  0.27804  Biso   1.000  C
  H61      1.0000 0.46438  0.93289  0.31989  Biso   1.000  H
  C60      1.0000 0.30971  0.83498  0.26687  Biso   1.000  C
  H62      1.0000 0.24859  0.83692  0.30069  Biso   1.000  H
  C61      1.0000 0.16502  0.47472  0.26687  Biso   1.000  C
  H63      1.0000 0.16309  0.41169  0.30069  Biso   1.000  H
  C62      1.0000 0.10880  0.54908  0.27804  Biso   1.000  C
  H64      1.0000 0.06710  0.53148  0.31989  Biso   1.000  H
  H65      1.0000 0.19610  0.20559  0.19820  Biso   1.000  H
  H66      1.0000 0.23349  0.28190  0.18139  Biso   1.000  H
  H67      1.0000 0.21510  0.47089  0.22730  Biso   1.000  H
  H68      1.0000 0.74339  0.06729  0.19550  Biso   1.000  H
  H69      1.0000 0.75428  0.05118  0.22850  Biso   1.000  H
  H70      1.0000 0.55282  0.93711  0.28410  Biso   1.000  H
  C63      1.0000 0.38180  0.85497  0.25839  Biso   1.000  C
  C64      1.0000 0.24710  0.79922  0.24566  Biso   1.000  C
  C65      1.0000 0.14500  0.52681  0.25839  Biso   1.000  C
  C66      1.0000 0.08509  0.60151  0.26960  Biso   1.000  C
  H71      1.0000 0.39060  0.84392  0.23939  Biso   1.000  H
  N11      1.0000 0.18299  0.78700  0.25122  Biso   1.000  N
  H72      1.0000 0.25580  0.78489  0.22730  Biso   1.000  H
  H73      1.0000 0.15609  0.54669  0.23939  Biso   1.000  H
  H74      1.0000 0.06291  0.61573  0.28410  Biso   1.000  H
  N12      1.0000 0.09219  0.62889  0.24453  Biso   1.000  N
  C67      1.0000 0.12761  0.75512  0.22841  Biso   1.000  C
  C68      1.0000 0.06480  0.68009  0.23926  Biso   1.000  C
  H75      1.0000 0.14941  0.74851  0.21020  Biso   1.000  H
  C69      1.0000 0.09539  0.80688  0.22256  Biso   1.000  C
  C70      1.0000 0.00240  0.64610  0.21625  Biso   1.000  C
  H76      1.0000 0.04498  0.68759  0.25780  Biso   1.000  H
  C71      1.0000 0.03008  0.77139  0.20057  Biso   1.000  C
  H77      1.0000 0.07861  0.81699  0.24110  Biso   1.000  H
  H78      1.0000 0.13409  0.85370  0.21459  Biso   1.000  H
  H79      1.0000 0.02137  0.63777  0.19789  Biso   1.000  H
  H80      1.0000 0.96302  0.59851  0.22329  Biso   1.000  H
  C72      1.0000 0.97101  0.69770  0.21049  Biso   1.000  C
  H81      1.0000 0.00948  0.80388  0.19820  Biso   1.000  H
  H82      1.0000 0.04841  0.76651  0.18139  Biso   1.000  H
  H83      1.0000 0.93270  0.67609  0.19550  Biso   1.000  H
  H84      1.0000 0.94879  0.70308  0.22850  Biso   1.000  H
  C73      1.0000 0.62182  0.85975  0.44410  Biso   1.000  C
  C74      1.0000 0.70583  0.91156  0.43826  Biso   1.000  C
  H85      1.0000 0.59493  0.84964  0.42557  Biso   1.000  H
  H86      1.0000 0.61374  0.81299  0.45208  Biso   1.000  H
  C75      1.0000 0.59203  0.89529  0.46610  Biso   1.000  C
  N13      1.0000 0.72933  0.87969  0.41545  Biso   1.000  N
  H87      1.0000 0.73424  0.91817  0.45646  Biso   1.000  H
  C76      1.0000 0.71805  0.98659  0.42741  Biso   1.000  C
  H88      1.0000 0.53892  0.86275  0.46846  Biso   1.000  H
  H89      1.0000 0.61525  0.90018  0.48527  Biso   1.000  H
  C77      1.0000 0.60666  0.96899  0.45617  Biso   1.000  C
  C78      1.0000 0.78122  0.86747  0.42101  Biso   1.000  C
  H90      1.0000 0.69070  0.97904  0.40887  Biso   1.000  H
  C79      1.0000 0.68961  0.02053  0.45042  Biso   1.000  C
  N14      1.0000 0.79662  0.03774  0.42214  Biso   1.000  N
  H91      1.0000 0.58995  0.99059  0.47117  Biso   1.000  H
  H92      1.0000 0.57902  0.96355  0.43817  Biso   1.000  H
  C80      1.0000 0.80804  0.83165  0.39979  Biso   1.000  C
  H93      1.0000 0.80423  0.88174  0.43937  Biso   1.000  H
  H94      1.0000 0.71691  0.02886  0.46877  Biso   1.000  H
  H95      1.0000 0.69783  0.06812  0.44337  Biso   1.000  H
  C81      1.0000 0.81690  0.06512  0.39707  Biso   1.000  C
  C82      1.0000 0.77922  0.81565  0.37158  Biso   1.000  C
  C83      1.0000 0.86014  0.81166  0.40827  Biso   1.000  C
  C84      1.0000 0.89304  0.11755  0.38863  Biso   1.000  C
  H96      1.0000 0.78053  0.05096  0.38256  Biso   1.000  H
  C85      1.0000 0.80004  0.77939  0.35127  Biso   1.000  C
  H97      1.0000 0.74501  0.82976  0.36598  Biso   1.000  H
  C86      1.0000 0.88243  0.77545  0.38863  Biso   1.000  C
  H98      1.0000 0.88002  0.82276  0.42727  Biso   1.000  H
  C87      1.0000 0.90792  0.14904  0.36004  Biso   1.000  C
  C88      1.0000 0.95150  0.13982  0.40827  Biso   1.000  C
  C89      1.0000 0.76605  0.76056  0.32175  Biso   1.000  C
  C90      1.0000 0.85090  0.75884  0.36004  Biso   1.000  C
  C91      1.0000 0.93486  0.75179  0.39707  Biso   1.000  C
  C92      1.0000 0.97931  0.19996  0.35127  Biso   1.000  C
  H99      1.0000 0.86894  0.13515  0.34678  Biso   1.000  H
  H100     1.0000 0.94271  0.11994  0.42727  Biso   1.000  H
  C93      1.0000 0.02365  0.19197  0.39979  Biso   1.000  C
  N15      1.0000 0.77432  0.71919  0.30392  Biso   1.000  N
  H101     1.0000 0.73661  0.78044  0.31597  Biso   1.000  H
  H102     1.0000 0.86480  0.73374  0.34678  Biso   1.000  H
  H103     1.0000 0.94905  0.72957  0.38256  Biso   1.000  H
  N16      1.0000 0.96224  0.75884  0.42214  Biso   1.000  N
  C94      1.0000 0.99452  0.23395  0.32175  Biso   1.000  C
  C95      1.0000 0.03640  0.22073  0.37158  Biso   1.000  C
  C96      1.0000 0.08623  0.21873  0.42101  Biso   1.000  C
  C97      1.0000 0.73617  0.70319  0.27533  Biso   1.000  C
  C98      1.0000 0.01343  0.73146  0.42741  Biso   1.000  C
  N17      1.0000 0.94481  0.22562  0.30392  Biso   1.000  N
  H104     1.0000 0.04379  0.26333  0.31597  Biso   1.000  H
  H105     1.0000 0.08471  0.25494  0.36598  Biso   1.000  H
  N18      1.0000 0.15034  0.27066  0.41545  Biso   1.000  N
  H106     1.0000 0.07753  0.19574  0.43937  Biso   1.000  H
  C99      1.0000 0.68541  0.61967  0.27197  Biso   1.000  C
  C100     1.0000 0.79362  0.73268  0.25060  Biso   1.000  C
  H107     1.0000 0.70643  0.72769  0.27436  Biso   1.000  H
  C101     1.0000 0.97943  0.66904  0.45042  Biso   1.000  C
  C102     1.0000 0.08846  0.79427  0.43826  Biso   1.000  C
  H108     1.0000 0.02096  0.71169  0.40887  Biso   1.000  H
  C103     1.0000 0.96700  0.26383  0.27533  Biso   1.000  C
  C104     1.0000 0.20570  0.29415  0.43826  Biso   1.000  C
  C105     1.0000 0.64923  0.60079  0.24196  Biso   1.000  C
  H109     1.0000 0.71402  0.59484  0.27467  Biso   1.000  H
  H110     1.0000 0.64732  0.60179  0.28716  Biso   1.000  H
  C106     1.0000 0.75721  0.71286  0.22039  Biso   1.000  C
  N19      1.0000 0.83721  0.81266  0.25303  Biso   1.000  N
  H111     1.0000 0.82636  0.71158  0.25266  Biso   1.000  H
  H112     1.0000 0.97116  0.68809  0.46877  Biso   1.000  H
  H113     1.0000 0.93185  0.62967  0.44337  Biso   1.000  H
  C107     1.0000 0.03103  0.63766  0.45617  Biso   1.000  C
  N20      1.0000 0.12033  0.84964  0.41545  Biso   1.000  N
  H114     1.0000 0.08184  0.81604  0.45646  Biso   1.000  H
  C108     1.0000 0.14022  0.76206  0.44410  Biso   1.000  C
  C109     1.0000 0.93902  0.20635  0.25060  Biso   1.000  C
  C110     1.0000 0.93420  0.31453  0.27197  Biso   1.000  C
  H115     1.0000 0.02124  0.29354  0.27436  Biso   1.000  H
  C111     1.0000 0.26852  0.28193  0.42741  Biso   1.000  C
  H116     1.0000 0.18392  0.26577  0.45646  Biso   1.000  H
  C112     1.0000 0.23793  0.37812  0.44410  Biso   1.000  C
  C113     1.0000 0.70643  0.63044  0.21705  Biso   1.000  C
  H117     1.0000 0.61692  0.62178  0.24017  Biso   1.000  H
  H118     1.0000 0.61881  0.54725  0.24017  Biso   1.000  H
  H119     1.0000 0.72903  0.73807  0.21747  Biso   1.000  H
  H120     1.0000 0.79543  0.73024  0.20527  Biso   1.000  H
  C114     1.0000 0.90483  0.84198  0.25824  Biso   1.000  C
  C115     1.0000 0.10472  0.69675  0.46610  Biso   1.000  C
  H121     1.0000 0.00942  0.59934  0.47117  Biso   1.000  H
  H122     1.0000 0.03642  0.61545  0.43817  Biso   1.000  H
  C116     1.0000 0.13254  0.91379  0.42101  Biso   1.000  C
  H123     1.0000 0.15035  0.74529  0.42557  Biso   1.000  H
  H124     1.0000 0.18703  0.80077  0.45208  Biso   1.000  H
  N21      1.0000 0.97542  0.16275  0.25303  Biso   1.000  N
  C117     1.0000 0.95563  0.24272  0.22039  Biso   1.000  C
  H125     1.0000 0.88520  0.17364  0.25266  Biso   1.000  H
  C118     1.0000 0.95153  0.35074  0.24196  Biso   1.000  C
  H126     1.0000 0.88080  0.28593  0.27467  Biso   1.000  H
  H127     1.0000 0.95440  0.35263  0.28716  Biso   1.000  H
  N22      1.0000 0.24110  0.20335  0.42214  Biso   1.000  N
  C119     1.0000 0.33092  0.31037  0.45042  Biso   1.000  C
  H128     1.0000 0.28833  0.30926  0.40887  Biso   1.000  H
  H129     1.0000 0.25471  0.40506  0.42557  Biso   1.000  H
  H130     1.0000 0.19922  0.38623  0.45208  Biso   1.000  H
  C120     1.0000 0.30324  0.40794  0.46610  Biso   1.000  C
  H131     1.0000 0.73534  0.60545  0.21747  Biso   1.000  H
  H132     1.0000 0.68113  0.62006  0.19807  Biso   1.000  H
  C121     1.0000 0.95404  0.92289  0.26081  Biso   1.000  C
  H133     1.0000 0.92522  0.81138  0.26067  Biso   1.000  H
  H134     1.0000 0.13723  0.67615  0.46846  Biso   1.000  H
  H135     1.0000 0.09984  0.71508  0.48527  Biso   1.000  H
  C122     1.0000 0.16835  0.97638  0.39979  Biso   1.000  C
  H136     1.0000 0.11821  0.92245  0.43937  Biso   1.000  H
  C123     1.0000 0.93716  0.09517  0.25824  Biso   1.000  C
  H137     1.0000 0.93482  0.20457  0.20527  Biso   1.000  H
  C124     1.0000 0.92404  0.29354  0.21705  Biso   1.000  C
  H138     1.0000 0.00903  0.27094  0.21747  Biso   1.000  H
  H139     1.0000 0.92839  0.38112  0.24017  Biso   1.000  H
  H140     1.0000 0.00483  0.38306  0.24017  Biso   1.000  H
  C125     1.0000 0.24821  0.18302  0.39707  Biso   1.000  C
  H141     1.0000 0.31192  0.28304  0.46877  Biso   1.000  H
  H142     1.0000 0.37034  0.30215  0.44337  Biso   1.000  H
  C126     1.0000 0.36231  0.39334  0.45617  Biso   1.000  C
  H143     1.0000 0.32382  0.46104  0.46846  Biso   1.000  H
  H144     1.0000 0.28490  0.38473  0.48527  Biso   1.000  H
  C127     1.0000 0.92515  0.97016  0.26083  Biso   1.000  C
  C128     1.0000 0.02982  0.95499  0.26083  Biso   1.000  C
  C129     1.0000 0.18430  0.96355  0.37158  Biso   1.000  C
  C130     1.0000 0.18833  0.04846  0.40827  Biso   1.000  C
  C131     1.0000 0.96883  0.04596  0.26081  Biso   1.000  C
  H145     1.0000 0.88610  0.07473  0.26067  Biso   1.000  H
  H146     1.0000 0.87011  0.26466  0.21747  Biso   1.000  H
  H147     1.0000 0.93891  0.31886  0.19807  Biso   1.000  H
  C132     1.0000 0.22450  0.10694  0.38863  Biso   1.000  C
  H148     1.0000 0.27041  0.21946  0.38256  Biso   1.000  H
  H149     1.0000 0.40063  0.41005  0.47117  Biso   1.000  H
  H150     1.0000 0.38453  0.42094  0.43817  Biso   1.000  H
  H151     1.0000 0.87382  0.94955  0.26087  Biso   1.000  H
  H152     1.0000 0.05044  0.92428  0.26087  Biso   1.000  H
  C133     1.0000 0.07713  0.03113  0.26081  Biso   1.000  C
  C134     1.0000 0.22064  0.02064  0.35127  Biso   1.000  C
  H153     1.0000 0.17022  0.91529  0.36598  Biso   1.000  H
  H154     1.0000 0.17723  0.05724  0.42727  Biso   1.000  H
  C135     1.0000 0.04502  0.07484  0.26083  Biso   1.000  C
  C136     1.0000 0.24115  0.09206  0.36004  Biso   1.000  C
  C137     1.0000 0.15801  0.06284  0.25824  Biso   1.000  C
  C138     1.0000 0.23939  0.00542  0.32175  Biso   1.000  C
  H155     1.0000 0.07573  0.12616  0.26087  Biso   1.000  H
  H156     1.0000 0.26622  0.13104  0.34678  Biso   1.000  H
  N23      1.0000 0.18733  0.02452  0.25303  Biso   1.000  N
  H157     1.0000 0.18860  0.11383  0.26067  Biso   1.000  H
  N24      1.0000 0.28083  0.05512  0.30392  Biso   1.000  N
  H158     1.0000 0.21952  0.95616  0.31597  Biso   1.000  H
  C139     1.0000 0.26735  0.06096  0.25060  Biso   1.000  C
  C140     1.0000 0.29683  0.03297  0.27533  Biso   1.000  C
  C141     1.0000 0.28713  0.04435  0.22039  Biso   1.000  C
  H159     1.0000 0.28844  0.11477  0.25266  Biso   1.000  H
  H160     1.0000 0.27233  0.97876  0.27436  Biso   1.000  H
  C142     1.0000 0.38031  0.06573  0.27197  Biso   1.000  C
  H161     1.0000 0.26194  0.99098  0.21747  Biso   1.000  H
  H162     1.0000 0.26972  0.06512  0.20527  Biso   1.000  H
  C143     1.0000 0.36955  0.07595  0.21705  Biso   1.000  C
  C144     1.0000 0.39923  0.04846  0.24196  Biso   1.000  C
  H163     1.0000 0.40514  0.11916  0.27467  Biso   1.000  H
  H164     1.0000 0.39819  0.04552  0.28716  Biso   1.000  H
  H165     1.0000 0.39451  0.12982  0.21747  Biso   1.000  H
  H166     1.0000 0.37995  0.06107  0.19807  Biso   1.000  H
  H167     1.0000 0.37820  0.99515  0.24017  Biso   1.000  H
  H168     1.0000 0.45272  0.07156  0.24017  Biso   1.000  H
  C145     1.0000 0.59071  0.62689  0.55038  Biso   1.000  C
  C146     1.0000 0.62230  0.57607  0.55372  Biso   1.000  C
  C147     1.0000 0.61821  0.68409  0.57529  Biso   1.000  C
  H169     1.0000 0.53679  0.59801  0.55080  Biso   1.000  H
  H170     1.0000 0.60559  0.65221  0.53140  Biso   1.000  H
  C148     1.0000 0.60570  0.53970  0.58393  Biso   1.000  C
  H171     1.0000 0.67570  0.60429  0.55080  Biso   1.000  H
  H172     1.0000 0.60149  0.53792  0.53860  Biso   1.000  H
  C149     1.0000 0.60087  0.64788  0.60530  Biso   1.000  C
  H173     1.0000 0.67150  0.71641  0.57350  Biso   1.000  H
  H174     1.0000 0.59509  0.71452  0.57350  Biso   1.000  H
  N25      1.0000 0.64210  0.49610  0.58637  Biso   1.000  N
  C150     1.0000 0.63367  0.59718  0.60867  Biso   1.000  C
  H175     1.0000 0.55188  0.50699  0.58599  Biso   1.000  H
  H176     1.0000 0.54747  0.61928  0.60800  Biso   1.000  H
  H177     1.0000 0.62108  0.68598  0.62049  Biso   1.000  H
  C151     1.0000 0.60383  0.42851  0.59157  Biso   1.000  C
  N26      1.0000 0.61151  0.55902  0.63726  Biso   1.000  N
  H178     1.0000 0.68792  0.62689  0.60769  Biso   1.000  H
  C152     1.0000 0.63550  0.37931  0.59414  Biso   1.000  C
  H179     1.0000 0.55278  0.40808  0.59401  Biso   1.000  H
  C153     1.0000 0.66120  0.56730  0.65508  Biso   1.000  C
  C154     1.0000 0.59182  0.30350  0.59416  Biso   1.000  C
  C155     1.0000 0.71169  0.40819  0.59416  Biso   1.000  C
  H180     1.0000 0.71047  0.59668  0.64930  Biso   1.000  H
  C156     1.0000 0.64598  0.53331  0.68460  Biso   1.000  C
  C157     1.0000 0.62069  0.25619  0.59414  Biso   1.000  C
  H181     1.0000 0.54050  0.28290  0.59421  Biso   1.000  H
  C158     1.0000 0.74380  0.36448  0.59414  Biso   1.000  C
  H182     1.0000 0.74240  0.45950  0.59421  Biso   1.000  H
  C159     1.0000 0.57459  0.48238  0.69337  Biso   1.000  C
  C160     1.0000 0.70307  0.55408  0.70491  Biso   1.000  C
  C161     1.0000 0.57150  0.17533  0.59157  Biso   1.000  C
  C162     1.0000 0.69647  0.28829  0.59416  Biso   1.000  C
  C163     1.0000 0.82468  0.39619  0.59157  Biso   1.000  C
  C164     1.0000 0.55971  0.45090  0.72196  Biso   1.000  C
  H183     1.0000 0.53562  0.46850  0.68011  Biso   1.000  H
  C165     1.0000 0.69032  0.52531  0.73313  Biso   1.000  C
  H184     1.0000 0.75139  0.58829  0.69931  Biso   1.000  H
  N27      1.0000 0.50389  0.14600  0.58637  Biso   1.000  N
  H185     1.0000 0.59189  0.14473  0.59401  Biso   1.000  H
  H186     1.0000 0.71709  0.25758  0.59421  Biso   1.000  H
  N28      1.0000 0.85400  0.35787  0.58637  Biso   1.000  N
  H187     1.0000 0.85527  0.44717  0.59401  Biso   1.000  H
  C166     1.0000 0.48360  0.39852  0.73040  Biso   1.000  C
  C167     1.0000 0.61820  0.47322  0.74161  Biso   1.000  C
  C168     1.0000 0.75291  0.55208  0.75434  Biso   1.000  C
  C169     1.0000 0.46027  0.06598  0.58393  Biso   1.000  C
  C170     1.0000 0.93402  0.39430  0.58393  Biso   1.000  C
  N29      1.0000 0.46330  0.37109  0.75547  Biso   1.000  N
  H188     1.0000 0.44720  0.38431  0.71590  Biso   1.000  H
  H189     1.0000 0.60938  0.45328  0.76061  Biso   1.000  H
  N30      1.0000 0.81701  0.60401  0.74878  Biso   1.000  N
  H190     1.0000 0.74420  0.52909  0.77270  Biso   1.000  H
  C171     1.0000 0.42388  0.04621  0.55372  Biso   1.000  C
  C172     1.0000 0.40281  0.03649  0.60867  Biso   1.000  C
  H191     1.0000 0.49300  0.04487  0.58599  Biso   1.000  H
  C173     1.0000 0.96351  0.36631  0.60867  Biso   1.000  C
  C174     1.0000 0.95381  0.37770  0.55372  Biso   1.000  C
  H192     1.0000 0.95511  0.44812  0.58599  Biso   1.000  H
  C175     1.0000 0.38469  0.31989  0.76074  Biso   1.000  C
  C176     1.0000 0.87238  0.62750  0.77159  Biso   1.000  C
  H193     1.0000 0.39570  0.07142  0.55080  Biso   1.000  H
  H194     1.0000 0.46210  0.06359  0.53860  Biso   1.000  H
  C177     1.0000 0.37313  0.96385  0.55038  Biso   1.000  C
  N31      1.0000 0.44097  0.05248  0.63726  Biso   1.000  N
  H195     1.0000 0.37307  0.06098  0.60769  Biso   1.000  H
  C178     1.0000 0.35209  0.95302  0.60530  Biso   1.000  C
  N32      1.0000 0.94751  0.38847  0.63726  Biso   1.000  N
  H196     1.0000 0.93900  0.31211  0.60769  Biso   1.000  H
  C179     1.0000 0.04698  0.39908  0.60530  Biso   1.000  C
  H197     1.0000 0.92859  0.32427  0.55080  Biso   1.000  H
  H198     1.0000 0.93642  0.39852  0.53860  Biso   1.000  H
  C180     1.0000 0.03622  0.40930  0.55038  Biso   1.000  C
  C181     1.0000 0.37250  0.24491  0.77159  Biso   1.000  C
  C182     1.0000 0.35628  0.35387  0.78375  Biso   1.000  C
  H199     1.0000 0.35738  0.31239  0.74220  Biso   1.000  H
  C183     1.0000 0.93519  0.61528  0.76074  Biso   1.000  C
  H200     1.0000 0.85059  0.59912  0.78980  Biso   1.000  H
  C184     1.0000 0.90463  0.71152  0.77744  Biso   1.000  C
  H201     1.0000 0.40202  0.93880  0.55080  Biso   1.000  H
  H202     1.0000 0.34781  0.95341  0.53140  Biso   1.000  H
  C185     1.0000 0.31590  0.93413  0.57529  Biso   1.000  C
  C186     1.0000 0.43273  0.09391  0.65508  Biso   1.000  C
  H203     1.0000 0.38073  0.92825  0.60800  Biso   1.000  H
  H204     1.0000 0.31400  0.93513  0.62049  Biso   1.000  H
  C187     1.0000 0.90609  0.33882  0.65508  Biso   1.000  C
  C188     1.0000 0.06590  0.38181  0.57529  Biso   1.000  C
  H205     1.0000 0.07182  0.45251  0.60800  Biso   1.000  H
  H206     1.0000 0.06489  0.37892  0.62049  Biso   1.000  H
  H207     1.0000 0.06121  0.46322  0.55080  Biso   1.000  H
  H208     1.0000 0.04662  0.39442  0.53140  Biso   1.000  H
  N33      1.0000 0.39598  0.21298  0.74878  Biso   1.000  N
  H209     1.0000 0.40091  0.25152  0.78980  Biso   1.000  H
  C189     1.0000 0.28850  0.19310  0.77744  Biso   1.000  C
  C190     1.0000 0.27330  0.30228  0.78951  Biso   1.000  C
  H210     1.0000 0.38358  0.36220  0.80211  Biso   1.000  H
  H211     1.0000 0.36453  0.40152  0.77671  Biso   1.000  H
  N34      1.0000 0.90778  0.53670  0.75547  Biso   1.000  N
  C191     1.0000 0.99760  0.64372  0.78375  Biso   1.000  C
  H212     1.0000 0.95501  0.64260  0.74220  Biso   1.000  H
  H213     1.0000 0.92139  0.73840  0.75890  Biso   1.000  H
  H214     1.0000 0.86590  0.71958  0.78541  Biso   1.000  H
  C192     1.0000 0.96991  0.74129  0.79943  Biso   1.000  C
  H215     1.0000 0.28359  0.95513  0.57350  Biso   1.000  H
  H216     1.0000 0.28548  0.88060  0.57350  Biso   1.000  H
  H217     1.0000 0.40328  0.11379  0.64930  Biso   1.000  H
  C193     1.0000 0.46669  0.11268  0.68460  Biso   1.000  C
  H218     1.0000 0.88619  0.28951  0.64930  Biso   1.000  H
  C194     1.0000 0.88731  0.35399  0.68460  Biso   1.000  C
  H219     1.0000 0.04487  0.32849  0.57350  Biso   1.000  H
  H220     1.0000 0.11939  0.40491  0.57350  Biso   1.000  H
  C195     1.0000 0.44790  0.20082  0.75434  Biso   1.000  C
  H221     1.0000 0.26161  0.18299  0.75890  Biso   1.000  H
  H222     1.0000 0.28038  0.14628  0.78541  Biso   1.000  H
  C196     1.0000 0.25868  0.22859  0.79943  Biso   1.000  C
  H223     1.0000 0.25659  0.32388  0.80450  Biso   1.000  H
  H224     1.0000 0.24570  0.29689  0.77150  Biso   1.000  H
  C197     1.0000 0.91491  0.51643  0.73040  Biso   1.000  C
  H225     1.0000 0.97860  0.61639  0.80211  Biso   1.000  H
  H226     1.0000 0.03702  0.63550  0.77671  Biso   1.000  H
  C198     1.0000 0.02898  0.72669  0.78951  Biso   1.000  C
  H227     1.0000 0.99050  0.79438  0.80180  Biso   1.000  H
  H228     1.0000 0.95157  0.71808  0.81861  Biso   1.000  H
  C199     1.0000 0.51757  0.09219  0.69337  Biso   1.000  C
  C200     1.0000 0.44589  0.14900  0.70491  Biso   1.000  C
  C201     1.0000 0.90783  0.42540  0.69337  Biso   1.000  C
  C202     1.0000 0.85098  0.29689  0.70491  Biso   1.000  C
  C203     1.0000 0.47472  0.16500  0.73313  Biso   1.000  C
  H229     1.0000 0.47091  0.21509  0.77270  Biso   1.000  H
  H230     1.0000 0.20559  0.19610  0.80180  Biso   1.000  H
  H231     1.0000 0.28190  0.23347  0.81861  Biso   1.000  H
  C204     1.0000 0.89117  0.44029  0.72196  Biso   1.000  C
  H232     1.0000 0.93709  0.55280  0.71590  Biso   1.000  H
  H233     1.0000 0.06731  0.74340  0.80450  Biso   1.000  H
  H234     1.0000 0.05120  0.75429  0.77150  Biso   1.000  H
  C205     1.0000 0.54911  0.10879  0.72196  Biso   1.000  C
  H235     1.0000 0.53148  0.06709  0.68011  Biso   1.000  H
  H236     1.0000 0.41168  0.16311  0.69931  Biso   1.000  H
  H237     1.0000 0.93290  0.46439  0.68011  Biso   1.000  H
  C206     1.0000 0.83503  0.30972  0.73313  Biso   1.000  C
  H238     1.0000 0.83687  0.24858  0.69931  Biso   1.000  H
  C207     1.0000 0.52681  0.14500  0.74161  Biso   1.000  C
  C208     1.0000 0.85501  0.38181  0.74161  Biso   1.000  C
  C209     1.0000 0.60151  0.08508  0.73040  Biso   1.000  C
  C210     1.0000 0.79918  0.24708  0.75434  Biso   1.000  C
  H239     1.0000 0.54670  0.15611  0.76061  Biso   1.000  H
  H240     1.0000 0.84391  0.39058  0.76061  Biso   1.000  H
  H241     1.0000 0.61572  0.06292  0.71590  Biso   1.000  H
  N35      1.0000 0.62892  0.09219  0.75547  Biso   1.000  N
  N36      1.0000 0.78700  0.18299  0.74878  Biso   1.000  N
  H242     1.0000 0.78488  0.25580  0.77270  Biso   1.000  H
  C211     1.0000 0.68011  0.06481  0.76074  Biso   1.000  C
  C212     1.0000 0.75513  0.12762  0.77159  Biso   1.000  C
  C213     1.0000 0.64611  0.00239  0.78375  Biso   1.000  C
  H243     1.0000 0.68760  0.04498  0.74220  Biso   1.000  H
  H244     1.0000 0.74851  0.14939  0.78980  Biso   1.000  H
  C214     1.0000 0.80689  0.09541  0.77744  Biso   1.000  C
  H245     1.0000 0.63781  0.02138  0.80211  Biso   1.000  H
  H246     1.0000 0.59852  0.96301  0.77671  Biso   1.000  H
  C215     1.0000 0.69770  0.97101  0.78951  Biso   1.000  C
  C216     1.0000 0.77140  0.03010  0.79943  Biso   1.000  C
  H247     1.0000 0.81699  0.07858  0.75890  Biso   1.000  H
  H248     1.0000 0.85371  0.13412  0.78541  Biso   1.000  H
  H249     1.0000 0.67612  0.93275  0.80450  Biso   1.000  H
  H250     1.0000 0.70309  0.94880  0.77150  Biso   1.000  H
  H251     1.0000 0.80390  0.00950  0.80180  Biso   1.000  H
  H252     1.0000 0.76652  0.04843  0.81861  Biso   1.000  H
  C217     1.0000 0.66906  0.97943  0.54958  Biso   1.000  C
  C218     1.0000 0.73146  0.01342  0.57259  Biso   1.000  C
  H253     1.0000 0.68806  0.97115  0.53123  Biso   1.000  H
  H254     1.0000 0.62968  0.93184  0.55663  Biso   1.000  H
  C219     1.0000 0.63767  0.03102  0.54383  Biso   1.000  C
  N37      1.0000 0.75886  0.96221  0.57786  Biso   1.000  N
  C220     1.0000 0.79424  0.08839  0.56174  Biso   1.000  C
  H255     1.0000 0.71164  0.02091  0.59113  Biso   1.000  H
  C221     1.0000 0.69674  0.10472  0.53390  Biso   1.000  C
  H256     1.0000 0.59936  0.00942  0.52883  Biso   1.000  H
  H257     1.0000 0.61545  0.03641  0.56183  Biso   1.000  H
  C222     1.0000 0.75176  0.93483  0.60293  Biso   1.000  C
  N38      1.0000 0.84965  0.12032  0.58455  Biso   1.000  N
  H258     1.0000 0.81607  0.08184  0.54354  Biso   1.000  H
  C223     1.0000 0.76205  0.14021  0.55590  Biso   1.000  C
  H259     1.0000 0.67614  0.13721  0.53154  Biso   1.000  H
  H260     1.0000 0.71508  0.09983  0.51473  Biso   1.000  H
  C224     1.0000 0.77547  0.88241  0.61137  Biso   1.000  C
  H261     1.0000 0.72958  0.94905  0.61744  Biso   1.000  H
  C225     1.0000 0.91373  0.13249  0.57899  Biso   1.000  C
  H262     1.0000 0.74527  0.15031  0.57443  Biso   1.000  H
  H263     1.0000 0.80075  0.18702  0.54792  Biso   1.000  H
  C226     1.0000 0.81166  0.86014  0.59173  Biso   1.000  C
  C227     1.0000 0.75886  0.85092  0.63996  Biso   1.000  C
  C228     1.0000 0.97637  0.16831  0.60021  Biso   1.000  C
  H264     1.0000 0.92247  0.11821  0.56063  Biso   1.000  H
  C229     1.0000 0.83169  0.80805  0.60021  Biso   1.000  C
  H265     1.0000 0.82275  0.88002  0.57273  Biso   1.000  H
  C230     1.0000 0.77935  0.80005  0.64873  Biso   1.000  C
  H266     1.0000 0.73380  0.86486  0.65322  Biso   1.000  H
  C231     1.0000 0.96354  0.18430  0.62842  Biso   1.000  C
  C232     1.0000 0.04846  0.18830  0.59173  Biso   1.000  C
  C233     1.0000 0.86748  0.78122  0.57899  Biso   1.000  C
  C234     1.0000 0.81564  0.77922  0.62842  Biso   1.000  C
  C235     1.0000 0.76058  0.76606  0.67825  Biso   1.000  C
  H267     1.0000 0.91522  0.17020  0.63402  Biso   1.000  H
  C236     1.0000 0.02066  0.22062  0.64873  Biso   1.000  C
  C237     1.0000 0.10696  0.22451  0.61137  Biso   1.000  C
  H268     1.0000 0.05724  0.17719  0.57273  Biso   1.000  H
  N39      1.0000 0.87968  0.72935  0.58455  Biso   1.000  N
  H269     1.0000 0.88176  0.80421  0.56063  Biso   1.000  H
  H270     1.0000 0.82975  0.74501  0.63402  Biso   1.000  H
  N40      1.0000 0.71917  0.77434  0.69608  Biso   1.000  N
  H271     1.0000 0.78044  0.73663  0.68403  Biso   1.000  H
  C238     1.0000 0.09204  0.24111  0.63996  Biso   1.000  C
  C239     1.0000 0.00547  0.23939  0.67825  Biso   1.000  C
  C240     1.0000 0.18308  0.24822  0.60293  Biso   1.000  C
  C241     1.0000 0.91156  0.70586  0.56174  Biso   1.000  C
  C242     1.0000 0.70314  0.73613  0.72467  Biso   1.000  C
  H272     1.0000 0.13104  0.26622  0.65322  Biso   1.000  H
  H273     1.0000 0.95614  0.21951  0.68403  Biso   1.000  H
  N41      1.0000 0.05514  0.28082  0.69608  Biso   1.000  N
  N42      1.0000 0.20338  0.24111  0.57786  Biso   1.000  N
  H274     1.0000 0.21948  0.27044  0.61744  Biso   1.000  H
  C243     1.0000 0.85978  0.62183  0.55590  Biso   1.000  C
  H275     1.0000 0.91815  0.73424  0.54354  Biso   1.000  H
  C244     1.0000 0.98656  0.71802  0.57259  Biso   1.000  C
  H276     1.0000 0.72768  0.70642  0.72564  Biso   1.000  H
  C245     1.0000 0.73265  0.79361  0.74940  Biso   1.000  C
  C246     1.0000 0.61964  0.68542  0.72803  Biso   1.000  C
  C247     1.0000 0.03298  0.29682  0.72467  Biso   1.000  C
  C248     1.0000 0.28195  0.26849  0.57259  Biso   1.000  C
  C249     1.0000 0.89527  0.59201  0.53390  Biso   1.000  C
  H277     1.0000 0.84966  0.59496  0.57443  Biso   1.000  H
  H278     1.0000 0.81297  0.61373  0.54792  Biso   1.000  H
  C250     1.0000 0.02056  0.68964  0.54958  Biso   1.000  C
  H279     1.0000 0.97908  0.69075  0.59113  Biso   1.000  H
  N43      1.0000 0.03773  0.79661  0.57786  Biso   1.000  N
  C251     1.0000 0.71288  0.75723  0.77961  Biso   1.000  C
  N44      1.0000 0.81267  0.83726  0.74697  Biso   1.000  N
  H280     1.0000 0.71154  0.82632  0.74734  Biso   1.000  H
  C252     1.0000 0.60077  0.64921  0.75804  Biso   1.000  C
  H281     1.0000 0.59484  0.71402  0.72533  Biso   1.000  H
  H282     1.0000 0.60175  0.64733  0.71284  Biso   1.000  H
  C253     1.0000 0.06094  0.26733  0.74940  Biso   1.000  C
  H283     1.0000 0.97875  0.27233  0.72564  Biso   1.000  H
  C254     1.0000 0.06572  0.38029  0.72803  Biso   1.000  C
  C255     1.0000 0.29419  0.20574  0.56174  Biso   1.000  C
  C256     1.0000 0.31037  0.33092  0.54958  Biso   1.000  C
  H284     1.0000 0.30927  0.28832  0.59113  Biso   1.000  H
  H285     1.0000 0.86276  0.53892  0.53154  Biso   1.000  H
  H286     1.0000 0.90015  0.61523  0.51473  Biso   1.000  H
  C257     1.0000 0.96895  0.60662  0.54383  Biso   1.000  C
  H287     1.0000 0.02886  0.71691  0.53123  Biso   1.000  H
  H288     1.0000 0.06817  0.69781  0.55663  Biso   1.000  H
  C258     1.0000 0.06516  0.81693  0.60293  Biso   1.000  C
  H289     1.0000 0.73807  0.72902  0.78253  Biso   1.000  H
  H290     1.0000 0.73025  0.79544  0.79473  Biso   1.000  H
  C259     1.0000 0.63048  0.70642  0.78295  Biso   1.000  C
  C260     1.0000 0.84200  0.90484  0.74176  Biso   1.000  C
  H291     1.0000 0.62177  0.61695  0.75983  Biso   1.000  H
  H292     1.0000 0.54725  0.61884  0.75983  Biso   1.000  H
  N45      1.0000 0.02454  0.18730  0.74697  Biso   1.000  N
  C261     1.0000 0.04433  0.28710  0.77961  Biso   1.000  C
  H293     1.0000 0.11478  0.28843  0.74734  Biso   1.000  H
  C262     1.0000 0.04845  0.39922  0.75804  Biso   1.000  C
  H294     1.0000 0.11916  0.40511  0.72533  Biso   1.000  H
  H295     1.0000 0.04554  0.39823  0.71284  Biso   1.000  H
  N46      1.0000 0.27066  0.15031  0.58455  Biso   1.000  N
  H296     1.0000 0.26577  0.18391  0.54354  Biso   1.000  H
  C263     1.0000 0.37813  0.23789  0.55590  Biso   1.000  C
  C264     1.0000 0.39334  0.36229  0.54383  Biso   1.000  C
  H297     1.0000 0.28308  0.31192  0.53123  Biso   1.000  H
  H298     1.0000 0.30216  0.37029  0.55663  Biso   1.000  H
  H299     1.0000 0.99058  0.58996  0.52883  Biso   1.000  H
  H300     1.0000 0.96357  0.57902  0.56183  Biso   1.000  H
  C265     1.0000 0.11754  0.89302  0.61137  Biso   1.000  C
  H301     1.0000 0.05096  0.78056  0.61744  Biso   1.000  H
  H302     1.0000 0.60546  0.73535  0.78253  Biso   1.000  H
  H303     1.0000 0.62006  0.68115  0.80193  Biso   1.000  H
  C266     1.0000 0.92287  0.95405  0.73919  Biso   1.000  C
  H304     1.0000 0.81135  0.92523  0.73933  Biso   1.000  H
  C267     1.0000 0.06286  0.15803  0.74176  Biso   1.000  C
  H305     1.0000 0.99094  0.26188  0.78253  Biso   1.000  H
  H306     1.0000 0.06517  0.26972  0.79473  Biso   1.000  H
  C268     1.0000 0.07596  0.36951  0.78295  Biso   1.000  C
  H307     1.0000 0.99515  0.37823  0.75983  Biso   1.000  H
  H308     1.0000 0.07153  0.45271  0.75983  Biso   1.000  H
  C269     1.0000 0.21876  0.08622  0.57899  Biso   1.000  C
  H309     1.0000 0.40506  0.25472  0.57443  Biso   1.000  H
  H310     1.0000 0.38624  0.19918  0.54792  Biso   1.000  H
  C270     1.0000 0.40795  0.30320  0.53390  Biso   1.000  C
  H311     1.0000 0.41005  0.40061  0.52883  Biso   1.000  H
  H312     1.0000 0.42095  0.38451  0.56183  Biso   1.000  H
  C271     1.0000 0.14910  0.90795  0.63996  Biso   1.000  C
  C272     1.0000 0.13988  0.95155  0.59173  Biso   1.000  C
  C273     1.0000 0.97016  0.92512  0.73917  Biso   1.000  C
  C274     1.0000 0.95497  0.02980  0.73917  Biso   1.000  C
  C275     1.0000 0.03115  0.07712  0.73919  Biso   1.000  C
  H313     1.0000 0.11384  0.18863  0.73933  Biso   1.000  H
  H314     1.0000 0.12987  0.39450  0.78253  Biso   1.000  H
  H315     1.0000 0.06105  0.37990  0.80193  Biso   1.000  H
  C276     1.0000 0.19198  0.02364  0.60021  Biso   1.000  C
  H316     1.0000 0.19574  0.07751  0.56063  Biso   1.000  H
  H317     1.0000 0.46106  0.32381  0.53154  Biso   1.000  H
  H318     1.0000 0.38477  0.28493  0.51473  Biso   1.000  H
  H319     1.0000 0.13516  0.86891  0.65322  Biso   1.000  H
  C277     1.0000 0.19998  0.97932  0.64873  Biso   1.000  C
  H320     1.0000 0.11998  0.94272  0.57273  Biso   1.000  H
  C278     1.0000 0.04597  0.96882  0.73919  Biso   1.000  C
  H321     1.0000 0.94958  0.87386  0.73913  Biso   1.000  H
  H322     1.0000 0.92425  0.05040  0.73913  Biso   1.000  H
  C279     1.0000 0.07484  0.04502  0.73917  Biso   1.000  C
  C280     1.0000 0.22073  0.03641  0.62842  Biso   1.000  C
  C281     1.0000 0.23395  0.99454  0.67825  Biso   1.000  C
  C282     1.0000 0.09514  0.93711  0.74176  Biso   1.000  C
  H323     1.0000 0.12617  0.07573  0.73913  Biso   1.000  H
  H324     1.0000 0.25494  0.08473  0.63402  Biso   1.000  H
  N47      1.0000 0.22569  0.94483  0.69608  Biso   1.000  N
  H325     1.0000 0.26334  0.04380  0.68403  Biso   1.000  H
  N48      1.0000 0.16278  0.97543  0.74697  Biso   1.000  N
  H326     1.0000 0.07475  0.88613  0.73933  Biso   1.000  H
  C283     1.0000 0.26387  0.96705  0.72467  Biso   1.000  C
  C284     1.0000 0.20640  0.93905  0.74940  Biso   1.000  C
  C285     1.0000 0.31455  0.93422  0.72803  Biso   1.000  C
  H327     1.0000 0.29354  0.02119  0.72564  Biso   1.000  H
  C286     1.0000 0.24279  0.95566  0.77961  Biso   1.000  C
  H328     1.0000 0.17367  0.88524  0.74734  Biso   1.000  H
  C287     1.0000 0.35078  0.95155  0.75804  Biso   1.000  C
  H329     1.0000 0.28599  0.88085  0.72533  Biso   1.000  H
  H330     1.0000 0.35265  0.95444  0.71284  Biso   1.000  H
  H331     1.0000 0.20458  0.93483  0.79473  Biso   1.000  H
  C288     1.0000 0.29360  0.92406  0.78295  Biso   1.000  C
  H332     1.0000 0.27096  0.00903  0.78253  Biso   1.000  H
  H333     1.0000 0.38116  0.92845  0.75983  Biso   1.000  H
  H334     1.0000 0.38303  0.00481  0.75983  Biso   1.000  H
  H335     1.0000 0.26467  0.87014  0.78253  Biso   1.000  H
  H336     1.0000 0.31889  0.93894  0.80193  Biso   1.000  H
  C289     1.0000 0.43806  0.36343  0.13276  Biso   1.000  C
  C290     1.0000 0.36437  0.30434  0.12284  Biso   1.000  C
  C291     1.0000 0.47355  0.42874  0.11077  Biso   1.000  C
  H337     1.0000 0.47056  0.34282  0.13513  Biso   1.000  H
  H338     1.0000 0.43318  0.38175  0.15194  Biso   1.000  H
  C292     1.0000 0.31277  0.33571  0.11708  Biso   1.000  C
  H339     1.0000 0.34275  0.26602  0.13783  Biso   1.000  H
  H340     1.0000 0.36975  0.28212  0.10484  Biso   1.000  H
  C293     1.0000 0.42180  0.46095  0.10493  Biso   1.000  C
  H341     1.0000 0.48366  0.41191  0.09224  Biso   1.000  H
  H342     1.0000 0.52037  0.46744  0.11874  Biso   1.000  H
  H343     1.0000 0.30447  0.35471  0.13544  Biso   1.000  H
  H344     1.0000 0.26519  0.29634  0.11004  Biso   1.000  H
  C294     1.0000 0.34677  0.39814  0.09407  Biso   1.000  C
  N49      1.0000 0.45367  0.51632  0.08212  Biso   1.000  N
  H345     1.0000 0.41518  0.48272  0.12313  Biso   1.000  H
  N50      1.0000 0.29558  0.42552  0.08880  Biso   1.000  N
  H346     1.0000 0.35427  0.37831  0.07554  Biso   1.000  H
  C295     1.0000 0.46587  0.58046  0.08767  Biso   1.000  C
  C296     1.0000 0.26817  0.41841  0.06373  Biso   1.000  C
  C297     1.0000 0.50169  0.64305  0.06646  Biso   1.000  C
  H347     1.0000 0.45155  0.58912  0.10603  Biso   1.000  H
  C298     1.0000 0.21577  0.44212  0.05530  Biso   1.000  C
  H348     1.0000 0.28239  0.39625  0.04923  Biso   1.000  H
  C299     1.0000 0.51764  0.63022  0.03825  Biso   1.000  C
  C300     1.0000 0.52167  0.71513  0.07494  Biso   1.000  C
  C301     1.0000 0.18424  0.42552  0.02671  Biso   1.000  C
  C302     1.0000 0.19347  0.47833  0.07494  Biso   1.000  C
  H349     1.0000 0.50356  0.58196  0.03264  Biso   1.000  H
  C303     1.0000 0.55398  0.68731  0.01794  Biso   1.000  C
  C304     1.0000 0.55783  0.77361  0.05530  Biso   1.000  C
  H350     1.0000 0.51057  0.72391  0.09394  Biso   1.000  H
  H351     1.0000 0.19814  0.40041  0.01344  Biso   1.000  H
  C305     1.0000 0.13335  0.44601  0.01794  Biso   1.000  C
  C306     1.0000 0.14138  0.49832  0.06646  Biso   1.000  C
  H352     1.0000 0.21336  0.48944  0.09394  Biso   1.000  H
  C307     1.0000 0.57449  0.75873  0.02671  Biso   1.000  C
  C308     1.0000 0.57275  0.67215  0.98842  Biso   1.000  C
  C309     1.0000 0.58157  0.84975  0.06373  Biso   1.000  C
  C310     1.0000 0.11256  0.48233  0.03825  Biso   1.000  C
  C311     1.0000 0.09939  0.42724  0.98842  Biso   1.000  C
  C312     1.0000 0.11456  0.53414  0.08767  Biso   1.000  C
  H353     1.0000 0.59956  0.79772  0.01344  Biso   1.000  H
  N51      1.0000 0.61420  0.72185  0.97059  Biso   1.000  N
  H354     1.0000 0.55286  0.62283  0.98264  Biso   1.000  H
  H355     1.0000 0.60375  0.88613  0.04923  Biso   1.000  H
  N52      1.0000 0.57444  0.87002  0.08880  Biso   1.000  N
  H356     1.0000 0.07834  0.49643  0.03264  Biso   1.000  H
  N53      1.0000 0.10763  0.38581  0.97059  Biso   1.000  N
  H357     1.0000 0.06994  0.44712  0.98264  Biso   1.000  H
  N54      1.0000 0.06264  0.54631  0.08212  Biso   1.000  N
  H358     1.0000 0.13757  0.54842  0.10603  Biso   1.000  H
  C313     1.0000 0.63017  0.69964  0.94200  Biso   1.000  C
  C314     1.0000 0.60185  0.94861  0.09407  Biso   1.000  C
  C315     1.0000 0.06948  0.36981  0.94200  Biso   1.000  C
  C316     1.0000 0.03917  0.57824  0.10493  Biso   1.000  C
  H359     1.0000 0.60566  0.64544  0.94103  Biso   1.000  H
  C317     1.0000 0.60069  0.72763  0.91726  Biso   1.000  C
  C318     1.0000 0.71364  0.73241  0.93863  Biso   1.000  C
  C319     1.0000 0.66426  0.97704  0.11708  Biso   1.000  C
  C320     1.0000 0.53904  0.96083  0.10493  Biso   1.000  C
  H360     1.0000 0.62167  0.97593  0.07554  Biso   1.000  H
  H361     1.0000 0.03976  0.39436  0.94103  Biso   1.000  H
  C321     1.0000 0.12696  0.39936  0.91726  Biso   1.000  C
  C322     1.0000 0.01875  0.28634  0.93863  Biso   1.000  C
  H362     1.0000 0.06758  0.58485  0.12313  Biso   1.000  H
  C323     1.0000 0.05136  0.65321  0.09407  Biso   1.000  C
  C324     1.0000 0.95516  0.52642  0.11077  Biso   1.000  C
  C325     1.0000 0.62047  0.71102  0.88706  Biso   1.000  C
  N55      1.0000 0.52069  0.69125  0.91970  Biso   1.000  N
  H363     1.0000 0.62177  0.78144  0.91932  Biso   1.000  H
  C326     1.0000 0.73257  0.71513  0.90863  Biso   1.000  C
  H364     1.0000 0.73848  0.78583  0.94134  Biso   1.000  H
  H365     1.0000 0.73156  0.71225  0.95383  Biso   1.000  H
  H366     1.0000 0.64526  0.94972  0.13544  Biso   1.000  H
  H367     1.0000 0.70368  0.96882  0.11004  Biso   1.000  H
  C327     1.0000 0.69565  0.06001  0.12284  Biso   1.000  C
  N56      1.0000 0.48367  0.93733  0.08212  Biso   1.000  N
  H368     1.0000 0.51725  0.93245  0.12313  Biso   1.000  H
  C328     1.0000 0.57126  0.04480  0.11077  Biso   1.000  C
  C329     1.0000 0.09055  0.37953  0.88706  Biso   1.000  C
  N57      1.0000 0.17055  0.47933  0.91970  Biso   1.000  N
  H369     1.0000 0.15969  0.37825  0.91932  Biso   1.000  H
  C330     1.0000 0.98257  0.26746  0.90863  Biso   1.000  C
  H370     1.0000 0.98066  0.26846  0.95383  Biso   1.000  H
  H371     1.0000 0.04736  0.26152  0.94134  Biso   1.000  H
  C331     1.0000 0.02298  0.68726  0.11708  Biso   1.000  C
  N58      1.0000 0.12996  0.70442  0.08880  Biso   1.000  N
  H372     1.0000 0.02404  0.64571  0.07554  Biso   1.000  H
  H373     1.0000 0.92827  0.51632  0.09224  Biso   1.000  H
  H374     1.0000 0.94705  0.47961  0.11874  Biso   1.000  H
  C332     1.0000 0.92534  0.56191  0.13276  Biso   1.000  C
  H375     1.0000 0.59528  0.65766  0.88413  Biso   1.000  H
  H376     1.0000 0.60308  0.73185  0.87193  Biso   1.000  H
  C333     1.0000 0.70288  0.74262  0.88371  Biso   1.000  C
  C334     1.0000 0.49135  0.72952  0.92490  Biso   1.000  C
  H377     1.0000 0.71154  0.66182  0.90683  Biso   1.000  H
  H378     1.0000 0.78606  0.73824  0.90683  Biso   1.000  H
  C335     1.0000 0.63658  0.07462  0.13276  Biso   1.000  C
  H379     1.0000 0.73397  0.07673  0.13783  Biso   1.000  H
  H380     1.0000 0.71786  0.08761  0.10484  Biso   1.000  H
  C336     1.0000 0.41957  0.88541  0.08767  Biso   1.000  C
  H381     1.0000 0.58805  0.07173  0.09224  Biso   1.000  H
  H382     1.0000 0.53256  0.05290  0.11874  Biso   1.000  H
  H383     1.0000 0.06237  0.40474  0.88413  Biso   1.000  H
  H384     1.0000 0.12877  0.39691  0.87193  Biso   1.000  H
  C337     1.0000 0.03977  0.29712  0.88371  Biso   1.000  C
  C338     1.0000 0.23817  0.50865  0.92490  Biso   1.000  C
  H385     1.0000 0.95026  0.28845  0.90683  Biso   1.000  H
  H386     1.0000 0.95214  0.21392  0.90683  Biso   1.000  H
  H387     1.0000 0.05025  0.69553  0.13544  Biso   1.000  H
  H388     1.0000 0.03119  0.73485  0.11004  Biso   1.000  H
  C339     1.0000 0.93997  0.63561  0.12284  Biso   1.000  C
  C340     1.0000 0.15027  0.73185  0.06373  Biso   1.000  C
  H389     1.0000 0.87225  0.52942  0.13513  Biso   1.000  H
  H390     1.0000 0.94859  0.56685  0.15194  Biso   1.000  H
  H391     1.0000 0.72787  0.79655  0.88413  Biso   1.000  H
  H392     1.0000 0.71328  0.72774  0.86474  Biso   1.000  H
  C341     1.0000 0.41047  0.69781  0.92747  Biso   1.000  C
  H393     1.0000 0.52196  0.78056  0.92734  Biso   1.000  H
  H394     1.0000 0.65716  0.12771  0.13513  Biso   1.000  H
  H395     1.0000 0.61824  0.05140  0.15194  Biso   1.000  H
  C342     1.0000 0.35698  0.85864  0.06646  Biso   1.000  C
  H396     1.0000 0.41086  0.86242  0.10603  Biso   1.000  H
  H397     1.0000 0.06868  0.27213  0.88413  Biso   1.000  H
  H398     1.0000 0.01447  0.28673  0.86474  Biso   1.000  H
  C343     1.0000 0.28735  0.58951  0.92747  Biso   1.000  C
  H399     1.0000 0.25855  0.47805  0.92734  Biso   1.000  H
  H400     1.0000 0.92326  0.65721  0.13783  Biso   1.000  H
  H401     1.0000 0.91236  0.63022  0.10484  Biso   1.000  H
  C344     1.0000 0.22637  0.78422  0.05530  Biso   1.000  C
  H402     1.0000 0.11387  0.71763  0.04923  Biso   1.000  H
  C345     1.0000 0.36313  0.62161  0.92750  Biso   1.000  C
  C346     1.0000 0.37836  0.74151  0.92750  Biso   1.000  C
  C347     1.0000 0.28486  0.80655  0.07494  Biso   1.000  C
  C348     1.0000 0.36973  0.88741  0.03825  Biso   1.000  C
  C349     1.0000 0.25849  0.63683  0.92750  Biso   1.000  C
  C350     1.0000 0.24125  0.81571  0.02671  Biso   1.000  C
  H403     1.0000 0.38378  0.59096  0.92754  Biso   1.000  H
  C351     1.0000 0.30216  0.71264  0.92747  Biso   1.000  C
  H404     1.0000 0.40906  0.79283  0.92754  Biso   1.000  H
  H405     1.0000 0.27605  0.78661  0.09394  Biso   1.000  H
  C352     1.0000 0.31265  0.86664  0.01794  Biso   1.000  C
  H406     1.0000 0.41805  0.92162  0.03264  Biso   1.000  H
  H407     1.0000 0.20716  0.61623  0.92754  Biso   1.000  H
  H408     1.0000 0.20228  0.80183  0.01344  Biso   1.000  H
  C353     1.0000 0.27049  0.76184  0.92490  Biso   1.000  C
  C354     1.0000 0.32786  0.90062  0.98842  Biso   1.000  C
  N59      1.0000 0.30876  0.82943  0.91970  Biso   1.000  N
  H409     1.0000 0.21947  0.74146  0.92734  Biso   1.000  H
  N60      1.0000 0.27818  0.89235  0.97059  Biso   1.000  N
  H410     1.0000 0.37716  0.93006  0.98264  Biso   1.000  H
  C355     1.0000 0.27236  0.87302  0.91726  Biso   1.000  C
  C356     1.0000 0.30036  0.93056  0.94200  Biso   1.000  C
  C357     1.0000 0.28899  0.90945  0.88706  Biso   1.000  C
  H411     1.0000 0.21854  0.84031  0.91932  Biso   1.000  H
  H412     1.0000 0.35458  0.96021  0.94103  Biso   1.000  H
  C358     1.0000 0.26754  0.98121  0.93863  Biso   1.000  C
  H413     1.0000 0.34236  0.93761  0.88413  Biso   1.000  H
  H414     1.0000 0.26815  0.87125  0.87193  Biso   1.000  H
  C359     1.0000 0.25738  0.96021  0.88371  Biso   1.000  C
  H415     1.0000 0.21413  0.95261  0.94134  Biso   1.000  H
  C360     1.0000 0.28487  0.01742  0.90863  Biso   1.000  C
  H416     1.0000 0.28774  0.01930  0.95383  Biso   1.000  H
  H417     1.0000 0.20345  0.93134  0.88413  Biso   1.000  H
  H418     1.0000 0.27225  0.98554  0.86474  Biso   1.000  H
  H419     1.0000 0.33816  0.04974  0.90683  Biso   1.000  H
  H420     1.0000 0.26173  0.04779  0.90683  Biso   1.000  H
  C361     1.0000 0.36342  0.43807  0.86724  Biso   1.000  C
  C362     1.0000 0.42873  0.47355  0.88923  Biso   1.000  C
  H421     1.0000 0.34282  0.47055  0.86487  Biso   1.000  H
  H422     1.0000 0.38175  0.43318  0.84806  Biso   1.000  H
  C363     1.0000 0.30435  0.36437  0.87716  Biso   1.000  C
  C364     1.0000 0.46092  0.42174  0.89507  Biso   1.000  C
  H423     1.0000 0.41194  0.48366  0.90776  Biso   1.000  H
  H424     1.0000 0.46743  0.52037  0.88126  Biso   1.000  H
  C365     1.0000 0.33574  0.31278  0.88292  Biso   1.000  C
  H425     1.0000 0.26604  0.34277  0.86217  Biso   1.000  H
  H426     1.0000 0.28213  0.36976  0.89516  Biso   1.000  H
  N61      1.0000 0.51632  0.45367  0.91788  Biso   1.000  N
  H427     1.0000 0.48275  0.41519  0.87687  Biso   1.000  H
  C366     1.0000 0.39813  0.34677  0.90593  Biso   1.000  C
  H428     1.0000 0.35471  0.30445  0.86456  Biso   1.000  H
  H429     1.0000 0.29636  0.26518  0.88996  Biso   1.000  H
  C367     1.0000 0.58043  0.46589  0.91233  Biso   1.000  C
  N62      1.0000 0.42553  0.29556  0.91120  Biso   1.000  N
  H430     1.0000 0.37831  0.35426  0.92446  Biso   1.000  H
  C368     1.0000 0.64305  0.50165  0.93354  Biso   1.000  C
  H431     1.0000 0.58914  0.45156  0.89397  Biso   1.000  H
  C369     1.0000 0.41843  0.26818  0.93627  Biso   1.000  C
  C370     1.0000 0.63022  0.51765  0.96175  Biso   1.000  C
  C371     1.0000 0.71513  0.52165  0.92506  Biso   1.000  C
  C372     1.0000 0.44214  0.21576  0.94470  Biso   1.000  C
  H432     1.0000 0.39622  0.28234  0.95077  Biso   1.000  H
  H433     1.0000 0.58190  0.50354  0.96736  Biso   1.000  H
  C373     1.0000 0.68733  0.55397  0.98206  Biso   1.000  C
  C374     1.0000 0.77364  0.55786  0.94470  Biso   1.000  C
  H434     1.0000 0.72391  0.51054  0.90606  Biso   1.000  H
  C375     1.0000 0.42553  0.18427  0.97329  Biso   1.000  C
  C376     1.0000 0.47833  0.19349  0.92506  Biso   1.000  C
  C377     1.0000 0.75871  0.57446  0.97329  Biso   1.000  C
  C378     1.0000 0.67214  0.57274  0.01158  Biso   1.000  C
  C379     1.0000 0.84975  0.58157  0.93627  Biso   1.000  C
  H435     1.0000 0.40044  0.19815  0.98656  Biso   1.000  H
  C380     1.0000 0.44600  0.13334  0.98206  Biso   1.000  C
  C381     1.0000 0.49836  0.14139  0.93354  Biso   1.000  C
  H436     1.0000 0.48943  0.21337  0.90606  Biso   1.000  H
  H437     1.0000 0.79771  0.59956  0.98656  Biso   1.000  H
  N63      1.0000 0.72181  0.61417  0.02941  Biso   1.000  N
  H438     1.0000 0.62281  0.55286  0.01736  Biso   1.000  H
  H439     1.0000 0.88616  0.60379  0.95077  Biso   1.000  H
  N64      1.0000 0.87005  0.57446  0.91120  Biso   1.000  N
  C382     1.0000 0.48231  0.11257  0.96175  Biso   1.000  C
  C383     1.0000 0.42723  0.09935  0.01158  Biso   1.000  C
  C384     1.0000 0.53415  0.11457  0.91233  Biso   1.000  C
  C385     1.0000 0.69965  0.63016  0.05800  Biso   1.000  C
  C386     1.0000 0.94862  0.60184  0.90593  Biso   1.000  C
  H440     1.0000 0.49642  0.07836  0.96736  Biso   1.000  H
  N65      1.0000 0.38584  0.10768  0.02941  Biso   1.000  N
  H441     1.0000 0.44712  0.06998  0.01736  Biso   1.000  H
  N66      1.0000 0.54633  0.06264  0.91788  Biso   1.000  N
  H442     1.0000 0.54844  0.13756  0.89397  Biso   1.000  H
  H443     1.0000 0.64542  0.60567  0.05897  Biso   1.000  H
  C387     1.0000 0.72762  0.60068  0.08274  Biso   1.000  C
  C388     1.0000 0.73242  0.71369  0.06137  Biso   1.000  C
  C389     1.0000 0.97704  0.66426  0.88292  Biso   1.000  C
  C390     1.0000 0.96087  0.53909  0.89507  Biso   1.000  C
  H444     1.0000 0.97595  0.62167  0.92446  Biso   1.000  H
  C391     1.0000 0.36982  0.06948  0.05800  Biso   1.000  C
  C392     1.0000 0.57820  0.03915  0.89507  Biso   1.000  C
  C393     1.0000 0.71100  0.62045  0.11294  Biso   1.000  C
  N67      1.0000 0.69121  0.52065  0.08030  Biso   1.000  N
  H445     1.0000 0.78146  0.62178  0.08068  Biso   1.000  H
  C394     1.0000 0.71512  0.73257  0.09137  Biso   1.000  C
  H446     1.0000 0.78583  0.73846  0.05866  Biso   1.000  H
  H447     1.0000 0.71222  0.73157  0.04617  Biso   1.000  H
  H448     1.0000 0.94975  0.64527  0.86456  Biso   1.000  H
  H449     1.0000 0.96886  0.70369  0.88996  Biso   1.000  H
  C395     1.0000 0.06002  0.69564  0.87716  Biso   1.000  C
  N68      1.0000 0.93734  0.48366  0.91788  Biso   1.000  N
  H450     1.0000 0.93245  0.51726  0.87687  Biso   1.000  H
  C396     1.0000 0.04481  0.57124  0.88923  Biso   1.000  C
  H451     1.0000 0.39435  0.03976  0.05897  Biso   1.000  H
  C397     1.0000 0.39933  0.12695  0.08274  Biso   1.000  C
  C398     1.0000 0.28632  0.01877  0.06137  Biso   1.000  C
  H452     1.0000 0.58482  0.06759  0.87687  Biso   1.000  H
  C399     1.0000 0.65323  0.05137  0.90593  Biso   1.000  C
  C400     1.0000 0.52646  0.95518  0.88923  Biso   1.000  C
  H453     1.0000 0.65764  0.59529  0.11587  Biso   1.000  H
  H454     1.0000 0.73184  0.60306  0.12807  Biso   1.000  H
  C401     1.0000 0.74264  0.70286  0.11629  Biso   1.000  C
  C402     1.0000 0.72953  0.49138  0.07510  Biso   1.000  C
  H455     1.0000 0.66182  0.71158  0.09317  Biso   1.000  H
  H456     1.0000 0.73821  0.78605  0.09317  Biso   1.000  H
  C403     1.0000 0.07462  0.63655  0.86724  Biso   1.000  C
  H457     1.0000 0.07672  0.73396  0.86217  Biso   1.000  H
  H458     1.0000 0.08762  0.71786  0.89516  Biso   1.000  H
  C404     1.0000 0.88543  0.41957  0.91233  Biso   1.000  C
  H459     1.0000 0.07174  0.58807  0.90776  Biso   1.000  H
  H460     1.0000 0.05294  0.53259  0.88126  Biso   1.000  H
  C405     1.0000 0.37955  0.09058  0.11294  Biso   1.000  C
  N69      1.0000 0.47932  0.17055  0.08030  Biso   1.000  N
  H461     1.0000 0.37822  0.15967  0.08068  Biso   1.000  H
  C406     1.0000 0.26744  0.98256  0.09137  Biso   1.000  C
  H462     1.0000 0.26842  0.98067  0.04617  Biso   1.000  H
  H463     1.0000 0.26152  0.04737  0.05866  Biso   1.000  H
  C407     1.0000 0.68724  0.02299  0.88292  Biso   1.000  C
  N70      1.0000 0.70441  0.12995  0.91120  Biso   1.000  N
  H464     1.0000 0.64573  0.02405  0.92446  Biso   1.000  H
  H465     1.0000 0.51634  0.92830  0.90776  Biso   1.000  H
  H466     1.0000 0.47965  0.94707  0.88126  Biso   1.000  H
  C408     1.0000 0.56198  0.92542  0.86724  Biso   1.000  C
  H467     1.0000 0.79654  0.72785  0.11587  Biso   1.000  H
  H468     1.0000 0.72773  0.71325  0.13526  Biso   1.000  H
  C409     1.0000 0.69783  0.41047  0.07253  Biso   1.000  C
  H469     1.0000 0.78052  0.52198  0.07266  Biso   1.000  H
  H470     1.0000 0.12773  0.65716  0.86487  Biso   1.000  H
  H471     1.0000 0.05144  0.61828  0.84806  Biso   1.000  H
  C410     1.0000 0.85866  0.35698  0.93354  Biso   1.000  C
  H472     1.0000 0.86241  0.41085  0.89397  Biso   1.000  H
  H473     1.0000 0.40474  0.06237  0.11587  Biso   1.000  H
  H474     1.0000 0.39693  0.12879  0.12807  Biso   1.000  H
  C411     1.0000 0.29715  0.03976  0.11629  Biso   1.000  C
  C412     1.0000 0.50867  0.23819  0.07510  Biso   1.000  C
  H475     1.0000 0.28844  0.95030  0.09317  Biso   1.000  H
  H476     1.0000 0.21392  0.95218  0.09317  Biso   1.000  H
  H477     1.0000 0.69553  0.05026  0.86456  Biso   1.000  H
  H478     1.0000 0.73484  0.03116  0.88996  Biso   1.000  H
  C413     1.0000 0.63562  0.93997  0.87716  Biso   1.000  C
  C414     1.0000 0.73183  0.15028  0.93627  Biso   1.000  C
  H479     1.0000 0.52944  0.87227  0.86487  Biso   1.000  H
  H480     1.0000 0.56682  0.94857  0.84806  Biso   1.000  H
  C415     1.0000 0.62165  0.36315  0.07250  Biso   1.000  C
  C416     1.0000 0.74151  0.37837  0.07250  Biso   1.000  C
  C417     1.0000 0.88741  0.36976  0.96175  Biso   1.000  C
  C418     1.0000 0.80652  0.28484  0.92506  Biso   1.000  C
  H481     1.0000 0.27210  0.06864  0.11587  Biso   1.000  H
  H482     1.0000 0.28670  0.01444  0.13526  Biso   1.000  H
  C419     1.0000 0.58952  0.28734  0.07253  Biso   1.000  C
  H483     1.0000 0.47803  0.25857  0.07266  Biso   1.000  H
  H484     1.0000 0.65726  0.92331  0.86217  Biso   1.000  H
  H485     1.0000 0.63024  0.91236  0.89516  Biso   1.000  H
  C420     1.0000 0.78421  0.22636  0.94470  Biso   1.000  C
  H486     1.0000 0.71761  0.11385  0.95077  Biso   1.000  H
  H487     1.0000 0.59092  0.38375  0.07246  Biso   1.000  H
  C421     1.0000 0.71265  0.30217  0.07253  Biso   1.000  C
  H488     1.0000 0.79284  0.40908  0.07246  Biso   1.000  H
  H489     1.0000 0.92162  0.41807  0.96736  Biso   1.000  H
  C422     1.0000 0.86665  0.31267  0.98206  Biso   1.000  C
  H490     1.0000 0.78665  0.27607  0.90606  Biso   1.000  H
  C423     1.0000 0.63683  0.25846  0.07250  Biso   1.000  C
  C424     1.0000 0.81575  0.24125  0.97329  Biso   1.000  C
  C425     1.0000 0.76182  0.27046  0.07510  Biso   1.000  C
  C426     1.0000 0.90062  0.32788  0.01158  Biso   1.000  C
  H491     1.0000 0.61622  0.20715  0.07246  Biso   1.000  H
  H492     1.0000 0.80183  0.20226  0.98656  Biso   1.000  H
  N71      1.0000 0.82946  0.30878  0.08030  Biso   1.000  N
  H493     1.0000 0.74142  0.21948  0.07266  Biso   1.000  H
  N72      1.0000 0.89236  0.27818  0.02941  Biso   1.000  N
  H494     1.0000 0.93001  0.37714  0.01736  Biso   1.000  H
  C427     1.0000 0.87304  0.27235  0.08274  Biso   1.000  C
  C428     1.0000 0.93054  0.30039  0.05800  Biso   1.000  C
  C429     1.0000 0.90943  0.28895  0.11294  Biso   1.000  C
  H495     1.0000 0.84034  0.21859  0.08068  Biso   1.000  H
  H496     1.0000 0.96022  0.35454  0.05897  Biso   1.000  H
  C430     1.0000 0.98123  0.26757  0.06137  Biso   1.000  C
  H497     1.0000 0.93764  0.34238  0.11587  Biso   1.000  H
  H498     1.0000 0.87125  0.26818  0.12807  Biso   1.000  H
  C431     1.0000 0.96025  0.25735  0.11629  Biso   1.000  C
  H499     1.0000 0.95264  0.21415  0.05866  Biso   1.000  H
  C432     1.0000 0.01742  0.28484  0.09137  Biso   1.000  C
  H500     1.0000 0.01933  0.28779  0.04617  Biso   1.000  H
  H501     1.0000 0.93134  0.20348  0.11587  Biso   1.000  H
  H502     1.0000 0.98556  0.27229  0.13526  Biso   1.000  H
  H503     1.0000 0.04971  0.33816  0.09317  Biso   1.000  H
  H504     1.0000 0.04781  0.26174  0.09317  Biso   1.000  H
