data_image0
_cell_length_a       20.411
_cell_length_b       20.411
_cell_length_c       44.672
_cell_angle_alpha    90
_cell_angle_beta     90
_cell_angle_gamma    120

_symmetry_space_group_name_H-M    "P 1"
_symmetry_int_tables_number       1

loop_
  _symmetry_equiv_pos_as_xyz
  'x, y, z'

loop_
  _atom_site_label
  _atom_site_occupancy
  _atom_site_fract_x
  _atom_site_fract_y
  _atom_site_fract_z
  _atom_site_thermal_displace_type
  _atom_site_B_iso_or_equiv
  _atom_site_type_symbol
  C1       1.0000 0.66689  0.57302  0.51451  Biso   1.000  C
  C2       1.0000 0.68266  0.55390  0.48451  Biso   1.000  C
  N1       1.0000 0.71842  0.61885  0.53199  Biso   1.000  N
  H1       1.0000 0.61580  0.55000  0.52100  Biso   1.000  H
  C3       1.0000 0.62402  0.51509  0.46463  Biso   1.000  C
  C4       1.0000 0.75674  0.57613  0.47529  Biso   1.000  C
  C5       1.0000 0.69507  0.63339  0.56104  Biso   1.000  C
  C6       1.0000 0.63754  0.49942  0.43553  Biso   1.000  C
  H2       1.0000 0.57358  0.49869  0.47079  Biso   1.000  H
  C7       1.0000 0.77111  0.55961  0.44670  Biso   1.000  C
  H3       1.0000 0.79760  0.60289  0.48881  Biso   1.000  H
  H4       1.0000 0.63859  0.60657  0.56219  Biso   1.000  H
  C8       1.0000 0.72603  0.60408  0.58556  Biso   1.000  C
  C9       1.0000 0.72730  0.71853  0.56472  Biso   1.000  C
  C10      1.0000 0.57486  0.46361  0.41375  Biso   1.000  C
  C11      1.0000 0.71090  0.52120  0.42682  Biso   1.000  C
  C12      1.0000 0.85022  0.58575  0.43777  Biso   1.000  C
  N2       1.0000 0.68984  0.52211  0.58233  Biso   1.000  N
  C13      1.0000 0.70796  0.62252  0.61647  Biso   1.000  C
  H5       1.0000 0.78196  0.62728  0.58321  Biso   1.000  H
  C14      1.0000 0.71087  0.73799  0.59583  Biso   1.000  C
  H6       1.0000 0.78268  0.74512  0.56140  Biso   1.000  H
  H7       1.0000 0.70479  0.73640  0.54940  Biso   1.000  H
  N3       1.0000 0.50926  0.45156  0.41957  Biso   1.000  N
  H8       1.0000 0.58431  0.44930  0.39470  Biso   1.000  H
  H9       1.0000 0.72018  0.50989  0.40719  Biso   1.000  H
  N4       1.0000 0.86930  0.57913  0.41169  Biso   1.000  N
  H10      1.0000 0.88868  0.60878  0.45250  Biso   1.000  H
  C15      1.0000 0.73015  0.49405  0.57472  Biso   1.000  C
  H11      1.0000 0.72990  0.60448  0.63201  Biso   1.000  H
  H12      1.0000 0.65252  0.59571  0.61929  Biso   1.000  H
  C16      1.0000 0.73980  0.70766  0.62025  Biso   1.000  C
  H13      1.0000 0.73520  0.79360  0.59780  Biso   1.000  H
  H14      1.0000 0.65558  0.71638  0.59820  Biso   1.000  H
  C17      1.0000 0.45154  0.41796  0.39631  Biso   1.000  C
  C18      1.0000 0.95036  0.61053  0.40661  Biso   1.000  C
  H15      1.0000 0.78248  0.52680  0.57101  Biso   1.000  H
  C19      1.0000 0.69806  0.41185  0.57139  Biso   1.000  C
  H16      1.0000 0.72467  0.71768  0.64000  Biso   1.000  H
  H17      1.0000 0.79568  0.73408  0.61949  Biso   1.000  H
  C20      1.0000 0.41734  0.46870  0.39098  Biso   1.000  C
  C21      1.0000 0.38945  0.33983  0.40661  Biso   1.000  C
  H18      1.0000 0.47487  0.41298  0.37740  Biso   1.000  H
  H19      1.0000 0.97831  0.63322  0.42570  Biso   1.000  H
  C22      1.0000 0.96638  0.54841  0.39631  Biso   1.000  C
  C23      1.0000 0.97723  0.67191  0.38257  Biso   1.000  C
  C24      1.0000 0.61883  0.36342  0.57139  Biso   1.000  C
  C25      1.0000 0.74458  0.38113  0.57139  Biso   1.000  C
  C26      1.0000 0.35283  0.43482  0.36828  Biso   1.000  C
  H20      1.0000 0.39811  0.47668  0.41019  Biso   1.000  H
  H21      1.0000 0.45728  0.51860  0.38371  Biso   1.000  H
  C27      1.0000 0.32806  0.30532  0.38257  Biso   1.000  C
  N5       1.0000 0.42086  0.29016  0.41169  Biso   1.000  N
  H22      1.0000 0.36680  0.34509  0.42570  Biso   1.000  H
  N6       1.0000 0.94231  0.49077  0.41957  Biso   1.000  N
  H23      1.0000 0.93812  0.52511  0.37740  Biso   1.000  H
  C28      1.0000 0.05135  0.58264  0.39098  Biso   1.000  C
  H24      1.0000 0.94972  0.64962  0.36370  Biso   1.000  H
  H25      1.0000 0.96590  0.71157  0.38890  Biso   1.000  H
  C29      1.0000 0.06229  0.70721  0.37724  Biso   1.000  C
  C30      1.0000 0.58815  0.28620  0.57139  Biso   1.000  C
  H26      1.0000 0.58650  0.38441  0.57139  Biso   1.000  H
  C31      1.0000 0.71380  0.30193  0.57139  Biso   1.000  C
  H27      1.0000 0.79790  0.41349  0.57139  Biso   1.000  H
  C32      1.0000 0.29278  0.35511  0.37724  Biso   1.000  C
  H28      1.0000 0.32957  0.46718  0.36690  Biso   1.000  H
  H29      1.0000 0.37319  0.43340  0.34829  Biso   1.000  H
  H30      1.0000 0.35039  0.30012  0.36370  Biso   1.000  H
  H31      1.0000 0.28838  0.25429  0.38890  Biso   1.000  H
  C33      1.0000 0.41424  0.26448  0.43777  Biso   1.000  C
  C34      1.0000 0.88878  0.42514  0.41375  Biso   1.000  C
  C35      1.0000 0.08201  0.64719  0.36828  Biso   1.000  C
  H32      1.0000 0.07861  0.60187  0.41019  Biso   1.000  H
  H33      1.0000 0.06132  0.54270  0.38371  Biso   1.000  H
  H34      1.0000 0.07829  0.74568  0.36119  Biso   1.000  H
  H35      1.0000 0.08997  0.73278  0.39571  Biso   1.000  H
  C36      1.0000 0.50597  0.23608  0.57472  Biso   1.000  C
  C37      1.0000 0.63656  0.25542  0.57139  Biso   1.000  C
  C38      1.0000 0.76390  0.26985  0.57472  Biso   1.000  C
  H36      1.0000 0.25429  0.33259  0.36119  Biso   1.000  H
  H37      1.0000 0.26718  0.35720  0.39571  Biso   1.000  H
  H38      1.0000 0.39120  0.27992  0.45250  Biso   1.000  H
  C39      1.0000 0.44039  0.21152  0.44670  Biso   1.000  C
  H39      1.0000 0.86499  0.41569  0.39470  Biso   1.000  H
  C40      1.0000 0.86184  0.36246  0.43553  Biso   1.000  C
  H40      1.0000 0.13760  0.67038  0.36690  Biso   1.000  H
  H41      1.0000 0.06019  0.62677  0.34829  Biso   1.000  H
  N7       1.0000 0.47787  0.16774  0.58233  Biso   1.000  N
  H42      1.0000 0.47321  0.25571  0.57101  Biso   1.000  H
  H43      1.0000 0.61556  0.20208  0.57139  Biso   1.000  H
  N8       1.0000 0.83225  0.31013  0.58233  Biso   1.000  N
  H44      1.0000 0.74430  0.21752  0.57101  Biso   1.000  H
  C41      1.0000 0.47883  0.18974  0.42682  Biso   1.000  C
  C42      1.0000 0.42384  0.18058  0.47529  Biso   1.000  C
  C43      1.0000 0.81026  0.28909  0.42682  Biso   1.000  C
  C44      1.0000 0.89104  0.37598  0.46463  Biso   1.000  C
  C45      1.0000 0.39595  0.12197  0.58556  Biso   1.000  C
  C46      1.0000 0.87806  0.27398  0.58556  Biso   1.000  C
  H45      1.0000 0.49008  0.21028  0.40719  Biso   1.000  H
  C47      1.0000 0.50061  0.13815  0.43553  Biso   1.000  C
  C48      1.0000 0.44613  0.12876  0.48451  Biso   1.000  C
  H46      1.0000 0.39710  0.19472  0.48881  Biso   1.000  H
  C49      1.0000 0.78849  0.22889  0.44670  Biso   1.000  C
  H47      1.0000 0.78970  0.27981  0.40719  Biso   1.000  H
  C50      1.0000 0.87124  0.31737  0.48451  Biso   1.000  C
  H48      1.0000 0.92506  0.42639  0.47079  Biso   1.000  H
  C51      1.0000 0.36661  0.06172  0.56104  Biso   1.000  C
  C52      1.0000 0.37743  0.08542  0.61647  Biso   1.000  C
  H49      1.0000 0.37269  0.15473  0.58321  Biso   1.000  H
  C53      1.0000 0.93831  0.30493  0.56104  Biso   1.000  C
  C54      1.0000 0.91457  0.29203  0.61647  Biso   1.000  C
  H50      1.0000 0.84526  0.21797  0.58321  Biso   1.000  H
  C55      1.0000 0.48493  0.10896  0.46463  Biso   1.000  C
  C56      1.0000 0.53638  0.11122  0.41375  Biso   1.000  C
  C57      1.0000 0.42697  0.09385  0.51451  Biso   1.000  C
  C58      1.0000 0.73550  0.14975  0.43777  Biso   1.000  C
  C59      1.0000 0.81939  0.24326  0.47529  Biso   1.000  C
  C60      1.0000 0.90610  0.33310  0.51451  Biso   1.000  C
  N9       1.0000 0.38112  0.09957  0.53199  Biso   1.000  N
  H51      1.0000 0.39340  0.03202  0.56219  Biso   1.000  H
  C61      1.0000 0.28149  0.00877  0.56472  Biso   1.000  C
  H52      1.0000 0.39552  0.12542  0.63201  Biso   1.000  H
  H53      1.0000 0.40428  0.05680  0.61929  Biso   1.000  H
  C62      1.0000 0.29234  0.03213  0.62025  Biso   1.000  C
  N10      1.0000 0.90042  0.28156  0.53199  Biso   1.000  N
  H54      1.0000 0.96796  0.36138  0.56219  Biso   1.000  H
  C63      1.0000 0.99125  0.27274  0.56472  Biso   1.000  C
  H55      1.0000 0.87459  0.27008  0.63201  Biso   1.000  H
  H56      1.0000 0.94320  0.34752  0.61929  Biso   1.000  H
  C64      1.0000 0.96787  0.26018  0.62025  Biso   1.000  C
  H57      1.0000 0.50132  0.07490  0.47079  Biso   1.000  H
  N11      1.0000 0.54847  0.05770  0.41957  Biso   1.000  N
  H58      1.0000 0.55066  0.13498  0.39470  Biso   1.000  H
  H59      1.0000 0.44998  0.06579  0.52100  Biso   1.000  H
  N12      1.0000 0.70980  0.13068  0.41169  Biso   1.000  N
  H60      1.0000 0.72008  0.11128  0.45250  Biso   1.000  H
  H61      1.0000 0.80529  0.20242  0.48881  Biso   1.000  H
  H62      1.0000 0.93419  0.38418  0.52100  Biso   1.000  H
  H63      1.0000 0.25491  0.03762  0.56140  Biso   1.000  H
  C65      1.0000 0.26204  0.97290  0.59583  Biso   1.000  C
  H64      1.0000 0.26358  0.96843  0.54940  Biso   1.000  H
  H65      1.0000 0.28233  0.00701  0.64000  Biso   1.000  H
  H66      1.0000 0.26592  0.06161  0.61949  Biso   1.000  H
  H67      1.0000 0.96240  0.21729  0.56140  Biso   1.000  H
  C66      1.0000 0.02713  0.28914  0.59583  Biso   1.000  C
  H68      1.0000 0.03158  0.29520  0.54940  Biso   1.000  H
  H69      1.0000 0.99296  0.27528  0.64000  Biso   1.000  H
  H70      1.0000 0.93841  0.20428  0.61949  Biso   1.000  H
  C67      1.0000 0.58204  0.03360  0.39631  Biso   1.000  C
  C68      1.0000 0.66015  0.04961  0.40661  Biso   1.000  C
  H71      1.0000 0.20642  0.94162  0.59780  Biso   1.000  H
  H72      1.0000 0.28367  0.93924  0.59820  Biso   1.000  H
  H73      1.0000 0.05843  0.26482  0.59780  Biso   1.000  H
  H74      1.0000 0.06080  0.34441  0.59820  Biso   1.000  H
  H75      1.0000 0.58697  0.06189  0.37740  Biso   1.000  H
  C69      1.0000 0.53127  0.94863  0.39098  Biso   1.000  C
  H76      1.0000 0.65493  0.02172  0.42570  Biso   1.000  H
  C70      1.0000 0.69463  0.02274  0.38257  Biso   1.000  C
  C71      1.0000 0.56521  0.91803  0.36828  Biso   1.000  C
  H77      1.0000 0.52330  0.92142  0.41019  Biso   1.000  H
  H78      1.0000 0.48139  0.93873  0.38371  Biso   1.000  H
  H79      1.0000 0.69988  0.05029  0.36370  Biso   1.000  H
  H80      1.0000 0.74568  0.03411  0.38890  Biso   1.000  H
  C72      1.0000 0.64491  0.93771  0.37724  Biso   1.000  C
  H81      1.0000 0.53284  0.86242  0.36690  Biso   1.000  H
  H82      1.0000 0.56664  0.93981  0.34829  Biso   1.000  H
  H83      1.0000 0.66738  0.92170  0.36119  Biso   1.000  H
  H84      1.0000 0.64281  0.90999  0.39571  Biso   1.000  H
  C73      1.0000 0.57301  0.66688  0.48549  Biso   1.000  C
  N13      1.0000 0.61882  0.71841  0.46801  Biso   1.000  N
  C74      1.0000 0.55391  0.68266  0.51547  Biso   1.000  C
  H85      1.0000 0.54997  0.61579  0.47900  Biso   1.000  H
  C75      1.0000 0.63335  0.69505  0.43896  Biso   1.000  C
  C76      1.0000 0.51507  0.62399  0.53537  Biso   1.000  C
  C77      1.0000 0.57614  0.75671  0.52471  Biso   1.000  C
  C78      1.0000 0.60404  0.72599  0.41442  Biso   1.000  C
  H86      1.0000 0.60659  0.63859  0.43779  Biso   1.000  H
  C79      1.0000 0.71851  0.72730  0.43528  Biso   1.000  C
  C80      1.0000 0.49940  0.63752  0.56445  Biso   1.000  C
  H87      1.0000 0.49869  0.57359  0.52919  Biso   1.000  H
  H88      1.0000 0.60291  0.79762  0.51119  Biso   1.000  H
  C81      1.0000 0.55964  0.77114  0.55328  Biso   1.000  C
  N14      1.0000 0.52208  0.68984  0.41767  Biso   1.000  N
  C82      1.0000 0.62251  0.70795  0.38353  Biso   1.000  C
  H89      1.0000 0.62729  0.78200  0.41679  Biso   1.000  H
  C83      1.0000 0.73803  0.71089  0.40417  Biso   1.000  C
  H90      1.0000 0.74507  0.78268  0.43860  Biso   1.000  H
  H91      1.0000 0.73640  0.70478  0.45060  Biso   1.000  H
  C84      1.0000 0.46360  0.57483  0.58625  Biso   1.000  C
  C85      1.0000 0.52119  0.71089  0.57318  Biso   1.000  C
  C86      1.0000 0.58571  0.85023  0.56221  Biso   1.000  C
  C87      1.0000 0.49401  0.73012  0.42528  Biso   1.000  C
  H92      1.0000 0.60448  0.72990  0.36799  Biso   1.000  H
  H93      1.0000 0.59572  0.65251  0.38071  Biso   1.000  H
  C88      1.0000 0.70766  0.73980  0.37975  Biso   1.000  C
  H94      1.0000 0.79360  0.73522  0.40220  Biso   1.000  H
  H95      1.0000 0.71642  0.65562  0.40180  Biso   1.000  H
  N15      1.0000 0.45151  0.50921  0.58043  Biso   1.000  N
  H96      1.0000 0.44931  0.58428  0.60530  Biso   1.000  H
  H97      1.0000 0.50990  0.72017  0.59279  Biso   1.000  H
  N16      1.0000 0.57913  0.86929  0.58831  Biso   1.000  N
  H98      1.0000 0.60882  0.88870  0.54750  Biso   1.000  H
  C89      1.0000 0.41183  0.69805  0.42861  Biso   1.000  C
  H99      1.0000 0.52682  0.78251  0.42899  Biso   1.000  H
  H100     1.0000 0.71769  0.72469  0.36000  Biso   1.000  H
  H101     1.0000 0.73409  0.79569  0.38051  Biso   1.000  H
  C90      1.0000 0.41798  0.45156  0.60367  Biso   1.000  C
  C91      1.0000 0.61050  0.95036  0.59337  Biso   1.000  C
  C92      1.0000 0.36341  0.61885  0.42861  Biso   1.000  C
  C93      1.0000 0.38114  0.74455  0.42861  Biso   1.000  C
  C94      1.0000 0.33984  0.38944  0.59337  Biso   1.000  C
  H102     1.0000 0.41298  0.47487  0.62260  Biso   1.000  H
  C95      1.0000 0.46867  0.41734  0.60902  Biso   1.000  C
  C96      1.0000 0.54842  0.96643  0.60367  Biso   1.000  C
  H103     1.0000 0.63319  0.97831  0.57430  Biso   1.000  H
  C97      1.0000 0.67190  0.97723  0.61743  Biso   1.000  C
  C98      1.0000 0.28622  0.58813  0.42861  Biso   1.000  C
  H104     1.0000 0.38437  0.58649  0.42859  Biso   1.000  H
  C99      1.0000 0.30192  0.71377  0.42861  Biso   1.000  C
  H105     1.0000 0.41350  0.79790  0.42859  Biso   1.000  H
  N17      1.0000 0.29016  0.42090  0.58831  Biso   1.000  N
  H106     1.0000 0.34509  0.36682  0.57430  Biso   1.000  H
  C100     1.0000 0.30533  0.32806  0.61743  Biso   1.000  C
  C101     1.0000 0.43481  0.35284  0.63172  Biso   1.000  C
  H107     1.0000 0.47669  0.39810  0.58979  Biso   1.000  H
  H108     1.0000 0.51858  0.45728  0.61629  Biso   1.000  H
  N18      1.0000 0.49076  0.94233  0.58043  Biso   1.000  N
  H109     1.0000 0.52509  0.93808  0.62260  Biso   1.000  H
  C102     1.0000 0.58265  0.05134  0.60902  Biso   1.000  C
  H110     1.0000 0.64960  0.94968  0.63630  Biso   1.000  H
  H111     1.0000 0.71161  0.96592  0.61110  Biso   1.000  H
  C103     1.0000 0.70721  0.06226  0.62276  Biso   1.000  C
  C104     1.0000 0.23609  0.50598  0.42528  Biso   1.000  C
  C105     1.0000 0.25542  0.63655  0.42861  Biso   1.000  C
  C106     1.0000 0.26985  0.76390  0.42528  Biso   1.000  C
  C107     1.0000 0.26448  0.41422  0.56221  Biso   1.000  C
  H112     1.0000 0.30009  0.35041  0.63630  Biso   1.000  H
  H113     1.0000 0.25429  0.28841  0.61110  Biso   1.000  H
  C108     1.0000 0.35512  0.29282  0.62276  Biso   1.000  C
  H114     1.0000 0.46718  0.32959  0.63310  Biso   1.000  H
  H115     1.0000 0.43338  0.37321  0.65171  Biso   1.000  H
  C109     1.0000 0.42512  0.88875  0.58625  Biso   1.000  C
  C110     1.0000 0.64714  0.08195  0.63172  Biso   1.000  C
  H116     1.0000 0.60189  0.07855  0.58979  Biso   1.000  H
  H117     1.0000 0.54265  0.06130  0.61629  Biso   1.000  H
  H118     1.0000 0.74564  0.07827  0.63879  Biso   1.000  H
  H119     1.0000 0.73278  0.08998  0.60429  Biso   1.000  H
  N19      1.0000 0.16775  0.47787  0.41767  Biso   1.000  N
  H120     1.0000 0.25569  0.47317  0.42899  Biso   1.000  H
  H121     1.0000 0.20213  0.61562  0.42859  Biso   1.000  H
  N20      1.0000 0.31015  0.83224  0.41767  Biso   1.000  N
  H122     1.0000 0.21746  0.74427  0.42899  Biso   1.000  H
  C111     1.0000 0.21151  0.44036  0.55328  Biso   1.000  C
  H123     1.0000 0.27992  0.39120  0.54750  Biso   1.000  H
  H124     1.0000 0.33258  0.25429  0.63879  Biso   1.000  H
  H125     1.0000 0.35720  0.26719  0.60429  Biso   1.000  H
  C112     1.0000 0.36242  0.86182  0.56445  Biso   1.000  C
  H126     1.0000 0.41569  0.86499  0.60530  Biso   1.000  H
  H127     1.0000 0.67039  0.13756  0.63310  Biso   1.000  H
  H128     1.0000 0.62680  0.06017  0.65171  Biso   1.000  H
  C113     1.0000 0.12194  0.39595  0.41442  Biso   1.000  C
  C114     1.0000 0.27402  0.87806  0.41442  Biso   1.000  C
  C115     1.0000 0.18056  0.42384  0.52471  Biso   1.000  C
  C116     1.0000 0.18974  0.47883  0.57318  Biso   1.000  C
  C117     1.0000 0.37599  0.89102  0.53537  Biso   1.000  C
  C118     1.0000 0.28908  0.81029  0.57318  Biso   1.000  C
  C119     1.0000 0.08545  0.37745  0.38353  Biso   1.000  C
  C120     1.0000 0.06169  0.36659  0.43896  Biso   1.000  C
  H129     1.0000 0.15470  0.37270  0.41679  Biso   1.000  H
  C121     1.0000 0.30493  0.93831  0.43896  Biso   1.000  C
  C122     1.0000 0.29202  0.91455  0.38353  Biso   1.000  C
  H130     1.0000 0.21801  0.84531  0.41679  Biso   1.000  H
  C123     1.0000 0.12875  0.44613  0.51547  Biso   1.000  C
  H131     1.0000 0.19467  0.39708  0.51119  Biso   1.000  H
  C124     1.0000 0.13816  0.50061  0.56445  Biso   1.000  C
  H132     1.0000 0.21031  0.49009  0.59279  Biso   1.000  H
  C125     1.0000 0.31734  0.87122  0.51547  Biso   1.000  C
  H133     1.0000 0.42638  0.92507  0.52919  Biso   1.000  H
  C126     1.0000 0.22890  0.78851  0.55328  Biso   1.000  C
  H134     1.0000 0.27981  0.78970  0.59279  Biso   1.000  H
  C127     1.0000 0.03210  0.29231  0.37975  Biso   1.000  C
  H135     1.0000 0.12539  0.39550  0.36799  Biso   1.000  H
  H136     1.0000 0.05680  0.40432  0.38071  Biso   1.000  H
  C128     1.0000 0.00876  0.28150  0.43528  Biso   1.000  C
  H137     1.0000 0.03199  0.39340  0.43779  Biso   1.000  H
  N21      1.0000 0.09958  0.38113  0.46801  Biso   1.000  N
  H138     1.0000 0.36142  0.96801  0.43779  Biso   1.000  H
  N22      1.0000 0.28157  0.90041  0.46801  Biso   1.000  N
  C129     1.0000 0.27268  0.99121  0.43528  Biso   1.000  C
  H139     1.0000 0.27009  0.87461  0.36799  Biso   1.000  H
  H140     1.0000 0.34749  0.94318  0.38071  Biso   1.000  H
  C130     1.0000 0.26020  0.96790  0.37975  Biso   1.000  C
  C131     1.0000 0.09383  0.42695  0.48549  Biso   1.000  C
  C132     1.0000 0.10896  0.48494  0.53537  Biso   1.000  C
  C133     1.0000 0.11121  0.53636  0.58625  Biso   1.000  C
  C134     1.0000 0.33313  0.90612  0.48549  Biso   1.000  C
  C135     1.0000 0.24327  0.81940  0.52471  Biso   1.000  C
  C136     1.0000 0.14973  0.73550  0.56221  Biso   1.000  C
  H141     1.0000 0.00700  0.28230  0.36000  Biso   1.000  H
  H142     1.0000 0.06161  0.26589  0.38051  Biso   1.000  H
  C137     1.0000 0.97284  0.26199  0.40417  Biso   1.000  C
  H143     1.0000 0.03760  0.25492  0.43860  Biso   1.000  H
  H144     1.0000 0.96839  0.26357  0.45060  Biso   1.000  H
  H145     1.0000 0.21733  0.96241  0.43860  Biso   1.000  H
  C138     1.0000 0.28908  0.02713  0.40417  Biso   1.000  C
  H146     1.0000 0.29518  0.03160  0.45060  Biso   1.000  H
  H147     1.0000 0.27530  0.99302  0.36000  Biso   1.000  H
  H148     1.0000 0.20428  0.93837  0.38051  Biso   1.000  H
  H149     1.0000 0.06581  0.44998  0.47900  Biso   1.000  H
  H150     1.0000 0.07491  0.50129  0.52919  Biso   1.000  H
  N23      1.0000 0.05769  0.54847  0.58043  Biso   1.000  N
  H151     1.0000 0.13497  0.55068  0.60530  Biso   1.000  H
  H152     1.0000 0.38419  0.93418  0.47900  Biso   1.000  H
  H153     1.0000 0.20242  0.80531  0.51119  Biso   1.000  H
  N24      1.0000 0.13071  0.70981  0.58831  Biso   1.000  N
  H154     1.0000 0.11132  0.72011  0.54750  Biso   1.000  H
  H155     1.0000 0.94156  0.20638  0.40220  Biso   1.000  H
  H156     1.0000 0.93921  0.28360  0.40180  Biso   1.000  H
  H157     1.0000 0.26481  0.05836  0.40220  Biso   1.000  H
  H158     1.0000 0.34442  0.06079  0.40180  Biso   1.000  H
  C139     1.0000 0.03360  0.58202  0.60367  Biso   1.000  C
  C140     1.0000 0.04964  0.66014  0.59337  Biso   1.000  C
  H159     1.0000 0.06191  0.58700  0.62260  Biso   1.000  H
  C141     1.0000 0.94863  0.53133  0.60902  Biso   1.000  C
  H160     1.0000 0.02167  0.65488  0.57430  Biso   1.000  H
  C142     1.0000 0.02275  0.69465  0.61743  Biso   1.000  C
  C143     1.0000 0.91800  0.56522  0.63172  Biso   1.000  C
  H161     1.0000 0.92139  0.52330  0.58979  Biso   1.000  H
  H162     1.0000 0.93869  0.48138  0.61629  Biso   1.000  H
  H163     1.0000 0.05031  0.69991  0.63630  Biso   1.000  H
  H164     1.0000 0.03410  0.74568  0.61110  Biso   1.000  H
  C144     1.0000 0.93769  0.64487  0.62276  Biso   1.000  C
  H165     1.0000 0.86240  0.53280  0.63310  Biso   1.000  H
  H166     1.0000 0.93980  0.56657  0.65171  Biso   1.000  H
  H167     1.0000 0.92171  0.66739  0.63879  Biso   1.000  H
  H168     1.0000 0.90999  0.64278  0.60429  Biso   1.000  H
  C145     1.0000 0.69879  0.62563  0.71306  Biso   1.000  C
  C146     1.0000 0.75209  0.71078  0.71685  Biso   1.000  C
  H169     1.0000 0.67364  0.61562  0.69332  Biso   1.000  H
  H170     1.0000 0.72825  0.59922  0.71383  Biso   1.000  H
  C147     1.0000 0.63953  0.59531  0.73749  Biso   1.000  C
  H171     1.0000 0.79207  0.72882  0.70133  Biso   1.000  H
  H172     1.0000 0.72349  0.73765  0.71403  Biso   1.000  H
  C148     1.0000 0.78862  0.72928  0.74776  Biso   1.000  C
  H173     1.0000 0.60825  0.53970  0.73554  Biso   1.000  H
  H174     1.0000 0.60585  0.61692  0.73514  Biso   1.000  H
  C149     1.0000 0.67545  0.61483  0.76860  Biso   1.000  C
  C150     1.0000 0.72836  0.69997  0.77230  Biso   1.000  C
  N25      1.0000 0.83438  0.81119  0.75101  Biso   1.000  N
  H175     1.0000 0.82134  0.70602  0.75013  Biso   1.000  H
  H176     1.0000 0.70424  0.58824  0.77194  Biso   1.000  H
  H177     1.0000 0.63506  0.59695  0.78394  Biso   1.000  H
  H178     1.0000 0.69867  0.72673  0.77113  Biso   1.000  H
  N26      1.0000 0.76625  0.71451  0.80135  Biso   1.000  N
  C151     1.0000 0.90278  0.83931  0.75862  Biso   1.000  C
  C152     1.0000 0.76055  0.76033  0.81881  Biso   1.000  C
  H179     1.0000 0.92236  0.80655  0.76233  Biso   1.000  H
  C153     1.0000 0.95286  0.92145  0.76193  Biso   1.000  C
  C154     1.0000 0.79544  0.77946  0.84881  Biso   1.000  C
  H180     1.0000 0.73245  0.78330  0.81232  Biso   1.000  H
  C155     1.0000 0.92206  0.96988  0.76193  Biso   1.000  C
  C156     1.0000 0.03010  0.95217  0.76193  Biso   1.000  C
  C157     1.0000 0.77560  0.81826  0.86871  Biso   1.000  C
  C158     1.0000 0.84725  0.75717  0.85803  Biso   1.000  C
  H181     1.0000 0.86877  0.94895  0.76193  Biso   1.000  H
  C159     1.0000 0.96860  0.04710  0.76193  Biso   1.000  C
  H182     1.0000 0.05106  0.91981  0.76193  Biso   1.000  H
  C160     1.0000 0.07852  0.03137  0.76193  Biso   1.000  C
  H183     1.0000 0.74154  0.83461  0.86253  Biso   1.000  H
  C161     1.0000 0.80480  0.83393  0.89779  Biso   1.000  C
  H184     1.0000 0.86136  0.73041  0.84453  Biso   1.000  H
  C162     1.0000 0.87815  0.77369  0.88662  Biso   1.000  C
  C163     1.0000 0.93654  0.09722  0.75862  Biso   1.000  C
  C164     1.0000 0.04778  0.07788  0.76193  Biso   1.000  C
  C165     1.0000 0.16070  0.06345  0.75862  Biso   1.000  C
  C166     1.0000 0.85637  0.81215  0.90652  Biso   1.000  C
  C167     1.0000 0.77789  0.86969  0.91957  Biso   1.000  C
  C168     1.0000 0.93112  0.74755  0.89555  Biso   1.000  C
  N27      1.0000 0.97674  0.16556  0.75101  Biso   1.000  N
  H185     1.0000 0.88410  0.07759  0.76233  Biso   1.000  H
  H186     1.0000 0.08014  0.13122  0.76193  Biso   1.000  H
  N28      1.0000 0.18877  0.02317  0.75101  Biso   1.000  N
  H187     1.0000 0.19351  0.11584  0.76233  Biso   1.000  H
  H188     1.0000 0.87695  0.82341  0.92613  Biso   1.000  H
  N29      1.0000 0.72437  0.88179  0.91375  Biso   1.000  N
  H189     1.0000 0.80166  0.88400  0.93862  Biso   1.000  H
  N30      1.0000 0.95685  0.75422  0.92163  Biso   1.000  N
  H190     1.0000 0.94655  0.72452  0.88082  Biso   1.000  H
  C169     1.0000 0.94063  0.21133  0.74776  Biso   1.000  C
  C170     1.0000 0.27073  0.05932  0.74776  Biso   1.000  C
  C171     1.0000 0.70024  0.91534  0.93701  Biso   1.000  C
  C172     1.0000 0.00648  0.72277  0.92671  Biso   1.000  C
  C173     1.0000 0.97159  0.27158  0.77230  Biso   1.000  C
  C174     1.0000 0.95866  0.24788  0.71685  Biso   1.000  C
  H191     1.0000 0.88470  0.17863  0.75013  Biso   1.000  H
  C175     1.0000 0.30004  0.02837  0.77230  Biso   1.000  C
  C176     1.0000 0.28919  0.04127  0.71685  Biso   1.000  C
  H192     1.0000 0.29393  0.11533  0.75013  Biso   1.000  H
  C177     1.0000 0.71627  0.99347  0.92671  Biso   1.000  C
  H193     1.0000 0.72855  0.92032  0.95592  Biso   1.000  H
  C178     1.0000 0.61532  0.86465  0.94236  Biso   1.000  C
  C179     1.0000 0.97197  0.66139  0.95077  Biso   1.000  C
  H194     1.0000 0.01177  0.70014  0.90764  Biso   1.000  H
  C180     1.0000 0.08462  0.78489  0.93701  Biso   1.000  C
  N31      1.0000 0.94821  0.23373  0.80135  Biso   1.000  N
  C181     1.0000 0.93932  0.32453  0.76860  Biso   1.000  C
  H195     1.0000 0.02808  0.30128  0.77113  Biso   1.000  H
  H196     1.0000 0.93675  0.20788  0.70133  Biso   1.000  H
  C182     1.0000 0.92681  0.30117  0.71306  Biso   1.000  C
  H197     1.0000 0.01418  0.27650  0.71403  Biso   1.000  H
  H198     1.0000 0.27328  0.97191  0.77113  Biso   1.000  H
  N32      1.0000 0.28551  0.05174  0.80135  Biso   1.000  N
  C183     1.0000 0.38512  0.06056  0.76860  Biso   1.000  C
  H199     1.0000 0.26235  0.98583  0.71403  Biso   1.000  H
  H200     1.0000 0.27116  0.06322  0.70133  Biso   1.000  H
  C184     1.0000 0.37430  0.07312  0.71306  Biso   1.000  C
  H201     1.0000 0.68836  0.98821  0.90764  Biso   1.000  H
  N33      1.0000 0.79740  0.04314  0.92163  Biso   1.000  N
  C185     1.0000 0.68938  0.02798  0.95077  Biso   1.000  C
  C186     1.0000 0.58469  0.89854  0.96506  Biso   1.000  C
  H202     1.0000 0.58808  0.85662  0.92313  Biso   1.000  H
  H203     1.0000 0.60533  0.81470  0.94963  Biso   1.000  H
  H204     1.0000 0.96678  0.68373  0.96962  Biso   1.000  H
  H205     1.0000 0.92098  0.62173  0.94444  Biso   1.000  H
  C187     1.0000 0.02176  0.62614  0.95608  Biso   1.000  C
  N34      1.0000 0.11822  0.84259  0.91375  Biso   1.000  N
  H206     1.0000 0.07969  0.80825  0.95592  Biso   1.000  H
  C188     1.0000 0.13536  0.75066  0.94236  Biso   1.000  C
  C189     1.0000 0.99981  0.23945  0.81881  Biso   1.000  C
  C190     1.0000 0.95581  0.36045  0.73749  Biso   1.000  C
  H207     1.0000 0.88394  0.29568  0.77194  Biso   1.000  H
  H208     1.0000 0.96182  0.36492  0.78394  Biso   1.000  H
  H209     1.0000 0.94196  0.32628  0.69332  Biso   1.000  H
  H210     1.0000 0.87092  0.27169  0.71383  Biso   1.000  H
  C191     1.0000 0.23965  0.00020  0.81881  Biso   1.000  C
  C192     1.0000 0.40472  0.04421  0.73749  Biso   1.000  C
  H211     1.0000 0.41171  0.11600  0.77194  Biso   1.000  H
  H212     1.0000 0.40309  0.03810  0.78394  Biso   1.000  H
  H213     1.0000 0.38438  0.05802  0.69332  Biso   1.000  H
  H214     1.0000 0.40077  0.12902  0.71383  Biso   1.000  H
  C193     1.0000 0.81637  0.06882  0.89555  Biso   1.000  C
  C194     1.0000 0.60436  0.97825  0.95608  Biso   1.000  C
  H215     1.0000 0.71697  0.03318  0.96962  Biso   1.000  H
  H216     1.0000 0.70079  0.07901  0.94444  Biso   1.000  H
  H217     1.0000 0.52904  0.86612  0.96642  Biso   1.000  H
  H218     1.0000 0.60643  0.89990  0.98502  Biso   1.000  H
  H219     1.0000 0.99926  0.58762  0.97213  Biso   1.000  H
  C195     1.0000 0.10150  0.68617  0.96506  Biso   1.000  C
  H220     1.0000 0.02384  0.60052  0.93763  Biso   1.000  H
  C196     1.0000 0.13028  0.90816  0.91957  Biso   1.000  C
  H221     1.0000 0.14338  0.73143  0.92313  Biso   1.000  H
  H222     1.0000 0.18527  0.79060  0.94963  Biso   1.000  H
  C197     1.0000 0.98403  0.20454  0.84881  Biso   1.000  C
  H223     1.0000 0.05088  0.26751  0.81232  Biso   1.000  H
  H224     1.0000 0.93145  0.39168  0.73554  Biso   1.000  H
  H225     1.0000 0.01110  0.39412  0.73514  Biso   1.000  H
  H226     1.0000 0.21666  0.94912  0.81232  Biso   1.000  H
  C198     1.0000 0.22052  0.01593  0.84881  Biso   1.000  C
  H227     1.0000 0.38306  0.98894  0.73514  Biso   1.000  H
  H228     1.0000 0.46026  0.06848  0.73554  Biso   1.000  H
  H229     1.0000 0.77795  0.05344  0.88082  Biso   1.000  H
  C199     1.0000 0.89554  0.12183  0.88662  Biso   1.000  C
  H230     1.0000 0.57663  0.97610  0.93763  Biso   1.000  H
  H231     1.0000 0.58835  0.00071  0.97213  Biso   1.000  H
  H232     1.0000 0.13387  0.66292  0.96642  Biso   1.000  H
  H233     1.0000 0.10007  0.70653  0.98502  Biso   1.000  H
  H234     1.0000 0.11595  0.91761  0.93862  Biso   1.000  H
  C200     1.0000 0.16603  0.97084  0.89779  Biso   1.000  C
  C201     1.0000 0.90991  0.15272  0.85803  Biso   1.000  C
  C202     1.0000 0.04267  0.22434  0.86871  Biso   1.000  C
  C203     1.0000 0.18171  0.95732  0.86871  Biso   1.000  C
  C204     1.0000 0.24278  0.09004  0.85803  Biso   1.000  C
  C205     1.0000 0.95577  0.14361  0.90652  Biso   1.000  C
  C206     1.0000 0.18783  0.04421  0.90652  Biso   1.000  C
  H235     1.0000 0.86911  0.13863  0.84453  Biso   1.000  H
  H236     1.0000 0.09302  0.25840  0.86253  Biso   1.000  H
  C207     1.0000 0.02906  0.19515  0.89779  Biso   1.000  C
  H237     1.0000 0.16538  0.90691  0.86253  Biso   1.000  H
  H238     1.0000 0.26952  0.13088  0.84453  Biso   1.000  H
  C208     1.0000 0.22625  0.10441  0.88662  Biso   1.000  C
  H239     1.0000 0.94645  0.12302  0.92613  Biso   1.000  H
  H240     1.0000 0.17659  0.05349  0.92613  Biso   1.000  H
  C209     1.0000 0.09176  0.22208  0.91957  Biso   1.000  C
  C210     1.0000 0.25235  0.18355  0.89555  Biso   1.000  C
  N35      1.0000 0.15737  0.27560  0.91375  Biso   1.000  N
  H241     1.0000 0.08238  0.19832  0.93862  Biso   1.000  H
  N36      1.0000 0.24581  0.20262  0.92163  Biso   1.000  N
  H242     1.0000 0.27546  0.22202  0.88082  Biso   1.000  H
  C211     1.0000 0.21508  0.29970  0.93701  Biso   1.000  C
  C212     1.0000 0.27714  0.28369  0.92671  Biso   1.000  C
  H243     1.0000 0.19178  0.27141  0.95592  Biso   1.000  H
  C213     1.0000 0.24929  0.38467  0.94236  Biso   1.000  C
  H244     1.0000 0.29988  0.31163  0.90764  Biso   1.000  H
  C214     1.0000 0.33859  0.31056  0.95077  Biso   1.000  C
  C215     1.0000 0.31383  0.41527  0.96506  Biso   1.000  C
  H245     1.0000 0.26853  0.41188  0.92313  Biso   1.000  H
  H246     1.0000 0.20934  0.39462  0.94963  Biso   1.000  H
  H247     1.0000 0.31629  0.28301  0.96962  Biso   1.000  H
  H248     1.0000 0.37827  0.29919  0.94444  Biso   1.000  H
  C216     1.0000 0.37385  0.39559  0.95608  Biso   1.000  C
  H249     1.0000 0.33708  0.47088  0.96642  Biso   1.000  H
  H250     1.0000 0.29348  0.39349  0.98502  Biso   1.000  H
  H251     1.0000 0.41233  0.41160  0.97213  Biso   1.000  H
  H252     1.0000 0.39947  0.42331  0.93763  Biso   1.000  H
  C217     1.0000 0.62566  0.69878  0.28694  Biso   1.000  C
  C218     1.0000 0.59531  0.63955  0.26251  Biso   1.000  C
  C219     1.0000 0.71079  0.75213  0.28315  Biso   1.000  C
  H253     1.0000 0.61565  0.67366  0.30666  Biso   1.000  H
  H254     1.0000 0.59925  0.72826  0.28617  Biso   1.000  H
  H255     1.0000 0.53974  0.60827  0.26446  Biso   1.000  H
  H256     1.0000 0.61691  0.60583  0.26486  Biso   1.000  H
  C220     1.0000 0.61481  0.67542  0.23138  Biso   1.000  C
  H257     1.0000 0.72885  0.79207  0.29867  Biso   1.000  H
  H258     1.0000 0.73760  0.72345  0.28597  Biso   1.000  H
  C221     1.0000 0.72928  0.78862  0.25224  Biso   1.000  C
  C222     1.0000 0.69994  0.72837  0.22770  Biso   1.000  C
  H259     1.0000 0.58823  0.70427  0.22806  Biso   1.000  H
  H260     1.0000 0.59695  0.63508  0.21606  Biso   1.000  H
  N37      1.0000 0.81123  0.83444  0.24899  Biso   1.000  N
  H261     1.0000 0.70602  0.82138  0.24987  Biso   1.000  H
  H262     1.0000 0.72673  0.69867  0.22887  Biso   1.000  H
  N38      1.0000 0.71448  0.76627  0.19865  Biso   1.000  N
  C223     1.0000 0.83932  0.90278  0.24138  Biso   1.000  C
  C224     1.0000 0.76029  0.76050  0.18116  Biso   1.000  C
  H263     1.0000 0.80653  0.92236  0.23767  Biso   1.000  H
  C225     1.0000 0.92148  0.95285  0.23805  Biso   1.000  C
  C226     1.0000 0.77946  0.79541  0.15119  Biso   1.000  C
  H264     1.0000 0.78330  0.73244  0.18766  Biso   1.000  H
  C227     1.0000 0.96988  0.92207  0.23805  Biso   1.000  C
  C228     1.0000 0.95215  0.03007  0.23805  Biso   1.000  C
  C229     1.0000 0.81826  0.77561  0.13129  Biso   1.000  C
  C230     1.0000 0.75716  0.84723  0.14195  Biso   1.000  C
  H265     1.0000 0.94892  0.86878  0.23807  Biso   1.000  H
  C231     1.0000 0.04712  0.96858  0.23805  Biso   1.000  C
  H266     1.0000 0.91978  0.05106  0.23807  Biso   1.000  H
  C232     1.0000 0.03143  0.07850  0.23805  Biso   1.000  C
  H267     1.0000 0.83464  0.74155  0.13747  Biso   1.000  H
  C233     1.0000 0.83393  0.80480  0.10221  Biso   1.000  C
  H268     1.0000 0.73043  0.86137  0.15547  Biso   1.000  H
  C234     1.0000 0.77371  0.87817  0.11338  Biso   1.000  C
  C235     1.0000 0.09722  0.93650  0.24138  Biso   1.000  C
  C236     1.0000 0.07786  0.04778  0.23805  Biso   1.000  C
  C237     1.0000 0.06347  0.16070  0.24138  Biso   1.000  C
  C238     1.0000 0.81216  0.85639  0.09348  Biso   1.000  C
  C239     1.0000 0.86971  0.77787  0.08041  Biso   1.000  C
  C240     1.0000 0.74760  0.93118  0.10445  Biso   1.000  C
  N39      1.0000 0.16557  0.97678  0.24899  Biso   1.000  N
  H269     1.0000 0.07763  0.88417  0.23767  Biso   1.000  H
  H270     1.0000 0.13122  0.08014  0.23807  Biso   1.000  H
  N40      1.0000 0.02317  0.18876  0.24899  Biso   1.000  N
  H271     1.0000 0.11581  0.19345  0.23767  Biso   1.000  H
  H272     1.0000 0.82343  0.87699  0.07387  Biso   1.000  H
  N41      1.0000 0.88180  0.72435  0.08623  Biso   1.000  N
  H273     1.0000 0.88399  0.80163  0.06136  Biso   1.000  H
  N42      1.0000 0.75419  0.95681  0.07835  Biso   1.000  N
  H274     1.0000 0.72452  0.94657  0.11916  Biso   1.000  H
  C241     1.0000 0.21139  0.94063  0.25224  Biso   1.000  C
  C242     1.0000 0.05928  0.27067  0.25224  Biso   1.000  C
  C243     1.0000 0.91536  0.70025  0.06299  Biso   1.000  C
  C244     1.0000 0.72278  0.00648  0.07329  Biso   1.000  C
  C245     1.0000 0.27164  0.97158  0.22770  Biso   1.000  C
  C246     1.0000 0.24789  0.95868  0.28315  Biso   1.000  C
  H275     1.0000 0.17866  0.88468  0.24987  Biso   1.000  H
  C247     1.0000 0.02839  0.30004  0.22770  Biso   1.000  C
  C248     1.0000 0.04133  0.28917  0.28315  Biso   1.000  C
  H276     1.0000 0.11529  0.29393  0.24987  Biso   1.000  H
  C249     1.0000 0.99348  0.71626  0.07329  Biso   1.000  C
  H277     1.0000 0.92029  0.72854  0.04408  Biso   1.000  H
  C250     1.0000 0.86464  0.61528  0.05764  Biso   1.000  C
  C251     1.0000 0.66138  0.97197  0.04923  Biso   1.000  C
  H278     1.0000 0.70013  0.01174  0.09236  Biso   1.000  H
  C252     1.0000 0.78492  0.08461  0.06299  Biso   1.000  C
  N43      1.0000 0.23374  0.94821  0.19865  Biso   1.000  N
  C253     1.0000 0.32458  0.93939  0.23138  Biso   1.000  C
  H279     1.0000 0.30134  0.02803  0.22887  Biso   1.000  H
  H280     1.0000 0.20794  0.93678  0.29867  Biso   1.000  H
  C254     1.0000 0.30123  0.92688  0.28694  Biso   1.000  C
  H281     1.0000 0.27655  0.01412  0.28597  Biso   1.000  H
  H282     1.0000 0.97187  0.27322  0.22887  Biso   1.000  H
  N44      1.0000 0.05174  0.28550  0.19865  Biso   1.000  N
  C255     1.0000 0.06058  0.38518  0.23138  Biso   1.000  C
  H283     1.0000 0.98584  0.26236  0.28597  Biso   1.000  H
  H284     1.0000 0.06322  0.27113  0.29867  Biso   1.000  H
  C256     1.0000 0.07313  0.37431  0.28694  Biso   1.000  C
  H285     1.0000 0.98825  0.68837  0.09236  Biso   1.000  H
  N45      1.0000 0.04315  0.79739  0.07835  Biso   1.000  N
  C257     1.0000 0.02800  0.68939  0.04923  Biso   1.000  C
  C258     1.0000 0.89853  0.58468  0.03494  Biso   1.000  C
  H286     1.0000 0.85662  0.58807  0.07687  Biso   1.000  H
  H287     1.0000 0.81472  0.60538  0.05037  Biso   1.000  H
  H288     1.0000 0.68372  0.96677  0.03038  Biso   1.000  H
  H289     1.0000 0.62171  0.92094  0.05556  Biso   1.000  H
  C259     1.0000 0.62616  0.02176  0.04390  Biso   1.000  C
  N46      1.0000 0.84253  0.11821  0.08623  Biso   1.000  N
  H290     1.0000 0.80825  0.07963  0.04408  Biso   1.000  H
  C260     1.0000 0.75067  0.13535  0.05764  Biso   1.000  C
  C261     1.0000 0.23950  0.99981  0.18116  Biso   1.000  C
  C262     1.0000 0.36046  0.95579  0.26251  Biso   1.000  C
  H291     1.0000 0.29573  0.88394  0.22806  Biso   1.000  H
  H292     1.0000 0.36491  0.96185  0.21606  Biso   1.000  H
  H293     1.0000 0.32634  0.94193  0.30666  Biso   1.000  H
  H294     1.0000 0.27173  0.87093  0.28617  Biso   1.000  H
  C263     1.0000 0.00017  0.23967  0.18116  Biso   1.000  C
  C264     1.0000 0.04424  0.40464  0.26251  Biso   1.000  C
  H295     1.0000 0.11598  0.41171  0.22806  Biso   1.000  H
  H296     1.0000 0.03811  0.40305  0.21606  Biso   1.000  H
  H297     1.0000 0.05805  0.38433  0.30666  Biso   1.000  H
  H298     1.0000 0.12901  0.40073  0.28617  Biso   1.000  H
  C265     1.0000 0.06882  0.81640  0.10445  Biso   1.000  C
  C266     1.0000 0.97824  0.60436  0.04390  Biso   1.000  C
  H299     1.0000 0.03321  0.71694  0.03038  Biso   1.000  H
  H300     1.0000 0.07906  0.70076  0.05556  Biso   1.000  H
  H301     1.0000 0.86612  0.52907  0.03356  Biso   1.000  H
  H302     1.0000 0.89992  0.60646  0.01498  Biso   1.000  H
  H303     1.0000 0.58761  0.99924  0.02787  Biso   1.000  H
  C267     1.0000 0.68615  0.10147  0.03494  Biso   1.000  C
  H304     1.0000 0.60050  0.02385  0.06237  Biso   1.000  H
  C268     1.0000 0.90818  0.13026  0.08041  Biso   1.000  C
  H305     1.0000 0.73138  0.14333  0.07687  Biso   1.000  H
  H306     1.0000 0.79066  0.18525  0.05037  Biso   1.000  H
  C269     1.0000 0.20457  0.98402  0.15119  Biso   1.000  C
  H307     1.0000 0.26747  0.05083  0.18766  Biso   1.000  H
  H308     1.0000 0.39175  0.93147  0.26446  Biso   1.000  H
  H309     1.0000 0.39412  0.01106  0.26486  Biso   1.000  H
  H310     1.0000 0.94907  0.21665  0.18766  Biso   1.000  H
  C270     1.0000 0.01594  0.22055  0.15119  Biso   1.000  C
  H311     1.0000 0.98895  0.38303  0.26486  Biso   1.000  H
  H312     1.0000 0.06852  0.46025  0.26446  Biso   1.000  H
  H313     1.0000 0.05344  0.77798  0.11916  Biso   1.000  H
  C271     1.0000 0.12182  0.89554  0.11338  Biso   1.000  C
  H314     1.0000 0.97614  0.57664  0.06237  Biso   1.000  H
  H315     1.0000 0.00071  0.58835  0.02787  Biso   1.000  H
  H316     1.0000 0.66294  0.13383  0.03356  Biso   1.000  H
  H317     1.0000 0.70656  0.10005  0.01498  Biso   1.000  H
  H318     1.0000 0.91758  0.11595  0.06136  Biso   1.000  H
  C272     1.0000 0.97089  0.16602  0.10221  Biso   1.000  C
  C273     1.0000 0.15277  0.90991  0.14195  Biso   1.000  C
  C274     1.0000 0.22442  0.04263  0.13129  Biso   1.000  C
  C275     1.0000 0.95736  0.18169  0.13129  Biso   1.000  C
  C276     1.0000 0.09006  0.24278  0.14195  Biso   1.000  C
  C277     1.0000 0.14359  0.95574  0.09348  Biso   1.000  C
  C278     1.0000 0.04422  0.18785  0.09348  Biso   1.000  C
  H319     1.0000 0.13861  0.86907  0.15547  Biso   1.000  H
  C279     1.0000 0.19522  0.02911  0.10221  Biso   1.000  C
  H320     1.0000 0.25839  0.09304  0.13747  Biso   1.000  H
  H321     1.0000 0.90695  0.16534  0.13747  Biso   1.000  H
  C280     1.0000 0.10444  0.22626  0.11338  Biso   1.000  C
  H322     1.0000 0.13093  0.26954  0.15547  Biso   1.000  H
  H323     1.0000 0.12303  0.94646  0.07387  Biso   1.000  H
  H324     1.0000 0.05351  0.17654  0.07387  Biso   1.000  H
  C281     1.0000 0.22210  0.09179  0.08041  Biso   1.000  C
  C282     1.0000 0.18360  0.25240  0.10445  Biso   1.000  C
  N47      1.0000 0.27564  0.15742  0.08623  Biso   1.000  N
  H325     1.0000 0.19837  0.08234  0.06136  Biso   1.000  H
  N48      1.0000 0.20255  0.24573  0.07835  Biso   1.000  N
  H326     1.0000 0.22205  0.27543  0.11916  Biso   1.000  H
  C283     1.0000 0.29976  0.21506  0.06299  Biso   1.000  C
  C284     1.0000 0.28373  0.27718  0.07329  Biso   1.000  C
  H327     1.0000 0.27144  0.19176  0.04408  Biso   1.000  H
  C285     1.0000 0.38463  0.24929  0.05764  Biso   1.000  C
  H328     1.0000 0.31159  0.29987  0.09236  Biso   1.000  H
  C286     1.0000 0.31055  0.33856  0.04923  Biso   1.000  C
  C287     1.0000 0.41529  0.31384  0.03494  Biso   1.000  C
  H329     1.0000 0.41193  0.26852  0.07687  Biso   1.000  H
  H330     1.0000 0.39459  0.20935  0.05037  Biso   1.000  H
  H331     1.0000 0.28302  0.31621  0.03038  Biso   1.000  H
  H332     1.0000 0.29922  0.37822  0.05556  Biso   1.000  H
  C288     1.0000 0.39567  0.37386  0.04390  Biso   1.000  C
  H333     1.0000 0.47093  0.33703  0.03356  Biso   1.000  H
  H334     1.0000 0.39346  0.29342  0.01498  Biso   1.000  H
  H335     1.0000 0.41162  0.41233  0.02787  Biso   1.000  H
  H336     1.0000 0.42335  0.39943  0.06237  Biso   1.000  H
  C289     1.0000 0.98050  0.74862  0.29837  Biso   1.000  C
  C290     1.0000 0.91601  0.71802  0.27568  Biso   1.000  C
  C291     1.0000 0.04053  0.72894  0.28942  Biso   1.000  C
  H337     1.0000 0.96011  0.72684  0.31836  Biso   1.000  H
  H338     1.0000 0.00370  0.80423  0.29976  Biso   1.000  H
  C292     1.0000 0.88176  0.63305  0.27035  Biso   1.000  C
  H339     1.0000 0.93523  0.74529  0.25647  Biso   1.000  H
  H340     1.0000 0.87602  0.72797  0.28297  Biso   1.000  H
  C293     1.0000 0.00526  0.64391  0.28412  Biso   1.000  C
  H341     1.0000 0.07900  0.74495  0.30547  Biso   1.000  H
  H342     1.0000 0.06614  0.75666  0.27098  Biso   1.000  H
  N49      1.0000 0.82409  0.60895  0.24709  Biso   1.000  N
  C294     1.0000 0.94386  0.61704  0.26005  Biso   1.000  C
  H343     1.0000 0.85840  0.60476  0.28926  Biso   1.000  H
  H344     1.0000 0.98291  0.61636  0.30296  Biso   1.000  H
  H345     1.0000 0.04494  0.63254  0.27776  Biso   1.000  H
  C295     1.0000 0.75848  0.55543  0.25291  Biso   1.000  C
  N50      1.0000 0.91244  0.53597  0.25497  Biso   1.000  N
  H346     1.0000 0.96656  0.64498  0.24096  Biso   1.000  H
  C296     1.0000 0.69578  0.52850  0.23113  Biso   1.000  C
  H347     1.0000 0.74900  0.53167  0.27196  Biso   1.000  H
  C297     1.0000 0.91908  0.51690  0.22889  Biso   1.000  C
  C298     1.0000 0.62244  0.47696  0.23984  Biso   1.000  C
  C299     1.0000 0.70930  0.55769  0.20203  Biso   1.000  C
  H348     1.0000 0.94213  0.55537  0.21416  Biso   1.000  H
  C300     1.0000 0.89293  0.43776  0.21996  Biso   1.000  C
  C301     1.0000 0.56221  0.45518  0.21996  Biso   1.000  C
  H349     1.0000 0.61312  0.45637  0.25947  Biso   1.000  H
  C302     1.0000 0.65070  0.53789  0.18215  Biso   1.000  C
  H350     1.0000 0.75974  0.59175  0.19587  Biso   1.000  H
  C303     1.0000 0.85450  0.37756  0.23984  Biso   1.000  C
  C304     1.0000 0.90946  0.42339  0.19137  Biso   1.000  C
  C305     1.0000 0.48309  0.40217  0.22889  Biso   1.000  C
  C306     1.0000 0.57658  0.48607  0.19137  Biso   1.000  C
  C307     1.0000 0.66644  0.57280  0.15215  Biso   1.000  C
  C308     1.0000 0.83271  0.30419  0.23113  Biso   1.000  C
  H351     1.0000 0.84322  0.38684  0.25947  Biso   1.000  H
  C309     1.0000 0.88720  0.34928  0.18215  Biso   1.000  C
  H352     1.0000 0.93623  0.46429  0.17787  Biso   1.000  H
  N51      1.0000 0.46403  0.37649  0.25497  Biso   1.000  N
  H353     1.0000 0.44463  0.38679  0.21416  Biso   1.000  H
  H354     1.0000 0.53573  0.47198  0.17787  Biso   1.000  H
  N52      1.0000 0.61488  0.56708  0.13469  Biso   1.000  N
  H355     1.0000 0.71751  0.60086  0.14566  Biso   1.000  H
  C310     1.0000 0.79696  0.24151  0.25291  Biso   1.000  C
  C311     1.0000 0.84839  0.29067  0.20203  Biso   1.000  C
  C312     1.0000 0.90633  0.33355  0.15215  Biso   1.000  C
  C313     1.0000 0.38295  0.32682  0.26005  Biso   1.000  C
  C314     1.0000 0.63824  0.60499  0.10564  Biso   1.000  C
  N53      1.0000 0.78487  0.17588  0.24709  Biso   1.000  N
  H356     1.0000 0.78262  0.25096  0.27196  Biso   1.000  H
  H357     1.0000 0.83200  0.24026  0.19587  Biso   1.000  H
  N54      1.0000 0.95218  0.38509  0.13469  Biso   1.000  N
  H358     1.0000 0.88333  0.28247  0.14566  Biso   1.000  H
  C315     1.0000 0.36691  0.24869  0.27035  Biso   1.000  C
  H359     1.0000 0.35504  0.32156  0.24096  Biso   1.000  H
  C316     1.0000 0.35606  0.36133  0.28412  Biso   1.000  C
  H360     1.0000 0.69474  0.63469  0.10447  Biso   1.000  H
  C317     1.0000 0.60733  0.54474  0.08110  Biso   1.000  C
  C318     1.0000 0.60605  0.65788  0.10194  Biso   1.000  C
  C319     1.0000 0.75129  0.11824  0.27035  Biso   1.000  C
  C320     1.0000 0.96671  0.36172  0.10564  Biso   1.000  C
  C321     1.0000 0.28196  0.19795  0.27568  Biso   1.000  C
  N55      1.0000 0.39102  0.21509  0.24709  Biso   1.000  N
  H361     1.0000 0.39522  0.25367  0.28926  Biso   1.000  H
  C322     1.0000 0.27100  0.31154  0.28942  Biso   1.000  C
  H362     1.0000 0.38363  0.36659  0.30296  Biso   1.000  H
  H363     1.0000 0.36741  0.41236  0.27776  Biso   1.000  H
  N56      1.0000 0.64346  0.49891  0.08433  Biso   1.000  N
  C323     1.0000 0.62533  0.58123  0.05019  Biso   1.000  C
  H364     1.0000 0.55132  0.51198  0.08348  Biso   1.000  H
  C324     1.0000 0.62244  0.69380  0.07083  Biso   1.000  C
  H365     1.0000 0.55064  0.62909  0.10526  Biso   1.000  H
  H366     1.0000 0.62855  0.69827  0.11728  Biso   1.000  H
  C325     1.0000 0.67315  0.05612  0.26005  Biso   1.000  C
  H367     1.0000 0.74634  0.14154  0.28926  Biso   1.000  H
  C326     1.0000 0.80204  0.08401  0.27568  Biso   1.000  C
  C327     1.0000 0.93741  0.39267  0.08110  Biso   1.000  C
  H368     1.0000 0.93990  0.30527  0.10447  Biso   1.000  H
  C328     1.0000 0.05187  0.39397  0.10194  Biso   1.000  C
  C329     1.0000 0.25136  0.23189  0.29837  Biso   1.000  C
  H369     1.0000 0.25475  0.18997  0.25647  Biso   1.000  H
  H370     1.0000 0.27201  0.14805  0.28297  Biso   1.000  H
  C330     1.0000 0.44457  0.20304  0.25291  Biso   1.000  C
  H371     1.0000 0.25502  0.33406  0.30547  Biso   1.000  H
  H372     1.0000 0.24331  0.30945  0.27098  Biso   1.000  H
  C331     1.0000 0.60321  0.43057  0.09194  Biso   1.000  C
  H373     1.0000 0.60345  0.54129  0.03467  Biso   1.000  H
  H374     1.0000 0.68080  0.60985  0.04737  Biso   1.000  H
  C332     1.0000 0.59353  0.63452  0.04640  Biso   1.000  C
  H375     1.0000 0.59812  0.72503  0.06886  Biso   1.000  H
  H376     1.0000 0.67773  0.72747  0.06848  Biso   1.000  H
  N57      1.0000 0.62352  0.08757  0.25497  Biso   1.000  N
  H377     1.0000 0.67845  0.03349  0.24096  Biso   1.000  H
  C333     1.0000 0.63867  0.99480  0.28412  Biso   1.000  C
  C334     1.0000 0.76810  0.01946  0.29837  Biso   1.000  C
  H378     1.0000 0.81001  0.06478  0.25647  Biso   1.000  H
  H379     1.0000 0.85194  0.12395  0.28297  Biso   1.000  H
  N58      1.0000 0.85544  0.35652  0.08433  Biso   1.000  N
  C335     1.0000 0.95587  0.37462  0.05019  Biso   1.000  C
  H380     1.0000 0.96061  0.44868  0.08348  Biso   1.000  H
  C336     1.0000 0.07135  0.37756  0.07083  Biso   1.000  C
  H381     1.0000 0.07843  0.44936  0.10526  Biso   1.000  H
  H382     1.0000 0.06971  0.37145  0.11728  Biso   1.000  H
  H383     1.0000 0.19571  0.19947  0.29976  Biso   1.000  H
  H384     1.0000 0.27311  0.23325  0.31836  Biso   1.000  H
  H385     1.0000 0.46833  0.21735  0.27196  Biso   1.000  H
  C337     1.0000 0.47147  0.16728  0.23113  Biso   1.000  C
  H386     1.0000 0.55082  0.41094  0.09568  Biso   1.000  H
  C338     1.0000 0.63528  0.38045  0.09527  Biso   1.000  C
  H387     1.0000 0.60864  0.65963  0.02666  Biso   1.000  H
  H388     1.0000 0.53764  0.60504  0.04717  Biso   1.000  H
  C339     1.0000 0.59780  0.08090  0.22889  Biso   1.000  C
  H389     1.0000 0.63345  0.01708  0.30296  Biso   1.000  H
  H390     1.0000 0.58765  0.95508  0.27776  Biso   1.000  H
  C340     1.0000 0.68848  0.95949  0.28942  Biso   1.000  C
  H391     1.0000 0.76674  0.03988  0.31836  Biso   1.000  H
  H392     1.0000 0.80054  0.99627  0.29976  Biso   1.000  H
  C341     1.0000 0.82737  0.39680  0.09194  Biso   1.000  C
  H393     1.0000 0.93784  0.39657  0.03467  Biso   1.000  H
  H394     1.0000 0.92903  0.31918  0.04737  Biso   1.000  H
  C342     1.0000 0.04102  0.40647  0.04640  Biso   1.000  C
  H395     1.0000 0.12697  0.40189  0.06886  Biso   1.000  H
  H396     1.0000 0.04971  0.32224  0.06848  Biso   1.000  H
  C343     1.0000 0.44228  0.15161  0.20203  Biso   1.000  C
  C344     1.0000 0.52302  0.14545  0.23984  Biso   1.000  C
  C345     1.0000 0.58873  0.30323  0.09527  Biso   1.000  C
  C346     1.0000 0.71446  0.41123  0.09527  Biso   1.000  C
  C347     1.0000 0.54482  0.10704  0.21996  Biso   1.000  C
  H397     1.0000 0.61323  0.05787  0.21416  Biso   1.000  H
  H398     1.0000 0.66594  0.92097  0.30547  Biso   1.000  H
  H399     1.0000 0.69056  0.93387  0.27098  Biso   1.000  H
  C348     1.0000 0.74520  0.36472  0.09527  Biso   1.000  C
  H400     1.0000 0.86013  0.44919  0.09568  Biso   1.000  H
  H401     1.0000 0.05106  0.39137  0.02666  Biso   1.000  H
  H402     1.0000 0.06745  0.46237  0.04717  Biso   1.000  H
  H403     1.0000 0.40822  0.16796  0.19587  Biso   1.000  H
  C349     1.0000 0.46209  0.11275  0.18215  Biso   1.000  C
  H404     1.0000 0.54362  0.15676  0.25947  Biso   1.000  H
  C350     1.0000 0.61954  0.25480  0.09527  Biso   1.000  C
  H405     1.0000 0.53542  0.28224  0.09527  Biso   1.000  H
  H406     1.0000 0.74681  0.46457  0.09527  Biso   1.000  H
  C351     1.0000 0.51393  0.09052  0.19137  Biso   1.000  C
  C352     1.0000 0.69678  0.28552  0.09527  Biso   1.000  C
  C353     1.0000 0.42720  0.09363  0.15215  Biso   1.000  C
  C354     1.0000 0.56945  0.17266  0.09194  Biso   1.000  C
  H407     1.0000 0.52803  0.06376  0.17787  Biso   1.000  H
  H408     1.0000 0.71773  0.25316  0.09527  Biso   1.000  H
  N59      1.0000 0.43290  0.04780  0.13469  Biso   1.000  N
  H409     1.0000 0.39912  0.11665  0.14566  Biso   1.000  H
  N60      1.0000 0.50106  0.14454  0.08433  Biso   1.000  N
  H410     1.0000 0.58901  0.13985  0.09568  Biso   1.000  H
  C355     1.0000 0.39501  0.03326  0.10564  Biso   1.000  C
  C356     1.0000 0.45530  0.06263  0.08110  Biso   1.000  C
  H411     1.0000 0.36535  0.06008  0.10447  Biso   1.000  H
  C357     1.0000 0.34208  0.94818  0.10194  Biso   1.000  C
  C358     1.0000 0.41876  0.04413  0.05019  Biso   1.000  C
  H412     1.0000 0.48801  0.03937  0.08348  Biso   1.000  H
  C359     1.0000 0.30625  0.92866  0.07083  Biso   1.000  C
  H413     1.0000 0.37092  0.92159  0.10526  Biso   1.000  H
  H414     1.0000 0.30173  0.93030  0.11728  Biso   1.000  H
  H415     1.0000 0.45875  0.06217  0.03467  Biso   1.000  H
  H416     1.0000 0.39013  0.07094  0.04737  Biso   1.000  H
  C360     1.0000 0.36546  0.95898  0.04640  Biso   1.000  C
  H417     1.0000 0.27495  0.87311  0.06886  Biso   1.000  H
  H418     1.0000 0.27257  0.95027  0.06848  Biso   1.000  H
  H419     1.0000 0.34037  0.94897  0.02666  Biso   1.000  H
  H420     1.0000 0.39492  0.93257  0.04717  Biso   1.000  H
  C361     1.0000 0.74865  0.98051  0.70160  Biso   1.000  C
  C362     1.0000 0.71802  0.91602  0.72430  Biso   1.000  C
  C363     1.0000 0.72895  0.04048  0.71058  Biso   1.000  C
  H421     1.0000 0.72685  0.96015  0.68164  Biso   1.000  H
  H422     1.0000 0.80429  0.00371  0.70024  Biso   1.000  H
  C364     1.0000 0.63307  0.88174  0.72965  Biso   1.000  C
  H423     1.0000 0.74524  0.93520  0.74353  Biso   1.000  H
  H424     1.0000 0.72795  0.87602  0.71703  Biso   1.000  H
  C365     1.0000 0.64391  0.00524  0.71588  Biso   1.000  C
  H425     1.0000 0.74498  0.07901  0.69453  Biso   1.000  H
  H426     1.0000 0.75666  0.06611  0.72902  Biso   1.000  H
  N61      1.0000 0.60895  0.82409  0.75291  Biso   1.000  N
  C366     1.0000 0.61705  0.94385  0.73995  Biso   1.000  C
  H427     1.0000 0.60476  0.85843  0.71074  Biso   1.000  H
  H428     1.0000 0.61636  0.98295  0.69704  Biso   1.000  H
  H429     1.0000 0.63258  0.04489  0.72222  Biso   1.000  H
  C367     1.0000 0.55541  0.75847  0.74709  Biso   1.000  C
  N62      1.0000 0.53594  0.91246  0.74503  Biso   1.000  N
  H430     1.0000 0.64495  0.96654  0.75902  Biso   1.000  H
  C368     1.0000 0.52853  0.69578  0.76887  Biso   1.000  C
  H431     1.0000 0.53168  0.74902  0.72804  Biso   1.000  H
  C369     1.0000 0.51691  0.91908  0.77111  Biso   1.000  C
  C370     1.0000 0.47695  0.62241  0.76014  Biso   1.000  C
  C371     1.0000 0.55773  0.70931  0.79795  Biso   1.000  C
  H432     1.0000 0.55537  0.94210  0.78584  Biso   1.000  H
  C372     1.0000 0.43780  0.89294  0.78004  Biso   1.000  C
  C373     1.0000 0.45518  0.56222  0.78004  Biso   1.000  C
  H433     1.0000 0.45639  0.61313  0.74053  Biso   1.000  H
  C374     1.0000 0.53793  0.65070  0.81785  Biso   1.000  C
  H434     1.0000 0.59175  0.75971  0.80413  Biso   1.000  H
  C375     1.0000 0.37758  0.85453  0.76014  Biso   1.000  C
  C376     1.0000 0.42337  0.90946  0.80863  Biso   1.000  C
  C377     1.0000 0.40214  0.48307  0.77111  Biso   1.000  C
  C378     1.0000 0.48608  0.57659  0.80863  Biso   1.000  C
  C379     1.0000 0.57279  0.66642  0.84785  Biso   1.000  C
  C380     1.0000 0.30423  0.83275  0.76887  Biso   1.000  C
  H435     1.0000 0.38687  0.84321  0.74053  Biso   1.000  H
  C381     1.0000 0.34930  0.88723  0.81785  Biso   1.000  C
  H436     1.0000 0.46424  0.93622  0.82213  Biso   1.000  H
  N63      1.0000 0.37651  0.46406  0.74503  Biso   1.000  N
  H437     1.0000 0.38677  0.44460  0.78584  Biso   1.000  H
  H438     1.0000 0.47198  0.53574  0.82213  Biso   1.000  H
  N64      1.0000 0.56706  0.61489  0.86531  Biso   1.000  N
  H439     1.0000 0.60083  0.71751  0.85434  Biso   1.000  H
  C382     1.0000 0.24149  0.79694  0.74709  Biso   1.000  C
  C383     1.0000 0.29070  0.84842  0.79795  Biso   1.000  C
  C384     1.0000 0.33353  0.90635  0.84785  Biso   1.000  C
  C385     1.0000 0.32679  0.38294  0.73995  Biso   1.000  C
  C386     1.0000 0.60495  0.63825  0.89436  Biso   1.000  C
  N65      1.0000 0.17589  0.78489  0.75291  Biso   1.000  N
  H440     1.0000 0.25095  0.78262  0.72804  Biso   1.000  H
  H441     1.0000 0.24027  0.83201  0.80413  Biso   1.000  H
  N66      1.0000 0.38511  0.95217  0.86531  Biso   1.000  N
  H442     1.0000 0.28248  0.88332  0.85434  Biso   1.000  H
  C387     1.0000 0.24867  0.36693  0.72965  Biso   1.000  C
  C388     1.0000 0.36132  0.35607  0.71588  Biso   1.000  C
  H443     1.0000 0.32156  0.35505  0.75902  Biso   1.000  H
  H444     1.0000 0.63465  0.69471  0.89553  Biso   1.000  H
  C389     1.0000 0.54470  0.60731  0.91890  Biso   1.000  C
  C390     1.0000 0.65789  0.60606  0.89806  Biso   1.000  C
  C391     1.0000 0.11823  0.75128  0.72965  Biso   1.000  C
  C392     1.0000 0.36175  0.96671  0.89436  Biso   1.000  C
  C393     1.0000 0.19796  0.28196  0.72430  Biso   1.000  C
  N67      1.0000 0.21511  0.39103  0.75291  Biso   1.000  N
  H445     1.0000 0.25366  0.39522  0.71074  Biso   1.000  H
  C394     1.0000 0.31155  0.27104  0.71058  Biso   1.000  C
  H446     1.0000 0.36657  0.38362  0.69704  Biso   1.000  H
  H447     1.0000 0.41237  0.36744  0.72222  Biso   1.000  H
  N68      1.0000 0.49889  0.64346  0.91565  Biso   1.000  N
  C395     1.0000 0.58121  0.62535  0.94981  Biso   1.000  C
  H448     1.0000 0.51197  0.55136  0.91652  Biso   1.000  H
  C396     1.0000 0.69382  0.62247  0.92917  Biso   1.000  C
  H449     1.0000 0.62904  0.55062  0.89472  Biso   1.000  H
  H450     1.0000 0.69827  0.62852  0.88272  Biso   1.000  H
  C397     1.0000 0.05614  0.67316  0.73995  Biso   1.000  C
  H451     1.0000 0.14156  0.74630  0.71074  Biso   1.000  H
  C398     1.0000 0.08398  0.80203  0.72430  Biso   1.000  C
  C399     1.0000 0.39267  0.93741  0.91890  Biso   1.000  C
  H452     1.0000 0.30526  0.93995  0.89553  Biso   1.000  H
  C400     1.0000 0.39399  0.05185  0.89806  Biso   1.000  C
  C401     1.0000 0.23184  0.25135  0.70160  Biso   1.000  C
  H453     1.0000 0.18999  0.25475  0.74353  Biso   1.000  H
  H454     1.0000 0.14808  0.27206  0.71703  Biso   1.000  H
  C402     1.0000 0.20302  0.44455  0.74709  Biso   1.000  C
  H455     1.0000 0.33407  0.25503  0.69453  Biso   1.000  H
  H456     1.0000 0.30945  0.24332  0.72902  Biso   1.000  H
  C403     1.0000 0.43054  0.60318  0.90804  Biso   1.000  C
  H457     1.0000 0.54123  0.60340  0.96533  Biso   1.000  H
  H458     1.0000 0.60989  0.68085  0.95263  Biso   1.000  H
  C404     1.0000 0.63451  0.59350  0.95360  Biso   1.000  C
  H459     1.0000 0.72507  0.59814  0.93112  Biso   1.000  H
  H460     1.0000 0.72748  0.67774  0.93152  Biso   1.000  H
  N69      1.0000 0.08755  0.62349  0.74503  Biso   1.000  N
  H461     1.0000 0.03344  0.67842  0.75902  Biso   1.000  H
  C405     1.0000 0.99474  0.63865  0.71588  Biso   1.000  C
  C406     1.0000 0.01951  0.76814  0.70160  Biso   1.000  C
  H462     1.0000 0.06474  0.81000  0.74353  Biso   1.000  H
  H463     1.0000 0.12397  0.85192  0.71703  Biso   1.000  H
  N70      1.0000 0.35653  0.85543  0.91565  Biso   1.000  N
  C407     1.0000 0.37465  0.95585  0.94981  Biso   1.000  C
  H464     1.0000 0.44865  0.96060  0.91652  Biso   1.000  H
  C408     1.0000 0.37751  0.07131  0.92917  Biso   1.000  C
  H465     1.0000 0.44929  0.07838  0.89472  Biso   1.000  H
  H466     1.0000 0.37142  0.06973  0.88272  Biso   1.000  H
  H467     1.0000 0.19948  0.19574  0.70024  Biso   1.000  H
  H468     1.0000 0.23328  0.27313  0.68164  Biso   1.000  H
  H469     1.0000 0.21735  0.46831  0.72804  Biso   1.000  H
  C409     1.0000 0.16724  0.47147  0.76887  Biso   1.000  C
  H470     1.0000 0.41099  0.55085  0.90432  Biso   1.000  H
  C410     1.0000 0.38044  0.63525  0.90473  Biso   1.000  C
  H471     1.0000 0.65965  0.60861  0.97334  Biso   1.000  H
  H472     1.0000 0.60504  0.53761  0.95283  Biso   1.000  H
  C411     1.0000 0.08088  0.59780  0.77111  Biso   1.000  C
  H473     1.0000 0.01708  0.63344  0.69704  Biso   1.000  H
  H474     1.0000 0.95507  0.58762  0.72222  Biso   1.000  H
  C412     1.0000 0.95947  0.68843  0.71058  Biso   1.000  C
  H475     1.0000 0.03987  0.76673  0.68164  Biso   1.000  H
  H476     1.0000 0.99625  0.80050  0.70024  Biso   1.000  H
  C413     1.0000 0.39678  0.82737  0.90804  Biso   1.000  C
  H477     1.0000 0.39654  0.93780  0.96533  Biso   1.000  H
  H478     1.0000 0.31915  0.92903  0.95263  Biso   1.000  H
  C414     1.0000 0.40644  0.04099  0.95360  Biso   1.000  C
  H479     1.0000 0.40183  0.12692  0.93112  Biso   1.000  H
  H480     1.0000 0.32222  0.04970  0.93152  Biso   1.000  H
  C415     1.0000 0.15162  0.44228  0.79795  Biso   1.000  C
  C416     1.0000 0.14547  0.52307  0.76014  Biso   1.000  C
  C417     1.0000 0.30324  0.58875  0.90473  Biso   1.000  C
  C418     1.0000 0.41122  0.71445  0.90473  Biso   1.000  C
  C419     1.0000 0.10707  0.54485  0.78004  Biso   1.000  C
  H481     1.0000 0.05788  0.61325  0.78584  Biso   1.000  H
  H482     1.0000 0.92097  0.66591  0.69453  Biso   1.000  H
  H483     1.0000 0.93387  0.69052  0.72902  Biso   1.000  H
  C420     1.0000 0.36475  0.74517  0.90473  Biso   1.000  C
  H484     1.0000 0.44917  0.86013  0.90432  Biso   1.000  H
  H485     1.0000 0.39131  0.05100  0.97334  Biso   1.000  H
  H486     1.0000 0.46237  0.06741  0.95283  Biso   1.000  H
  H487     1.0000 0.16796  0.40823  0.80413  Biso   1.000  H
  C421     1.0000 0.11277  0.46208  0.81785  Biso   1.000  C
  H488     1.0000 0.15677  0.54360  0.74053  Biso   1.000  H
  C422     1.0000 0.25479  0.61953  0.90473  Biso   1.000  C
  H489     1.0000 0.28225  0.53540  0.90473  Biso   1.000  H
  H490     1.0000 0.46453  0.74681  0.90473  Biso   1.000  H
  C423     1.0000 0.09052  0.51390  0.80863  Biso   1.000  C
  C424     1.0000 0.28551  0.69675  0.90473  Biso   1.000  C
  C425     1.0000 0.09365  0.42718  0.84785  Biso   1.000  C
  C426     1.0000 0.17260  0.56940  0.90804  Biso   1.000  C
  H491     1.0000 0.06379  0.52805  0.82213  Biso   1.000  H
  H492     1.0000 0.25319  0.71773  0.90473  Biso   1.000  H
  N71      1.0000 0.04781  0.43289  0.86531  Biso   1.000  N
  H493     1.0000 0.11666  0.39912  0.85434  Biso   1.000  H
  N72      1.0000 0.14456  0.50106  0.91565  Biso   1.000  N
  H494     1.0000 0.13984  0.58903  0.90432  Biso   1.000  H
  C427     1.0000 0.03330  0.39505  0.89436  Biso   1.000  C
  C428     1.0000 0.06264  0.45530  0.91890  Biso   1.000  C
  H495     1.0000 0.06009  0.36534  0.89553  Biso   1.000  H
  C429     1.0000 0.94813  0.34209  0.89806  Biso   1.000  C
  C430     1.0000 0.04415  0.41881  0.94981  Biso   1.000  C
  H496     1.0000 0.03938  0.48805  0.91652  Biso   1.000  H
  C431     1.0000 0.92868  0.30623  0.92917  Biso   1.000  C
  H497     1.0000 0.92155  0.37095  0.89472  Biso   1.000  H
  H498     1.0000 0.93026  0.30176  0.88272  Biso   1.000  H
  H499     1.0000 0.06216  0.45875  0.96533  Biso   1.000  H
  H500     1.0000 0.07096  0.39012  0.95263  Biso   1.000  H
  C432     1.0000 0.95898  0.36546  0.95360  Biso   1.000  C
  H501     1.0000 0.87305  0.27494  0.93112  Biso   1.000  H
  H502     1.0000 0.95023  0.27251  0.93152  Biso   1.000  H
  H503     1.0000 0.94897  0.34034  0.97334  Biso   1.000  H
  H504     1.0000 0.93256  0.39493  0.95283  Biso   1.000  H
