data_image0
_cell_length_a       20.718
_cell_length_b       20.718
_cell_length_c       44.992
_cell_angle_alpha    90
_cell_angle_beta     90
_cell_angle_gamma    120

_symmetry_space_group_name_H-M    "P 1"
_symmetry_int_tables_number       1

loop_
  _symmetry_equiv_pos_as_xyz
  'x, y, z'

loop_
  _atom_site_label
  _atom_site_occupancy
  _atom_site_fract_x
  _atom_site_fract_y
  _atom_site_fract_z
  _atom_site_thermal_displace_type
  _atom_site_B_iso_or_equiv
  _atom_site_type_symbol
  C1       1.0000 0.36606  0.39348  0.45584  Biso   1.000  C
  C2       1.0000 0.33325  0.31105  0.45077  Biso   1.000  C
  C3       1.0000 0.30535  0.41087  0.46526  Biso   1.000  C
  H1       1.0000 0.38955  0.42029  0.43766  Biso   1.000  H
  H2       1.0000 0.40395  0.40998  0.47117  Biso   1.000  H
  C4       1.0000 0.27132  0.28257  0.42756  Biso   1.000  C
  H3       1.0000 0.31336  0.28469  0.46937  Biso   1.000  H
  H4       1.0000 0.37202  0.30124  0.44417  Biso   1.000  H
  C5       1.0000 0.24201  0.37966  0.44332  Biso   1.000  C
  H5       1.0000 0.28655  0.38969  0.48478  Biso   1.000  H
  H6       1.0000 0.32646  0.46449  0.46666  Biso   1.000  H
  N1       1.0000 0.24316  0.20298  0.42261  Biso   1.000  N
  C6       1.0000 0.20942  0.29634  0.43783  Biso   1.000  C
  H7       1.0000 0.29182  0.30938  0.40887  Biso   1.000  H
  H8       1.0000 0.25966  0.40608  0.42468  Biso   1.000  H
  H9       1.0000 0.20291  0.38824  0.45066  Biso   1.000  H
  C7       1.0000 0.25004  0.18286  0.39732  Biso   1.000  C
  N2       1.0000 0.15274  0.27198  0.41492  Biso   1.000  N
  H10      1.0000 0.18744  0.26869  0.45626  Biso   1.000  H
  C8       1.0000 0.22694  0.10606  0.38878  Biso   1.000  C
  H11      1.0000 0.27152  0.21937  0.38267  Biso   1.000  H
  C9       1.0000 0.08745  0.22076  0.42110  Biso   1.000  C
  C10      1.0000 0.24354  0.09196  0.36038  Biso   1.000  C
  C11      1.0000 0.18953  0.04659  0.40861  Biso   1.000  C
  C12      1.0000 0.02532  0.19457  0.39980  Biso   1.000  C
  H12      1.0000 0.07824  0.19886  0.43977  Biso   1.000  H
  C13      1.0000 0.22269  0.01928  0.35124  Biso   1.000  C
  H13      1.0000 0.26884  0.13137  0.34717  Biso   1.000  H
  C14      1.0000 0.16927  0.97470  0.39980  Biso   1.000  C
  H14      1.0000 0.17833  0.05529  0.42768  Biso   1.000  H
  C15      1.0000 0.03842  0.22377  0.37098  Biso   1.000  C
  C16      1.0000 0.95342  0.14296  0.40861  Biso   1.000  C
  C17      1.0000 0.24156  0.00507  0.32139  Biso   1.000  C
  C18      1.0000 0.18540  0.96160  0.37098  Biso   1.000  C
  C19      1.0000 0.13335  0.91261  0.42110  Biso   1.000  C
  C20      1.0000 0.98076  0.20343  0.35124  Biso   1.000  C
  H15      1.0000 0.08683  0.25755  0.36506  Biso   1.000  H
  C21      1.0000 0.89397  0.12089  0.38878  Biso   1.000  C
  H16      1.0000 0.94472  0.12306  0.42768  Biso   1.000  H
  N3       1.0000 0.28258  0.05518  0.30354  Biso   1.000  N
  H17      1.0000 0.22192  0.95586  0.31537  Biso   1.000  H
  H18      1.0000 0.17074  0.91317  0.36506  Biso   1.000  H
  N4       1.0000 0.11927  0.84729  0.41492  Biso   1.000  N
  H19      1.0000 0.12067  0.92180  0.43977  Biso   1.000  H
  C22      1.0000 0.99492  0.23648  0.32139  Biso   1.000  C
  C23      1.0000 0.90804  0.15154  0.36038  Biso   1.000  C
  C24      1.0000 0.81715  0.06716  0.39732  Biso   1.000  C
  C25      1.0000 0.29858  0.03311  0.27500  Biso   1.000  C
  C26      1.0000 0.08692  0.79061  0.43783  Biso   1.000  C
  N5       1.0000 0.94481  0.22740  0.30354  Biso   1.000  N
  H20      1.0000 0.04413  0.26607  0.31537  Biso   1.000  H
  H21      1.0000 0.86860  0.13744  0.34717  Biso   1.000  H
  N6       1.0000 0.79700  0.04018  0.42261  Biso   1.000  N
  H22      1.0000 0.78064  0.05217  0.38267  Biso   1.000  H
  C27      1.0000 0.26866  0.06170  0.25007  Biso   1.000  C
  C28      1.0000 0.38134  0.06638  0.27116  Biso   1.000  C
  H23      1.0000 0.27428  0.97871  0.27396  Biso   1.000  H
  H24      1.0000 0.08125  0.81257  0.45626  Biso   1.000  H
  C29      1.0000 0.13767  0.75800  0.44332  Biso   1.000  C
  C30      1.0000 0.01122  0.72869  0.42756  Biso   1.000  C
  C31      1.0000 0.96688  0.26546  0.27500  Biso   1.000  C
  C32      1.0000 0.71744  0.98880  0.42756  Biso   1.000  C
  N7       1.0000 0.18799  0.02536  0.25276  Biso   1.000  N
  H25      1.0000 0.29024  0.11576  0.25207  Biso   1.000  H
  C33      1.0000 0.28814  0.04448  0.21977  Biso   1.000  C
  C34      1.0000 0.40184  0.04927  0.24064  Biso   1.000  C
  H26      1.0000 0.40002  0.04698  0.28647  Biso   1.000  H
  H27      1.0000 0.40542  0.11994  0.27367  Biso   1.000  H
  C35      1.0000 0.10553  0.69469  0.46526  Biso   1.000  C
  H28      1.0000 0.14643  0.74039  0.42468  Biso   1.000  H
  H29      1.0000 0.18534  0.79707  0.45066  Biso   1.000  H
  N8       1.0000 0.95984  0.75683  0.42261  Biso   1.000  N
  C36      1.0000 0.97785  0.66677  0.45077  Biso   1.000  C
  H30      1.0000 0.01752  0.70818  0.40887  Biso   1.000  H
  C37      1.0000 0.93825  0.20694  0.25007  Biso   1.000  C
  H31      1.0000 0.02132  0.29556  0.27396  Biso   1.000  H
  C38      1.0000 0.93361  0.31495  0.27116  Biso   1.000  C
  C39      1.0000 0.70368  0.91311  0.43783  Biso   1.000  C
  H32      1.0000 0.69064  0.98250  0.40887  Biso   1.000  H
  C40      1.0000 0.68896  0.02218  0.45077  Biso   1.000  C
  C41      1.0000 0.15882  0.06365  0.25825  Biso   1.000  C
  H33      1.0000 0.27053  0.06504  0.20446  Biso   1.000  H
  C42      1.0000 0.37151  0.07675  0.21642  Biso   1.000  C
  H34      1.0000 0.26302  0.99086  0.21697  Biso   1.000  H
  H35      1.0000 0.45573  0.07335  0.23886  Biso   1.000  H
  H36      1.0000 0.38152  0.99599  0.23858  Biso   1.000  H
  H37      1.0000 0.10314  0.71347  0.48478  Biso   1.000  H
  H38      1.0000 0.13802  0.67356  0.46666  Biso   1.000  H
  C43      1.0000 0.02744  0.63399  0.45584  Biso   1.000  C
  C44      1.0000 0.93281  0.74998  0.39732  Biso   1.000  C
  H39      1.0000 0.97134  0.68666  0.46937  Biso   1.000  H
  H40      1.0000 0.92925  0.62797  0.44417  Biso   1.000  H
  N9       1.0000 0.97465  0.16263  0.25276  Biso   1.000  N
  H41      1.0000 0.88421  0.17445  0.25207  Biso   1.000  H
  C45      1.0000 0.95555  0.24367  0.21977  Biso   1.000  C
  C46      1.0000 0.95073  0.35257  0.24064  Biso   1.000  C
  H42      1.0000 0.95306  0.35308  0.28647  Biso   1.000  H
  H43      1.0000 0.88002  0.28547  0.27367  Biso   1.000  H
  N10      1.0000 0.72799  0.88073  0.41492  Biso   1.000  N
  H44      1.0000 0.73134  0.91880  0.45626  Biso   1.000  H
  C47      1.0000 0.62036  0.86239  0.44332  Biso   1.000  C
  C48      1.0000 0.60652  0.97258  0.45584  Biso   1.000  C
  H45      1.0000 0.71531  0.02865  0.46937  Biso   1.000  H
  H46      1.0000 0.69873  0.07078  0.44417  Biso   1.000  H
  C49      1.0000 0.07741  0.03155  0.26058  Biso   1.000  C
  H47      1.0000 0.18943  0.11465  0.26107  Biso   1.000  H
  H48      1.0000 0.38196  0.06259  0.19726  Biso   1.000  H
  H49      1.0000 0.39614  0.13064  0.21717  Biso   1.000  H
  H50      1.0000 0.03074  0.61047  0.43766  Biso   1.000  H
  H51      1.0000 0.00603  0.59609  0.47117  Biso   1.000  H
  C50      1.0000 0.87912  0.77311  0.38878  Biso   1.000  C
  H52      1.0000 0.94783  0.72846  0.38267  Biso   1.000  H
  C51      1.0000 0.93639  0.09519  0.25825  Biso   1.000  C
  H53      1.0000 0.00913  0.27215  0.21697  Biso   1.000  H
  H54      1.0000 0.93497  0.20549  0.20446  Biso   1.000  H
  C52      1.0000 0.92324  0.29478  0.21642  Biso   1.000  C
  H55      1.0000 0.00401  0.38557  0.23858  Biso   1.000  H
  H56      1.0000 0.92664  0.38239  0.23886  Biso   1.000  H
  C53      1.0000 0.77922  0.86668  0.42110  Biso   1.000  C
  C54      1.0000 0.58915  0.89450  0.46526  Biso   1.000  C
  H57      1.0000 0.59394  0.85359  0.42468  Biso   1.000  H
  H58      1.0000 0.61175  0.81468  0.45066  Biso   1.000  H
  H59      1.0000 0.57973  0.96929  0.43766  Biso   1.000  H
  H60      1.0000 0.59005  0.99398  0.47117  Biso   1.000  H
  C55      1.0000 0.04605  0.07608  0.26067  Biso   1.000  C
  C56      1.0000 0.03003  0.95396  0.26067  Biso   1.000  C
  C57      1.0000 0.84847  0.75650  0.36038  Biso   1.000  C
  C58      1.0000 0.85703  0.81050  0.40861  Biso   1.000  C
  C59      1.0000 0.96844  0.04587  0.26058  Biso   1.000  C
  H61      1.0000 0.88533  0.07474  0.26107  Biso   1.000  H
  H62      1.0000 0.93741  0.31936  0.19726  Biso   1.000  H
  H63      1.0000 0.86934  0.26546  0.21717  Biso   1.000  H
  C60      1.0000 0.80544  0.83079  0.39980  Biso   1.000  C
  H64      1.0000 0.80117  0.87939  0.43977  Biso   1.000  H
  H65      1.0000 0.61033  0.89689  0.48478  Biso   1.000  H
  H66      1.0000 0.53555  0.86200  0.46666  Biso   1.000  H
  H67      1.0000 0.07682  0.12758  0.26076  Biso   1.000  H
  C61      1.0000 0.95415  0.92259  0.26058  Biso   1.000  C
  H68      1.0000 0.05075  0.92320  0.26076  Biso   1.000  H
  C62      1.0000 0.79658  0.77734  0.35124  Biso   1.000  C
  H69      1.0000 0.86256  0.73119  0.34717  Biso   1.000  H
  H70      1.0000 0.87697  0.82171  0.42768  Biso   1.000  H
  C63      1.0000 0.92392  0.96996  0.26067  Biso   1.000  C
  C64      1.0000 0.77622  0.81463  0.37098  Biso   1.000  C
  C65      1.0000 0.90482  0.84121  0.25825  Biso   1.000  C
  C66      1.0000 0.76353  0.75845  0.32139  Biso   1.000  C
  H71      1.0000 0.87246  0.94928  0.26076  Biso   1.000  H
  H72      1.0000 0.74243  0.82929  0.36506  Biso   1.000  H
  N11      1.0000 0.83740  0.81206  0.25276  Biso   1.000  N
  H73      1.0000 0.92521  0.81056  0.26107  Biso   1.000  H
  N12      1.0000 0.77261  0.71743  0.30354  Biso   1.000  N
  H74      1.0000 0.73395  0.77807  0.31537  Biso   1.000  H
  C67      1.0000 0.79304  0.73136  0.25007  Biso   1.000  C
  C68      1.0000 0.73454  0.70143  0.27500  Biso   1.000  C
  H75      1.0000 0.82555  0.70979  0.25207  Biso   1.000  H
  C69      1.0000 0.75633  0.71191  0.21977  Biso   1.000  C
  C70      1.0000 0.68505  0.61867  0.27116  Biso   1.000  C
  H76      1.0000 0.70443  0.72579  0.27396  Biso   1.000  H
  H77      1.0000 0.79455  0.72947  0.20446  Biso   1.000  H
  H78      1.0000 0.72784  0.73699  0.21697  Biso   1.000  H
  C71      1.0000 0.70525  0.62848  0.21642  Biso   1.000  C
  C72      1.0000 0.64742  0.59816  0.24064  Biso   1.000  C
  H79      1.0000 0.64694  0.60000  0.28647  Biso   1.000  H
  H80      1.0000 0.71456  0.59459  0.27367  Biso   1.000  H
  H81      1.0000 0.68066  0.61811  0.19726  Biso   1.000  H
  H82      1.0000 0.73457  0.60390  0.21717  Biso   1.000  H
  H83      1.0000 0.61763  0.54426  0.23886  Biso   1.000  H
  H84      1.0000 0.61444  0.61850  0.23858  Biso   1.000  H
  C73      1.0000 0.54028  0.60494  0.41661  Biso   1.000  C
  C74      1.0000 0.59882  0.63359  0.39167  Biso   1.000  C
  N13      1.0000 0.49597  0.64133  0.41390  Biso   1.000  N
  H85      1.0000 0.50780  0.55088  0.41461  Biso   1.000  H
  C75      1.0000 0.57701  0.62222  0.44690  Biso   1.000  C
  N14      1.0000 0.56073  0.61146  0.36311  Biso   1.000  N
  C76      1.0000 0.64831  0.60031  0.39549  Biso   1.000  C
  H86      1.0000 0.62891  0.68798  0.39269  Biso   1.000  H
  C77      1.0000 0.42851  0.60304  0.40841  Biso   1.000  C
  H87      1.0000 0.53880  0.60159  0.46219  Biso   1.000  H
  H88      1.0000 0.60548  0.67578  0.44970  Biso   1.000  H
  C78      1.0000 0.62809  0.58989  0.45024  Biso   1.000  C
  C79      1.0000 0.56983  0.66162  0.34528  Biso   1.000  C
  C80      1.0000 0.68592  0.61742  0.42601  Biso   1.000  C
  H89      1.0000 0.68639  0.61971  0.38020  Biso   1.000  H
  H90      1.0000 0.61880  0.54670  0.39300  Biso   1.000  H
  C81      1.0000 0.37918  0.63509  0.40607  Biso   1.000  C
  H91      1.0000 0.40810  0.55199  0.40561  Biso   1.000  H
  H92      1.0000 0.65271  0.60410  0.46939  Biso   1.000  H
  H93      1.0000 0.59882  0.53600  0.44950  Biso   1.000  H
  C82      1.0000 0.53676  0.64741  0.31541  Biso   1.000  C
  H94      1.0000 0.59938  0.71078  0.35131  Biso   1.000  H
  H95      1.0000 0.71570  0.59329  0.42781  Biso   1.000  H
  H96      1.0000 0.71888  0.67071  0.42810  Biso   1.000  H
  C83      1.0000 0.40938  0.71267  0.40601  Biso   1.000  C
  C84      1.0000 0.30332  0.59062  0.40601  Biso   1.000  C
  C85      1.0000 0.48490  0.57468  0.30630  Biso   1.000  C
  C86      1.0000 0.55715  0.70509  0.29570  Biso   1.000  C
  H97      1.0000 0.46090  0.74349  0.40589  Biso   1.000  H
  C87      1.0000 0.36491  0.74411  0.40607  Biso   1.000  C
  C88      1.0000 0.25592  0.62082  0.40607  Biso   1.000  C
  H98      1.0000 0.28259  0.53912  0.40589  Biso   1.000  H
  C89      1.0000 0.45422  0.56063  0.27787  Biso   1.000  C
  H99      1.0000 0.47082  0.53533  0.31950  Biso   1.000  H
  C90      1.0000 0.52792  0.69200  0.26687  Biso   1.000  C
  H100     1.0000 0.59092  0.75353  0.30161  Biso   1.000  H
  C91      1.0000 0.28728  0.69668  0.40601  Biso   1.000  C
  C92      1.0000 0.39696  0.82548  0.40841  Biso   1.000  C
  C93      1.0000 0.17454  0.57150  0.40841  Biso   1.000  C
  C94      1.0000 0.40052  0.48383  0.26936  Biso   1.000  C
  C95      1.0000 0.47628  0.62010  0.25807  Biso   1.000  C
  C96      1.0000 0.55409  0.75408  0.24558  Biso   1.000  C
  H101     1.0000 0.25652  0.71741  0.40589  Biso   1.000  H
  N15      1.0000 0.35868  0.85463  0.41390  Biso   1.000  N
  H102     1.0000 0.44797  0.85608  0.40561  Biso   1.000  H
  N16      1.0000 0.14536  0.50406  0.41390  Biso   1.000  N
  H103     1.0000 0.14391  0.59190  0.40561  Biso   1.000  H
  N17      1.0000 0.37349  0.46365  0.24407  Biso   1.000  N
  H104     1.0000 0.38550  0.44732  0.28401  Biso   1.000  H
  H105     1.0000 0.45639  0.61140  0.23900  Biso   1.000  H
  N18      1.0000 0.60533  0.81940  0.25176  Biso   1.000  N
  H106     1.0000 0.53221  0.74489  0.22691  Biso   1.000  H
  C97      1.0000 0.39502  0.93533  0.41661  Biso   1.000  C
  C98      1.0000 0.06463  0.45970  0.41661  Biso   1.000  C
  C99      1.0000 0.32209  0.38412  0.23911  Biso   1.000  C
  C100     1.0000 0.62966  0.87609  0.22884  Biso   1.000  C
  C101     1.0000 0.36642  0.96520  0.39167  Biso   1.000  C
  H107     1.0000 0.44910  0.95690  0.41461  Biso   1.000  H
  C102     1.0000 0.37777  0.95478  0.44690  Biso   1.000  C
  C103     1.0000 0.03477  0.40123  0.39167  Biso   1.000  C
  H108     1.0000 0.04308  0.49219  0.41461  Biso   1.000  H
  C104     1.0000 0.04523  0.42302  0.44690  Biso   1.000  C
  C105     1.0000 0.35551  0.35558  0.21591  Biso   1.000  C
  C106     1.0000 0.24640  0.37030  0.22884  Biso   1.000  C
  H109     1.0000 0.31578  0.35731  0.25780  Biso   1.000  H
  H110     1.0000 0.60203  0.85413  0.21039  Biso   1.000  H
  C107     1.0000 0.71301  0.90869  0.22335  Biso   1.000  C
  C108     1.0000 0.61588  0.93801  0.23911  Biso   1.000  C
  N19      1.0000 0.38852  0.94926  0.36311  Biso   1.000  N
  H111     1.0000 0.31199  0.94090  0.39269  Biso   1.000  H
  C109     1.0000 0.39970  0.04797  0.39549  Biso   1.000  C
  H112     1.0000 0.39843  0.93723  0.46219  Biso   1.000  H
  H113     1.0000 0.32420  0.92970  0.44970  Biso   1.000  H
  C110     1.0000 0.41009  0.03816  0.45024  Biso   1.000  C
  N20      1.0000 0.05076  0.43930  0.36311  Biso   1.000  N
  H114     1.0000 0.05908  0.37108  0.39269  Biso   1.000  H
  C111     1.0000 0.95198  0.35168  0.39549  Biso   1.000  C
  H115     1.0000 0.06282  0.46120  0.46219  Biso   1.000  H
  H116     1.0000 0.07030  0.39449  0.44970  Biso   1.000  H
  C112     1.0000 0.96180  0.37191  0.45024  Biso   1.000  C
  C113     1.0000 0.30593  0.27321  0.21084  Biso   1.000  C
  H117     1.0000 0.36201  0.38200  0.19730  Biso   1.000  H
  H118     1.0000 0.40410  0.36539  0.22251  Biso   1.000  H
  C114     1.0000 0.19566  0.28698  0.22335  Biso   1.000  C
  N21      1.0000 0.21408  0.39465  0.25176  Biso   1.000  N
  H119     1.0000 0.25209  0.39800  0.21039  Biso   1.000  H
  C115     1.0000 0.74418  0.97200  0.20139  Biso   1.000  C
  H120     1.0000 0.73938  0.92630  0.24200  Biso   1.000  H
  H121     1.0000 0.72161  0.86962  0.21599  Biso   1.000  H
  N22      1.0000 0.53636  0.90986  0.24407  Biso   1.000  N
  H122     1.0000 0.64269  0.95852  0.25780  Biso   1.000  H
  C116     1.0000 0.64443  0.99993  0.21591  Biso   1.000  C
  C117     1.0000 0.33843  0.90824  0.34528  Biso   1.000  C
  C118     1.0000 0.38258  0.06848  0.42601  Biso   1.000  C
  H123     1.0000 0.38029  0.06670  0.38020  Biso   1.000  H
  H124     1.0000 0.45332  0.07210  0.39300  Biso   1.000  H
  H125     1.0000 0.39590  0.04858  0.46939  Biso   1.000  H
  H126     1.0000 0.46402  0.06279  0.44950  Biso   1.000  H
  C119     1.0000 0.09176  0.43016  0.34528  Biso   1.000  C
  C120     1.0000 0.93151  0.31412  0.42601  Biso   1.000  C
  H127     1.0000 0.93333  0.31362  0.38020  Biso   1.000  H
  H128     1.0000 0.92789  0.38122  0.39300  Biso   1.000  H
  H129     1.0000 0.95137  0.34728  0.46939  Biso   1.000  H
  H130     1.0000 0.93719  0.40117  0.44950  Biso   1.000  H
  C121     1.0000 0.22782  0.25582  0.20139  Biso   1.000  C
  H131     1.0000 0.30261  0.24640  0.22900  Biso   1.000  H
  H132     1.0000 0.32731  0.25671  0.19550  Biso   1.000  H
  H133     1.0000 0.18692  0.26061  0.24200  Biso   1.000  H
  H134     1.0000 0.14798  0.27839  0.21599  Biso   1.000  H
  C122     1.0000 0.20001  0.44587  0.24558  Biso   1.000  C
  H135     1.0000 0.72301  0.95322  0.18190  Biso   1.000  H
  H136     1.0000 0.79780  0.99313  0.19999  Biso   1.000  H
  C123     1.0000 0.72679  0.03270  0.21084  Biso   1.000  C
  C124     1.0000 0.51618  0.91672  0.26936  Biso   1.000  C
  H137     1.0000 0.61799  0.97997  0.19730  Biso   1.000  H
  H138     1.0000 0.63459  0.03866  0.22251  Biso   1.000  H
  C125     1.0000 0.35258  0.88935  0.31541  Biso   1.000  C
  H139     1.0000 0.28923  0.88863  0.35131  Biso   1.000  H
  H140     1.0000 0.40668  0.12237  0.42781  Biso   1.000  H
  H141     1.0000 0.32929  0.04819  0.42810  Biso   1.000  H
  C126     1.0000 0.11067  0.46326  0.31541  Biso   1.000  C
  H142     1.0000 0.11140  0.40062  0.35131  Biso   1.000  H
  H143     1.0000 0.87760  0.28430  0.42781  Biso   1.000  H
  H144     1.0000 0.95179  0.28112  0.42810  Biso   1.000  H
  H145     1.0000 0.23021  0.27700  0.18190  Biso   1.000  H
  H146     1.0000 0.19532  0.20220  0.19999  Biso   1.000  H
  C127     1.0000 0.16410  0.47212  0.26687  Biso   1.000  C
  H147     1.0000 0.21270  0.46778  0.22691  Biso   1.000  H
  H148     1.0000 0.75359  0.05616  0.22900  Biso   1.000  H
  H149     1.0000 0.74328  0.07060  0.19550  Biso   1.000  H
  C128     1.0000 0.43936  0.89359  0.27787  Biso   1.000  C
  H150     1.0000 0.55269  0.93817  0.28401  Biso   1.000  H
  C129     1.0000 0.42532  0.91019  0.30630  Biso   1.000  C
  C130     1.0000 0.29494  0.85206  0.29570  Biso   1.000  C
  C131     1.0000 0.14797  0.44286  0.29570  Biso   1.000  C
  C132     1.0000 0.08982  0.51510  0.30630  Biso   1.000  C
  C133     1.0000 0.14378  0.52368  0.25807  Biso   1.000  C
  C134     1.0000 0.37988  0.85619  0.25807  Biso   1.000  C
  H151     1.0000 0.46471  0.93550  0.31950  Biso   1.000  H
  C135     1.0000 0.30800  0.83590  0.26687  Biso   1.000  C
  H152     1.0000 0.24649  0.83741  0.30161  Biso   1.000  H
  H153     1.0000 0.16260  0.40909  0.30161  Biso   1.000  H
  C136     1.0000 0.10643  0.54580  0.27787  Biso   1.000  C
  H154     1.0000 0.06448  0.52920  0.31950  Biso   1.000  H
  H155     1.0000 0.15498  0.54358  0.23900  Biso   1.000  H
  H156     1.0000 0.38861  0.84499  0.23900  Biso   1.000  H
  C137     1.0000 0.24589  0.80001  0.24558  Biso   1.000  C
  C138     1.0000 0.08331  0.59948  0.26936  Biso   1.000  C
  N23      1.0000 0.18058  0.78591  0.25176  Biso   1.000  N
  H157     1.0000 0.25512  0.78730  0.22691  Biso   1.000  H
  N24      1.0000 0.09016  0.62651  0.24407  Biso   1.000  N
  H158     1.0000 0.06182  0.61452  0.28401  Biso   1.000  H
  C139     1.0000 0.12392  0.75358  0.22884  Biso   1.000  C
  C140     1.0000 0.06199  0.67789  0.23911  Biso   1.000  C
  H159     1.0000 0.14589  0.74790  0.21039  Biso   1.000  H
  C141     1.0000 0.09131  0.80430  0.22335  Biso   1.000  C
  H160     1.0000 0.04149  0.68419  0.25780  Biso   1.000  H
  C142     1.0000 0.00012  0.64451  0.21591  Biso   1.000  C
  C143     1.0000 0.02800  0.77220  0.20139  Biso   1.000  C
  H161     1.0000 0.07370  0.81311  0.24200  Biso   1.000  H
  H162     1.0000 0.13042  0.85201  0.21599  Biso   1.000  H
  H163     1.0000 0.01998  0.63799  0.19730  Biso   1.000  H
  C144     1.0000 0.96729  0.69411  0.21084  Biso   1.000  C
  H164     1.0000 0.96129  0.59591  0.22251  Biso   1.000  H
  H165     1.0000 0.04679  0.76980  0.18190  Biso   1.000  H
  H166     1.0000 0.00689  0.80469  0.19999  Biso   1.000  H
  H167     1.0000 0.94379  0.69740  0.22900  Biso   1.000  H
  H168     1.0000 0.92941  0.67271  0.19550  Biso   1.000  H
  C145     1.0000 0.62223  0.57702  0.55310  Biso   1.000  C
  C146     1.0000 0.60492  0.54029  0.58339  Biso   1.000  C
  H169     1.0000 0.60161  0.53878  0.53781  Biso   1.000  H
  H170     1.0000 0.67581  0.60550  0.55030  Biso   1.000  H
  C147     1.0000 0.58991  0.62812  0.54976  Biso   1.000  C
  N25      1.0000 0.64132  0.49598  0.58610  Biso   1.000  N
  H171     1.0000 0.55089  0.50779  0.58539  Biso   1.000  H
  C148     1.0000 0.63356  0.59881  0.60833  Biso   1.000  C
  H172     1.0000 0.60408  0.65270  0.53061  Biso   1.000  H
  H173     1.0000 0.53601  0.59881  0.55050  Biso   1.000  H
  C149     1.0000 0.61741  0.68592  0.57399  Biso   1.000  C
  C150     1.0000 0.60303  0.42848  0.59159  Biso   1.000  C
  N26      1.0000 0.61148  0.56074  0.63689  Biso   1.000  N
  C151     1.0000 0.60029  0.64830  0.60451  Biso   1.000  C
  H174     1.0000 0.68799  0.62890  0.60731  Biso   1.000  H
  H175     1.0000 0.59329  0.71568  0.57219  Biso   1.000  H
  H176     1.0000 0.67068  0.71892  0.57190  Biso   1.000  H
  C152     1.0000 0.63511  0.37922  0.59393  Biso   1.000  C
  H177     1.0000 0.55200  0.40809  0.59439  Biso   1.000  H
  C153     1.0000 0.66159  0.56983  0.65472  Biso   1.000  C
  H178     1.0000 0.61973  0.68642  0.61980  Biso   1.000  H
  H179     1.0000 0.54669  0.61882  0.60700  Biso   1.000  H
  C154     1.0000 0.59059  0.30331  0.59399  Biso   1.000  C
  C155     1.0000 0.71272  0.40942  0.59399  Biso   1.000  C
  H180     1.0000 0.71080  0.59942  0.64869  Biso   1.000  H
  C156     1.0000 0.64743  0.53678  0.68459  Biso   1.000  C
  C157     1.0000 0.62082  0.25593  0.59393  Biso   1.000  C
  H181     1.0000 0.53910  0.28257  0.59411  Biso   1.000  H
  C158     1.0000 0.74408  0.36489  0.59393  Biso   1.000  C
  H182     1.0000 0.74349  0.46092  0.59411  Biso   1.000  H
  C159     1.0000 0.70510  0.55712  0.70430  Biso   1.000  C
  C160     1.0000 0.57472  0.48489  0.69370  Biso   1.000  C
  C161     1.0000 0.57150  0.17456  0.59159  Biso   1.000  C
  C162     1.0000 0.69670  0.28731  0.59399  Biso   1.000  C
  C163     1.0000 0.82546  0.39694  0.59159  Biso   1.000  C
  H183     1.0000 0.75350  0.59089  0.69839  Biso   1.000  H
  C164     1.0000 0.69199  0.52791  0.73313  Biso   1.000  C
  C165     1.0000 0.56062  0.45418  0.72213  Biso   1.000  C
  H184     1.0000 0.53528  0.47079  0.68050  Biso   1.000  H
  N27      1.0000 0.50404  0.14535  0.58610  Biso   1.000  N
  H185     1.0000 0.59189  0.14391  0.59439  Biso   1.000  H
  H186     1.0000 0.71739  0.25649  0.59411  Biso   1.000  H
  N28      1.0000 0.85463  0.35865  0.58610  Biso   1.000  N
  H187     1.0000 0.85610  0.44799  0.59439  Biso   1.000  H
  C166     1.0000 0.62009  0.47630  0.74193  Biso   1.000  C
  C167     1.0000 0.75413  0.55411  0.75442  Biso   1.000  C
  C168     1.0000 0.48382  0.40051  0.73064  Biso   1.000  C
  C169     1.0000 0.45968  0.06465  0.58339  Biso   1.000  C
  C170     1.0000 0.93533  0.39504  0.58339  Biso   1.000  C
  H188     1.0000 0.61140  0.45641  0.76100  Biso   1.000  H
  N29      1.0000 0.81941  0.60533  0.74824  Biso   1.000  N
  H189     1.0000 0.74491  0.53221  0.77309  Biso   1.000  H
  N30      1.0000 0.46367  0.37353  0.75593  Biso   1.000  N
  H190     1.0000 0.44732  0.38551  0.71599  Biso   1.000  H
  C171     1.0000 0.42298  0.04520  0.55310  Biso   1.000  C
  H191     1.0000 0.49219  0.04308  0.58539  Biso   1.000  H
  C172     1.0000 0.40121  0.03478  0.60833  Biso   1.000  C
  H192     1.0000 0.95691  0.44911  0.58539  Biso   1.000  H
  C173     1.0000 0.95482  0.37782  0.55310  Biso   1.000  C
  C174     1.0000 0.96525  0.36645  0.60833  Biso   1.000  C
  C175     1.0000 0.87609  0.62968  0.77116  Biso   1.000  C
  C176     1.0000 0.38409  0.32209  0.76089  Biso   1.000  C
  H193     1.0000 0.46123  0.06281  0.53781  Biso   1.000  H
  H194     1.0000 0.39449  0.07028  0.55030  Biso   1.000  H
  C177     1.0000 0.37192  0.96182  0.54976  Biso   1.000  C
  N31      1.0000 0.43928  0.05077  0.63689  Biso   1.000  N
  H195     1.0000 0.37108  0.05908  0.60731  Biso   1.000  H
  C178     1.0000 0.35172  0.95201  0.60451  Biso   1.000  C
  H196     1.0000 0.93720  0.39839  0.53781  Biso   1.000  H
  H197     1.0000 0.92970  0.32421  0.55030  Biso   1.000  H
  C179     1.0000 0.03819  0.41009  0.54976  Biso   1.000  C
  N32      1.0000 0.94926  0.38852  0.63689  Biso   1.000  N
  H198     1.0000 0.94092  0.31200  0.60731  Biso   1.000  H
  C180     1.0000 0.04801  0.39973  0.60451  Biso   1.000  C
  C181     1.0000 0.93796  0.61586  0.76089  Biso   1.000  C
  H199     1.0000 0.85409  0.60198  0.78961  Biso   1.000  H
  C182     1.0000 0.90868  0.71301  0.77665  Biso   1.000  C
  C183     1.0000 0.37033  0.24640  0.77116  Biso   1.000  C
  H200     1.0000 0.35729  0.31579  0.74220  Biso   1.000  H
  C184     1.0000 0.35560  0.35547  0.78409  Biso   1.000  C
  H201     1.0000 0.34731  0.95140  0.53061  Biso   1.000  H
  H202     1.0000 0.40124  0.93724  0.55050  Biso   1.000  H
  C185     1.0000 0.31410  0.93150  0.57399  Biso   1.000  C
  C186     1.0000 0.43017  0.09174  0.65472  Biso   1.000  C
  H203     1.0000 0.31362  0.93334  0.61980  Biso   1.000  H
  H204     1.0000 0.38124  0.92794  0.60700  Biso   1.000  H
  H205     1.0000 0.04860  0.39588  0.53061  Biso   1.000  H
  H206     1.0000 0.06282  0.46399  0.55050  Biso   1.000  H
  C187     1.0000 0.06852  0.38262  0.57399  Biso   1.000  C
  C188     1.0000 0.90823  0.33842  0.65472  Biso   1.000  C
  H207     1.0000 0.06667  0.38027  0.61980  Biso   1.000  H
  H208     1.0000 0.07209  0.45329  0.60700  Biso   1.000  H
  N33      1.0000 0.90983  0.53633  0.75593  Biso   1.000  N
  H209     1.0000 0.95849  0.64273  0.74220  Biso   1.000  H
  C189     1.0000 0.99992  0.64440  0.78409  Biso   1.000  C
  C190     1.0000 0.97202  0.74422  0.79861  Biso   1.000  C
  H210     1.0000 0.92633  0.73943  0.75800  Biso   1.000  H
  H211     1.0000 0.86958  0.72159  0.78401  Biso   1.000  H
  N34      1.0000 0.39466  0.21407  0.74824  Biso   1.000  N
  H212     1.0000 0.39798  0.25209  0.78961  Biso   1.000  H
  C191     1.0000 0.28700  0.19568  0.77665  Biso   1.000  C
  C192     1.0000 0.27320  0.30592  0.78916  Biso   1.000  C
  H213     1.0000 0.38198  0.36199  0.80270  Biso   1.000  H
  H214     1.0000 0.36537  0.40407  0.77749  Biso   1.000  H
  H215     1.0000 0.28430  0.87761  0.57219  Biso   1.000  H
  H216     1.0000 0.28109  0.95179  0.57190  Biso   1.000  H
  H217     1.0000 0.40062  0.11141  0.64869  Biso   1.000  H
  C193     1.0000 0.46322  0.11063  0.68459  Biso   1.000  C
  H218     1.0000 0.12240  0.40669  0.57219  Biso   1.000  H
  H219     1.0000 0.04817  0.32928  0.57190  Biso   1.000  H
  H220     1.0000 0.88859  0.28920  0.64869  Biso   1.000  H
  C194     1.0000 0.88934  0.35257  0.68459  Biso   1.000  C
  C195     1.0000 0.91671  0.51621  0.73064  Biso   1.000  C
  H221     1.0000 0.98000  0.61798  0.80270  Biso   1.000  H
  C196     1.0000 0.03271  0.72677  0.78916  Biso   1.000  C
  H222     1.0000 0.03870  0.63459  0.77749  Biso   1.000  H
  H223     1.0000 0.95320  0.72298  0.81810  Biso   1.000  H
  H224     1.0000 0.99311  0.79778  0.80001  Biso   1.000  H
  C197     1.0000 0.44587  0.19997  0.75442  Biso   1.000  C
  C198     1.0000 0.25580  0.22779  0.79861  Biso   1.000  C
  H225     1.0000 0.26059  0.18688  0.75800  Biso   1.000  H
  H226     1.0000 0.27840  0.14797  0.78401  Biso   1.000  H
  H227     1.0000 0.24638  0.30258  0.77100  Biso   1.000  H
  H228     1.0000 0.25672  0.32733  0.80450  Biso   1.000  H
  C199     1.0000 0.44289  0.14797  0.70430  Biso   1.000  C
  C200     1.0000 0.51511  0.08979  0.69370  Biso   1.000  C
  C201     1.0000 0.85208  0.29495  0.70430  Biso   1.000  C
  C202     1.0000 0.91021  0.42531  0.69370  Biso   1.000  C
  C203     1.0000 0.89358  0.43935  0.72213  Biso   1.000  C
  H229     1.0000 0.93820  0.55272  0.71599  Biso   1.000  H
  H230     1.0000 0.05620  0.75358  0.77100  Biso   1.000  H
  H231     1.0000 0.07062  0.74333  0.80450  Biso   1.000  H
  C204     1.0000 0.47209  0.16408  0.73313  Biso   1.000  C
  H232     1.0000 0.46781  0.21268  0.77309  Biso   1.000  H
  H233     1.0000 0.27698  0.23018  0.81810  Biso   1.000  H
  H234     1.0000 0.20219  0.19529  0.80001  Biso   1.000  H
  H235     1.0000 0.40907  0.16258  0.69839  Biso   1.000  H
  C205     1.0000 0.54577  0.10640  0.72213  Biso   1.000  C
  H236     1.0000 0.52920  0.06448  0.68050  Biso   1.000  H
  C206     1.0000 0.83591  0.30799  0.73313  Biso   1.000  C
  H237     1.0000 0.83742  0.24651  0.69839  Biso   1.000  H
  H238     1.0000 0.93551  0.46471  0.68050  Biso   1.000  H
  C207     1.0000 0.85617  0.37988  0.74193  Biso   1.000  C
  C208     1.0000 0.52368  0.14379  0.74193  Biso   1.000  C
  C209     1.0000 0.59946  0.08327  0.73064  Biso   1.000  C
  C210     1.0000 0.79999  0.24590  0.75442  Biso   1.000  C
  H239     1.0000 0.84498  0.38858  0.76100  Biso   1.000  H
  H240     1.0000 0.54361  0.15500  0.76100  Biso   1.000  H
  N35      1.0000 0.62649  0.09012  0.75593  Biso   1.000  N
  H241     1.0000 0.61450  0.06181  0.71599  Biso   1.000  H
  N36      1.0000 0.78592  0.18058  0.74824  Biso   1.000  N
  H242     1.0000 0.78731  0.25510  0.77309  Biso   1.000  H
  C211     1.0000 0.67789  0.06203  0.76089  Biso   1.000  C
  C212     1.0000 0.75357  0.12390  0.77116  Biso   1.000  C
  H243     1.0000 0.68419  0.04152  0.74220  Biso   1.000  H
  C213     1.0000 0.64452  0.00011  0.78409  Biso   1.000  C
  H244     1.0000 0.74792  0.14591  0.78961  Biso   1.000  H
  C214     1.0000 0.80431  0.09129  0.77665  Biso   1.000  C
  H245     1.0000 0.63801  0.02001  0.80270  Biso   1.000  H
  C215     1.0000 0.69411  0.96734  0.78916  Biso   1.000  C
  H246     1.0000 0.59592  0.96132  0.77749  Biso   1.000  H
  C216     1.0000 0.77217  0.02798  0.79861  Biso   1.000  C
  H247     1.0000 0.81307  0.07368  0.75800  Biso   1.000  H
  H248     1.0000 0.85201  0.13042  0.78401  Biso   1.000  H
  H249     1.0000 0.69741  0.94382  0.77100  Biso   1.000  H
  H250     1.0000 0.67270  0.92944  0.80450  Biso   1.000  H
  H251     1.0000 0.76981  0.04682  0.81810  Biso   1.000  H
  H252     1.0000 0.80469  0.00691  0.80001  Biso   1.000  H
  C217     1.0000 0.89447  0.58911  0.53474  Biso   1.000  C
  H253     1.0000 0.89688  0.61034  0.51522  Biso   1.000  H
  H254     1.0000 0.86199  0.53555  0.53334  Biso   1.000  H
  C218     1.0000 0.86234  0.62032  0.55668  Biso   1.000  C
  C219     1.0000 0.97260  0.60655  0.54416  Biso   1.000  C
  C220     1.0000 0.91307  0.70364  0.56217  Biso   1.000  C
  H255     1.0000 0.85360  0.59396  0.57532  Biso   1.000  H
  H256     1.0000 0.81465  0.61174  0.54934  Biso   1.000  H
  H257     1.0000 0.96928  0.57975  0.56234  Biso   1.000  H
  H258     1.0000 0.99399  0.59006  0.52883  Biso   1.000  H
  C221     1.0000 0.02218  0.68893  0.54923  Biso   1.000  C
  N37      1.0000 0.88075  0.72800  0.58508  Biso   1.000  N
  H259     1.0000 0.91877  0.73134  0.54374  Biso   1.000  H
  C222     1.0000 0.98876  0.71747  0.57244  Biso   1.000  C
  H260     1.0000 0.02868  0.71535  0.53063  Biso   1.000  H
  H261     1.0000 0.07077  0.69874  0.55583  Biso   1.000  H
  C223     1.0000 0.86668  0.77922  0.57890  Biso   1.000  C
  H262     1.0000 0.98246  0.69066  0.59113  Biso   1.000  H
  N38      1.0000 0.04016  0.79700  0.57739  Biso   1.000  N
  C224     1.0000 0.83074  0.80541  0.60020  Biso   1.000  C
  H263     1.0000 0.87937  0.80112  0.56023  Biso   1.000  H
  C225     1.0000 0.06717  0.81712  0.60268  Biso   1.000  C
  C226     1.0000 0.81464  0.77621  0.62902  Biso   1.000  C
  C227     1.0000 0.81045  0.85702  0.59139  Biso   1.000  C
  C228     1.0000 0.12089  0.89398  0.61122  Biso   1.000  C
  H264     1.0000 0.05215  0.78061  0.61733  Biso   1.000  H
  C229     1.0000 0.77732  0.79655  0.64876  Biso   1.000  C
  H265     1.0000 0.82927  0.74243  0.63494  Biso   1.000  H
  H266     1.0000 0.82165  0.87692  0.57232  Biso   1.000  H
  C230     1.0000 0.77310  0.87915  0.61122  Biso   1.000  C
  C231     1.0000 0.14295  0.95344  0.59139  Biso   1.000  C
  C232     1.0000 0.15157  0.90802  0.63962  Biso   1.000  C
  C233     1.0000 0.75843  0.76350  0.67861  Biso   1.000  C
  C234     1.0000 0.75649  0.84844  0.63962  Biso   1.000  C
  C235     1.0000 0.74998  0.93282  0.60268  Biso   1.000  C
  H267     1.0000 0.12307  0.94475  0.57232  Biso   1.000  H
  C236     1.0000 0.19459  0.02534  0.60020  Biso   1.000  C
  C237     1.0000 0.20343  0.98075  0.64876  Biso   1.000  C
  H268     1.0000 0.13747  0.86862  0.65283  Biso   1.000  H
  N39      1.0000 0.71741  0.77259  0.69646  Biso   1.000  N
  H269     1.0000 0.77805  0.73391  0.68463  Biso   1.000  H
  H270     1.0000 0.73116  0.86254  0.65283  Biso   1.000  H
  N40      1.0000 0.75681  0.95980  0.57739  Biso   1.000  N
  H271     1.0000 0.72847  0.94782  0.61733  Biso   1.000  H
  C238     1.0000 0.22380  0.03838  0.62902  Biso   1.000  C
  C239     1.0000 0.22076  0.08743  0.57890  Biso   1.000  C
  C240     1.0000 0.23647  0.99491  0.67861  Biso   1.000  C
  C241     1.0000 0.70141  0.73452  0.72500  Biso   1.000  C
  C242     1.0000 0.72866  0.01124  0.57244  Biso   1.000  C
  H272     1.0000 0.25757  0.08682  0.63494  Biso   1.000  H
  N41      1.0000 0.27197  0.15269  0.58508  Biso   1.000  N
  H273     1.0000 0.19888  0.07823  0.56023  Biso   1.000  H
  N42      1.0000 0.22740  0.94481  0.69646  Biso   1.000  N
  H274     1.0000 0.26605  0.04412  0.68463  Biso   1.000  H
  C243     1.0000 0.73130  0.79304  0.74993  Biso   1.000  C
  C244     1.0000 0.61865  0.68503  0.72884  Biso   1.000  C
  H275     1.0000 0.72575  0.70442  0.72604  Biso   1.000  H
  C245     1.0000 0.66679  0.97786  0.54923  Biso   1.000  C
  C246     1.0000 0.79056  0.08687  0.56217  Biso   1.000  C
  H276     1.0000 0.70816  0.01754  0.59113  Biso   1.000  H
  C247     1.0000 0.29634  0.20943  0.56217  Biso   1.000  C
  C248     1.0000 0.26546  0.96688  0.72500  Biso   1.000  C
  N43      1.0000 0.81200  0.83735  0.74724  Biso   1.000  N
  H277     1.0000 0.70976  0.82553  0.74793  Biso   1.000  H
  C249     1.0000 0.71188  0.75631  0.78023  Biso   1.000  C
  C250     1.0000 0.59815  0.64741  0.75936  Biso   1.000  C
  H278     1.0000 0.59998  0.64691  0.71353  Biso   1.000  H
  H279     1.0000 0.59454  0.71451  0.72633  Biso   1.000  H
  H280     1.0000 0.68665  0.97134  0.53063  Biso   1.000  H
  H281     1.0000 0.62796  0.92926  0.55583  Biso   1.000  H
  C251     1.0000 0.63394  0.02740  0.54416  Biso   1.000  C
  N44      1.0000 0.84725  0.11925  0.58508  Biso   1.000  N
  H282     1.0000 0.81256  0.08124  0.54374  Biso   1.000  H
  C252     1.0000 0.75795  0.13759  0.55668  Biso   1.000  C
  H283     1.0000 0.26868  0.18742  0.54374  Biso   1.000  H
  C253     1.0000 0.37968  0.24204  0.55668  Biso   1.000  C
  C254     1.0000 0.28253  0.27130  0.57244  Biso   1.000  C
  C255     1.0000 0.20695  0.93828  0.74993  Biso   1.000  C
  C256     1.0000 0.31498  0.93366  0.72884  Biso   1.000  C
  H284     1.0000 0.29559  0.02133  0.72604  Biso   1.000  H
  C257     1.0000 0.84121  0.90484  0.74175  Biso   1.000  C
  H285     1.0000 0.72950  0.79455  0.79554  Biso   1.000  H
  H286     1.0000 0.73697  0.72783  0.78303  Biso   1.000  H
  C258     1.0000 0.62848  0.70526  0.78358  Biso   1.000  C
  H287     1.0000 0.54427  0.61765  0.76114  Biso   1.000  H
  H288     1.0000 0.61843  0.61441  0.76142  Biso   1.000  H
  C259     1.0000 0.69468  0.10554  0.53474  Biso   1.000  C
  H289     1.0000 0.61043  0.03069  0.56234  Biso   1.000  H
  H290     1.0000 0.59606  0.00600  0.52883  Biso   1.000  H
  C260     1.0000 0.91253  0.13330  0.57890  Biso   1.000  C
  H291     1.0000 0.74035  0.14640  0.57532  Biso   1.000  H
  H292     1.0000 0.79706  0.18530  0.54934  Biso   1.000  H
  C261     1.0000 0.41083  0.30529  0.53474  Biso   1.000  C
  H293     1.0000 0.40603  0.25959  0.57532  Biso   1.000  H
  H294     1.0000 0.38826  0.20291  0.54934  Biso   1.000  H
  N45      1.0000 0.20300  0.24315  0.57739  Biso   1.000  N
  H295     1.0000 0.30934  0.29181  0.59113  Biso   1.000  H
  C262     1.0000 0.31107  0.33322  0.54923  Biso   1.000  C
  N46      1.0000 0.16265  0.97468  0.74724  Biso   1.000  N
  H296     1.0000 0.17447  0.88422  0.74793  Biso   1.000  H
  C263     1.0000 0.24366  0.95551  0.78023  Biso   1.000  C
  C264     1.0000 0.35256  0.95071  0.75936  Biso   1.000  C
  H297     1.0000 0.35306  0.95305  0.71353  Biso   1.000  H
  H298     1.0000 0.28547  0.88004  0.72633  Biso   1.000  H
  C265     1.0000 0.92259  0.95417  0.73942  Biso   1.000  C
  H299     1.0000 0.81058  0.92524  0.73893  Biso   1.000  H
  H300     1.0000 0.61804  0.68063  0.80274  Biso   1.000  H
  H301     1.0000 0.60387  0.73452  0.78283  Biso   1.000  H
  H302     1.0000 0.71343  0.10309  0.51522  Biso   1.000  H
  H303     1.0000 0.67356  0.13804  0.53334  Biso   1.000  H
  C266     1.0000 0.97464  0.16919  0.60020  Biso   1.000  C
  H304     1.0000 0.92177  0.12059  0.56023  Biso   1.000  H
  H305     1.0000 0.38966  0.28651  0.51522  Biso   1.000  H
  H306     1.0000 0.46444  0.32642  0.53334  Biso   1.000  H
  C267     1.0000 0.39344  0.36599  0.54416  Biso   1.000  C
  C268     1.0000 0.18283  0.25001  0.60268  Biso   1.000  C
  H307     1.0000 0.28466  0.31332  0.53063  Biso   1.000  H
  H308     1.0000 0.30127  0.37201  0.55583  Biso   1.000  H
  C269     1.0000 0.09519  0.93639  0.74175  Biso   1.000  C
  H309     1.0000 0.20548  0.93494  0.79554  Biso   1.000  H
  C270     1.0000 0.29476  0.92324  0.78358  Biso   1.000  C
  H310     1.0000 0.27215  0.00912  0.78303  Biso   1.000  H
  H311     1.0000 0.38237  0.92664  0.76114  Biso   1.000  H
  H312     1.0000 0.38553  0.00400  0.76142  Biso   1.000  H
  C271     1.0000 0.96999  0.92396  0.73933  Biso   1.000  C
  C272     1.0000 0.95395  0.03002  0.73933  Biso   1.000  C
  C273     1.0000 0.96158  0.18535  0.62902  Biso   1.000  C
  C274     1.0000 0.04655  0.18953  0.59139  Biso   1.000  C
  H313     1.0000 0.42026  0.38951  0.56234  Biso   1.000  H
  H314     1.0000 0.40993  0.40389  0.52883  Biso   1.000  H
  C275     1.0000 0.10600  0.22688  0.61122  Biso   1.000  C
  H315     1.0000 0.21936  0.27152  0.61733  Biso   1.000  H
  C276     1.0000 0.04586  0.96844  0.73942  Biso   1.000  C
  H316     1.0000 0.07478  0.88534  0.73893  Biso   1.000  H
  H317     1.0000 0.31939  0.93745  0.80274  Biso   1.000  H
  H318     1.0000 0.26549  0.86934  0.78283  Biso   1.000  H
  H319     1.0000 0.94924  0.87241  0.73924  Biso   1.000  H
  H320     1.0000 0.92317  0.05070  0.73924  Biso   1.000  H
  C277     1.0000 0.03156  0.07740  0.73942  Biso   1.000  C
  H321     1.0000 0.91313  0.17070  0.63494  Biso   1.000  H
  C278     1.0000 0.01925  0.22270  0.64876  Biso   1.000  C
  H322     1.0000 0.05528  0.17833  0.57232  Biso   1.000  H
  C279     1.0000 0.09199  0.24354  0.63962  Biso   1.000  C
  C280     1.0000 0.07606  0.04602  0.73933  Biso   1.000  C
  C281     1.0000 0.06360  0.15877  0.74175  Biso   1.000  C
  C282     1.0000 0.00507  0.24153  0.67861  Biso   1.000  C
  H323     1.0000 0.13135  0.26879  0.65283  Biso   1.000  H
  H324     1.0000 0.12757  0.07684  0.73924  Biso   1.000  H
  N47      1.0000 0.02532  0.18792  0.74724  Biso   1.000  N
  H325     1.0000 0.11465  0.18942  0.73893  Biso   1.000  H
  H326     1.0000 0.95588  0.22192  0.68463  Biso   1.000  H
  N48      1.0000 0.05517  0.28255  0.69646  Biso   1.000  N
  C283     1.0000 0.06170  0.26868  0.74993  Biso   1.000  C
  C284     1.0000 0.03310  0.29855  0.72500  Biso   1.000  C
  H327     1.0000 0.11575  0.29019  0.74793  Biso   1.000  H
  C285     1.0000 0.04444  0.28813  0.78023  Biso   1.000  C
  H328     1.0000 0.97864  0.27419  0.72604  Biso   1.000  H
  C286     1.0000 0.06637  0.38132  0.72884  Biso   1.000  C
  H329     1.0000 0.99085  0.26299  0.78303  Biso   1.000  H
  H330     1.0000 0.06508  0.27052  0.79554  Biso   1.000  H
  C287     1.0000 0.07677  0.37151  0.78358  Biso   1.000  C
  C288     1.0000 0.04926  0.40183  0.75936  Biso   1.000  C
  H331     1.0000 0.04697  0.40004  0.71353  Biso   1.000  H
  H332     1.0000 0.11997  0.40539  0.72633  Biso   1.000  H
  H333     1.0000 0.06257  0.38193  0.80274  Biso   1.000  H
  H334     1.0000 0.13069  0.39614  0.78283  Biso   1.000  H
  H335     1.0000 0.99596  0.38154  0.76142  Biso   1.000  H
  H336     1.0000 0.07336  0.45572  0.76114  Biso   1.000  H
  C289     1.0000 0.43884  0.36132  0.13193  Biso   1.000  C
  C290     1.0000 0.36076  0.30063  0.12249  Biso   1.000  C
  H337     1.0000 0.43646  0.38011  0.15143  Biso   1.000  H
  H338     1.0000 0.47136  0.34026  0.13333  Biso   1.000  H
  C291     1.0000 0.47098  0.42464  0.11000  Biso   1.000  C
  H339     1.0000 0.36406  0.27711  0.10433  Biso   1.000  H
  H340     1.0000 0.33935  0.26273  0.13782  Biso   1.000  H
  C292     1.0000 0.31119  0.33346  0.11744  Biso   1.000  C
  C293     1.0000 0.42024  0.45724  0.10451  Biso   1.000  C
  H341     1.0000 0.47975  0.40703  0.09133  Biso   1.000  H
  H342     1.0000 0.51866  0.46371  0.11733  Biso   1.000  H
  C294     1.0000 0.34454  0.39532  0.09422  Biso   1.000  C
  H343     1.0000 0.30468  0.35335  0.13602  Biso   1.000  H
  H344     1.0000 0.26257  0.29461  0.11084  Biso   1.000  H
  N49      1.0000 0.45259  0.51392  0.08159  Biso   1.000  N
  H345     1.0000 0.41460  0.47926  0.12293  Biso   1.000  H
  N50      1.0000 0.29316  0.42347  0.08928  Biso   1.000  N
  H346     1.0000 0.35084  0.37481  0.07552  Biso   1.000  H
  C295     1.0000 0.46667  0.57925  0.08777  Biso   1.000  C
  C296     1.0000 0.26613  0.41661  0.06397  Biso   1.000  C
  C297     1.0000 0.50259  0.64133  0.06646  Biso   1.000  C
  H347     1.0000 0.45399  0.58844  0.10644  Biso   1.000  H
  C298     1.0000 0.21244  0.43974  0.05545  Biso   1.000  C
  H348     1.0000 0.28118  0.39516  0.04934  Biso   1.000  H
  C299     1.0000 0.51872  0.62824  0.03765  Biso   1.000  C
  C300     1.0000 0.52285  0.71323  0.07526  Biso   1.000  C
  C301     1.0000 0.19035  0.47714  0.07526  Biso   1.000  C
  C302     1.0000 0.18179  0.42313  0.02703  Biso   1.000  C
  C303     1.0000 0.55601  0.68592  0.01791  Biso   1.000  C
  H349     1.0000 0.50409  0.57986  0.03174  Biso   1.000  H
  H350     1.0000 0.51165  0.72192  0.09433  Biso   1.000  H
  C304     1.0000 0.56026  0.77270  0.05545  Biso   1.000  C
  C305     1.0000 0.13876  0.49743  0.06646  Biso   1.000  C
  H351     1.0000 0.21029  0.48834  0.09433  Biso   1.000  H
  C306     1.0000 0.12990  0.44398  0.01791  Biso   1.000  C
  H352     1.0000 0.19587  0.39783  0.01382  Biso   1.000  H
  C307     1.0000 0.57688  0.75865  0.02703  Biso   1.000  C
  C308     1.0000 0.57487  0.67171  0.98804  Biso   1.000  C
  C309     1.0000 0.58336  0.84950  0.06397  Biso   1.000  C
  C310     1.0000 0.10954  0.48126  0.03765  Biso   1.000  C
  C311     1.0000 0.11254  0.53332  0.08777  Biso   1.000  C
  C312     1.0000 0.09685  0.42508  0.98804  Biso   1.000  C
  H353     1.0000 0.60219  0.79806  0.01382  Biso   1.000  H
  N51      1.0000 0.61593  0.72187  0.97022  Biso   1.000  N
  H354     1.0000 0.55527  0.62255  0.98204  Biso   1.000  H
  N52      1.0000 0.57650  0.86968  0.08928  Biso   1.000  N
  H355     1.0000 0.60484  0.88601  0.04934  Biso   1.000  H
  H356     1.0000 0.07574  0.49592  0.03174  Biso   1.000  H
  N53      1.0000 0.06133  0.54742  0.08159  Biso   1.000  N
  H357     1.0000 0.13449  0.54603  0.10644  Biso   1.000  H
  N54      1.0000 0.10592  0.38406  0.97022  Biso   1.000  N
  H358     1.0000 0.06730  0.44476  0.98204  Biso   1.000  H
  C313     1.0000 0.63192  0.69980  0.94166  Biso   1.000  C
  C314     1.0000 0.60464  0.94921  0.09422  Biso   1.000  C
  C315     1.0000 0.03700  0.57975  0.10451  Biso   1.000  C
  C316     1.0000 0.06788  0.36812  0.94166  Biso   1.000  C
  C317     1.0000 0.60201  0.72839  0.91672  Biso   1.000  C
  C318     1.0000 0.71466  0.73302  0.93783  Biso   1.000  C
  H359     1.0000 0.60759  0.64535  0.94063  Biso   1.000  H
  C319     1.0000 0.54277  0.96303  0.10451  Biso   1.000  C
  H360     1.0000 0.62514  0.97602  0.07552  Biso   1.000  H
  C320     1.0000 0.66659  0.97774  0.11744  Biso   1.000  C
  H361     1.0000 0.06465  0.58543  0.12293  Biso   1.000  H
  C321     1.0000 0.05076  0.65543  0.09422  Biso   1.000  C
  C322     1.0000 0.95367  0.52903  0.11000  Biso   1.000  C
  C323     1.0000 0.12636  0.39800  0.91672  Biso   1.000  C
  C324     1.0000 0.01839  0.28536  0.93783  Biso   1.000  C
  H362     1.0000 0.03775  0.39242  0.94063  Biso   1.000  H
  N55      1.0000 0.52130  0.69200  0.91943  Biso   1.000  N
  H363     1.0000 0.62358  0.78245  0.91874  Biso   1.000  H
  C325     1.0000 0.62146  0.71111  0.88642  Biso   1.000  C
  C326     1.0000 0.73519  0.71596  0.90732  Biso   1.000  C
  H364     1.0000 0.73334  0.71362  0.95312  Biso   1.000  H
  H365     1.0000 0.73876  0.78663  0.94032  Biso   1.000  H
  N56      1.0000 0.48609  0.93867  0.08159  Biso   1.000  N
  H366     1.0000 0.52076  0.93533  0.12293  Biso   1.000  H
  C327     1.0000 0.57533  0.04630  0.11000  Biso   1.000  C
  H367     1.0000 0.64667  0.95133  0.13602  Biso   1.000  H
  H368     1.0000 0.70537  0.96794  0.11084  Biso   1.000  H
  C328     1.0000 0.69938  0.06012  0.12249  Biso   1.000  C
  N57      1.0000 0.13035  0.70688  0.08928  Biso   1.000  N
  H369     1.0000 0.02396  0.64914  0.07552  Biso   1.000  H
  C329     1.0000 0.02227  0.68882  0.11744  Biso   1.000  C
  C330     1.0000 0.92247  0.56113  0.13193  Biso   1.000  C
  H370     1.0000 0.92726  0.52022  0.09133  Biso   1.000  H
  H371     1.0000 0.94507  0.48132  0.11733  Biso   1.000  H
  N58      1.0000 0.17071  0.47870  0.91943  Biso   1.000  N
  H372     1.0000 0.15887  0.37643  0.91874  Biso   1.000  H
  C331     1.0000 0.08965  0.37855  0.88642  Biso   1.000  C
  C332     1.0000 0.98077  0.26485  0.90732  Biso   1.000  C
  H373     1.0000 0.98026  0.26663  0.95312  Biso   1.000  H
  H374     1.0000 0.04788  0.26123  0.94032  Biso   1.000  H
  C333     1.0000 0.49213  0.73028  0.92492  Biso   1.000  C
  H375     1.0000 0.60387  0.73173  0.87113  Biso   1.000  H
  H376     1.0000 0.59637  0.65755  0.88362  Biso   1.000  H
  C334     1.0000 0.70486  0.74344  0.88309  Biso   1.000  C
  H377     1.0000 0.78908  0.74004  0.90554  Biso   1.000  H
  H378     1.0000 0.71484  0.66262  0.90523  Biso   1.000  H
  C335     1.0000 0.42080  0.88746  0.08777  Biso   1.000  C
  C336     1.0000 0.63867  0.07751  0.13193  Biso   1.000  C
  H379     1.0000 0.59298  0.07272  0.09133  Biso   1.000  H
  H380     1.0000 0.53625  0.05494  0.11733  Biso   1.000  H
  H381     1.0000 0.72287  0.08693  0.10433  Biso   1.000  H
  H382     1.0000 0.73727  0.07662  0.13782  Biso   1.000  H
  C337     1.0000 0.15050  0.73385  0.06397  Biso   1.000  C
  H383     1.0000 0.04865  0.69534  0.13602  Biso   1.000  H
  H384     1.0000 0.03205  0.73742  0.11084  Biso   1.000  H
  C338     1.0000 0.93984  0.63922  0.12249  Biso   1.000  C
  H385     1.0000 0.94365  0.56353  0.15143  Biso   1.000  H
  H386     1.0000 0.86887  0.52864  0.13333  Biso   1.000  H
  C339     1.0000 0.23814  0.50785  0.92492  Biso   1.000  C
  H387     1.0000 0.12790  0.39616  0.87113  Biso   1.000  H
  H388     1.0000 0.06116  0.40363  0.88362  Biso   1.000  H
  C340     1.0000 0.03857  0.29511  0.88309  Biso   1.000  C
  H389     1.0000 0.95097  0.21095  0.90554  Biso   1.000  H
  H390     1.0000 0.94776  0.28514  0.90523  Biso   1.000  H
  C341     1.0000 0.41076  0.69824  0.92725  Biso   1.000  C
  H391     1.0000 0.52278  0.78134  0.92774  Biso   1.000  H
  H392     1.0000 0.71527  0.72923  0.86393  Biso   1.000  H
  H393     1.0000 0.72949  0.79733  0.88382  Biso   1.000  H
  C342     1.0000 0.35866  0.86126  0.06646  Biso   1.000  C
  H394     1.0000 0.41159  0.86555  0.10644  Biso   1.000  H
  H395     1.0000 0.61987  0.05633  0.15143  Biso   1.000  H
  H396     1.0000 0.65978  0.13112  0.13333  Biso   1.000  H
  C343     1.0000 0.22729  0.78752  0.05545  Biso   1.000  C
  H397     1.0000 0.11399  0.71886  0.04934  Biso   1.000  H
  H398     1.0000 0.91305  0.63593  0.10433  Biso   1.000  H
  H399     1.0000 0.92337  0.66062  0.13782  Biso   1.000  H
  C344     1.0000 0.28747  0.58922  0.92725  Biso   1.000  C
  H400     1.0000 0.25856  0.47725  0.92774  Biso   1.000  H
  H401     1.0000 0.01398  0.28475  0.86393  Biso   1.000  H
  H402     1.0000 0.06789  0.27053  0.88382  Biso   1.000  H
  C345     1.0000 0.36337  0.62066  0.92734  Biso   1.000  C
  C346     1.0000 0.37937  0.74271  0.92734  Biso   1.000  C
  C347     1.0000 0.28676  0.80965  0.07526  Biso   1.000  C
  C348     1.0000 0.37177  0.89046  0.03765  Biso   1.000  C
  C349     1.0000 0.24139  0.81823  0.02703  Biso   1.000  C
  C350     1.0000 0.25727  0.63665  0.92734  Biso   1.000  C
  H403     1.0000 0.38407  0.58983  0.92743  Biso   1.000  H
  C351     1.0000 0.30176  0.71251  0.92725  Biso   1.000  C
  H404     1.0000 0.41014  0.79421  0.92743  Biso   1.000  H
  H405     1.0000 0.27807  0.78975  0.09433  Biso   1.000  H
  C352     1.0000 0.31408  0.87007  0.01791  Biso   1.000  C
  H406     1.0000 0.42018  0.92424  0.03174  Biso   1.000  H
  H407     1.0000 0.20195  0.80413  0.01382  Biso   1.000  H
  H408     1.0000 0.20578  0.61592  0.92743  Biso   1.000  H
  C353     1.0000 0.26971  0.76183  0.92492  Biso   1.000  C
  C354     1.0000 0.32826  0.90317  0.98804  Biso   1.000  C
  N59      1.0000 0.30796  0.82927  0.91943  Biso   1.000  N
  H409     1.0000 0.21867  0.74143  0.92774  Biso   1.000  H
  N60      1.0000 0.27816  0.89409  0.97022  Biso   1.000  N
  H410     1.0000 0.37745  0.93271  0.98204  Biso   1.000  H
  C355     1.0000 0.27160  0.87363  0.91672  Biso   1.000  C
  C356     1.0000 0.30020  0.93210  0.94166  Biso   1.000  C
  H411     1.0000 0.21756  0.84114  0.91874  Biso   1.000  H
  C357     1.0000 0.28887  0.91031  0.88642  Biso   1.000  C
  C358     1.0000 0.26696  0.98165  0.93783  Biso   1.000  C
  H412     1.0000 0.35467  0.96225  0.94063  Biso   1.000  H
  H413     1.0000 0.26829  0.87213  0.87113  Biso   1.000  H
  H414     1.0000 0.34248  0.93884  0.88362  Biso   1.000  H
  C359     1.0000 0.25655  0.96141  0.88309  Biso   1.000  C
  H415     1.0000 0.21334  0.95211  0.94032  Biso   1.000  H
  C360     1.0000 0.28405  0.01921  0.90732  Biso   1.000  C
  H416     1.0000 0.28638  0.01971  0.95312  Biso   1.000  H
  H417     1.0000 0.27075  0.98605  0.86393  Biso   1.000  H
  H418     1.0000 0.20268  0.93215  0.88382  Biso   1.000  H
  H419     1.0000 0.25996  0.04903  0.90554  Biso   1.000  H
  H420     1.0000 0.33733  0.05221  0.90523  Biso   1.000  H
  C361     1.0000 0.36133  0.43885  0.86807  Biso   1.000  C
  H421     1.0000 0.38012  0.43645  0.84857  Biso   1.000  H
  H422     1.0000 0.34022  0.47134  0.86667  Biso   1.000  H
  C362     1.0000 0.42464  0.47095  0.89000  Biso   1.000  C
  C363     1.0000 0.30062  0.36077  0.87751  Biso   1.000  C
  C364     1.0000 0.45725  0.42024  0.89549  Biso   1.000  C
  H423     1.0000 0.40703  0.47976  0.90867  Biso   1.000  H
  H424     1.0000 0.46374  0.51866  0.88267  Biso   1.000  H
  H425     1.0000 0.27711  0.36406  0.89567  Biso   1.000  H
  H426     1.0000 0.26274  0.33937  0.86218  Biso   1.000  H
  C365     1.0000 0.33345  0.31116  0.88256  Biso   1.000  C
  N61      1.0000 0.51393  0.45262  0.91841  Biso   1.000  N
  H427     1.0000 0.47921  0.41455  0.87707  Biso   1.000  H
  C366     1.0000 0.39532  0.34455  0.90578  Biso   1.000  C
  H428     1.0000 0.35331  0.30464  0.86398  Biso   1.000  H
  H429     1.0000 0.29462  0.26256  0.88916  Biso   1.000  H
  C367     1.0000 0.57921  0.46666  0.91223  Biso   1.000  C
  N62      1.0000 0.42349  0.29316  0.91072  Biso   1.000  N
  H430     1.0000 0.37482  0.35085  0.92448  Biso   1.000  H
  C368     1.0000 0.64132  0.50256  0.93354  Biso   1.000  C
  H431     1.0000 0.58845  0.45395  0.89356  Biso   1.000  H
  C369     1.0000 0.41664  0.26613  0.93603  Biso   1.000  C
  C370     1.0000 0.62827  0.51872  0.96235  Biso   1.000  C
  C371     1.0000 0.71320  0.52284  0.92474  Biso   1.000  C
  C372     1.0000 0.43976  0.21246  0.94455  Biso   1.000  C
  H432     1.0000 0.39515  0.28118  0.95066  Biso   1.000  H
  C373     1.0000 0.68591  0.55600  0.98209  Biso   1.000  C
  H433     1.0000 0.57981  0.50406  0.96826  Biso   1.000  H
  H434     1.0000 0.72194  0.51164  0.90567  Biso   1.000  H
  C374     1.0000 0.77269  0.56024  0.94455  Biso   1.000  C
  C375     1.0000 0.47713  0.19039  0.92474  Biso   1.000  C
  C376     1.0000 0.42315  0.18175  0.97297  Biso   1.000  C
  C377     1.0000 0.75864  0.57685  0.97297  Biso   1.000  C
  C378     1.0000 0.67175  0.57490  0.01196  Biso   1.000  C
  C379     1.0000 0.84951  0.58337  0.93603  Biso   1.000  C
  C380     1.0000 0.49742  0.13878  0.93354  Biso   1.000  C
  H435     1.0000 0.48834  0.21029  0.90567  Biso   1.000  H
  C381     1.0000 0.44400  0.12992  0.98209  Biso   1.000  C
  H436     1.0000 0.39781  0.19585  0.98618  Biso   1.000  H
  H437     1.0000 0.79804  0.60215  0.98618  Biso   1.000  H
  N63      1.0000 0.72185  0.61592  0.02978  Biso   1.000  N
  H438     1.0000 0.62256  0.55528  0.01796  Biso   1.000  H
  N64      1.0000 0.86968  0.57651  0.91072  Biso   1.000  N
  H439     1.0000 0.88604  0.60488  0.95066  Biso   1.000  H
  C382     1.0000 0.48130  0.10952  0.96235  Biso   1.000  C
  C383     1.0000 0.53336  0.11258  0.91223  Biso   1.000  C
  C384     1.0000 0.42508  0.09681  0.01196  Biso   1.000  C
  C385     1.0000 0.69978  0.63191  0.05834  Biso   1.000  C
  C386     1.0000 0.94921  0.60466  0.90578  Biso   1.000  C
  H440     1.0000 0.49593  0.07574  0.96826  Biso   1.000  H
  N65      1.0000 0.54743  0.06136  0.91841  Biso   1.000  N
  H441     1.0000 0.54605  0.13449  0.89356  Biso   1.000  H
  N66      1.0000 0.38409  0.10595  0.02978  Biso   1.000  N
  H442     1.0000 0.44473  0.06727  0.01796  Biso   1.000  H
  C387     1.0000 0.72838  0.60204  0.08328  Biso   1.000  C
  C388     1.0000 0.73305  0.71468  0.06217  Biso   1.000  C
  H443     1.0000 0.64532  0.60756  0.05937  Biso   1.000  H
  C389     1.0000 0.96299  0.54274  0.89549  Biso   1.000  C
  H444     1.0000 0.97602  0.62517  0.92448  Biso   1.000  H
  C390     1.0000 0.97775  0.66658  0.88256  Biso   1.000  C
  C391     1.0000 0.57975  0.03701  0.89549  Biso   1.000  C
  C392     1.0000 0.36810  0.06788  0.05834  Biso   1.000  C
  N67      1.0000 0.69200  0.52128  0.08057  Biso   1.000  N
  H445     1.0000 0.78243  0.62355  0.08126  Biso   1.000  H
  C393     1.0000 0.71112  0.62149  0.11358  Biso   1.000  C
  C394     1.0000 0.71594  0.73519  0.09268  Biso   1.000  C
  H446     1.0000 0.71362  0.73335  0.04688  Biso   1.000  H
  H447     1.0000 0.78665  0.73876  0.05968  Biso   1.000  H
  N68      1.0000 0.93866  0.48606  0.91841  Biso   1.000  N
  H448     1.0000 0.93536  0.52078  0.87707  Biso   1.000  H
  C395     1.0000 0.04634  0.57534  0.89000  Biso   1.000  C
  H449     1.0000 0.95135  0.64668  0.86398  Biso   1.000  H
  H450     1.0000 0.96795  0.70537  0.88916  Biso   1.000  H
  C396     1.0000 0.06012  0.69935  0.87751  Biso   1.000  C
  H451     1.0000 0.58542  0.06465  0.87707  Biso   1.000  H
  C397     1.0000 0.65542  0.05077  0.90578  Biso   1.000  C
  C398     1.0000 0.52902  0.95368  0.89000  Biso   1.000  C
  C399     1.0000 0.39796  0.12635  0.08328  Biso   1.000  C
  C400     1.0000 0.28533  0.01839  0.06217  Biso   1.000  C
  H452     1.0000 0.39243  0.03779  0.05937  Biso   1.000  H
  C401     1.0000 0.73028  0.49213  0.07508  Biso   1.000  C
  H453     1.0000 0.73176  0.60388  0.12887  Biso   1.000  H
  H454     1.0000 0.65753  0.59636  0.11638  Biso   1.000  H
  C402     1.0000 0.74345  0.70487  0.11691  Biso   1.000  C
  H455     1.0000 0.74004  0.78908  0.09446  Biso   1.000  H
  H456     1.0000 0.66262  0.71485  0.09477  Biso   1.000  H
  C403     1.0000 0.88744  0.42079  0.91223  Biso   1.000  C
  C404     1.0000 0.07751  0.63866  0.86807  Biso   1.000  C
  H457     1.0000 0.07271  0.59296  0.90867  Biso   1.000  H
  H458     1.0000 0.05494  0.53627  0.88267  Biso   1.000  H
  H459     1.0000 0.08694  0.72287  0.89567  Biso   1.000  H
  H460     1.0000 0.07661  0.73725  0.86218  Biso   1.000  H
  N69      1.0000 0.70685  0.13036  0.91072  Biso   1.000  N
  H461     1.0000 0.64911  0.02397  0.92448  Biso   1.000  H
  C405     1.0000 0.68887  0.02229  0.88256  Biso   1.000  C
  C406     1.0000 0.56115  0.92247  0.86807  Biso   1.000  C
  H462     1.0000 0.52025  0.92727  0.90867  Biso   1.000  H
  H463     1.0000 0.48134  0.94510  0.88267  Biso   1.000  H
  N70      1.0000 0.47869  0.17071  0.08057  Biso   1.000  N
  H464     1.0000 0.37641  0.15884  0.08126  Biso   1.000  H
  C407     1.0000 0.37856  0.08968  0.11358  Biso   1.000  C
  C408     1.0000 0.26483  0.98077  0.09268  Biso   1.000  C
  H465     1.0000 0.26666  0.98027  0.04688  Biso   1.000  H
  H466     1.0000 0.26122  0.04788  0.05968  Biso   1.000  H
  C409     1.0000 0.69824  0.41076  0.07275  Biso   1.000  C
  H467     1.0000 0.78133  0.52279  0.07226  Biso   1.000  H
  H468     1.0000 0.72926  0.71529  0.13607  Biso   1.000  H
  H469     1.0000 0.79734  0.72945  0.11618  Biso   1.000  H
  C410     1.0000 0.86124  0.35865  0.93354  Biso   1.000  C
  H470     1.0000 0.86554  0.41154  0.89356  Biso   1.000  H
  H471     1.0000 0.05634  0.61988  0.84857  Biso   1.000  H
  H472     1.0000 0.13113  0.65978  0.86667  Biso   1.000  H
  C411     1.0000 0.73385  0.15048  0.93603  Biso   1.000  C
  H473     1.0000 0.69534  0.04866  0.86398  Biso   1.000  H
  H474     1.0000 0.73743  0.03205  0.88916  Biso   1.000  H
  C412     1.0000 0.63925  0.93986  0.87751  Biso   1.000  C
  H475     1.0000 0.56356  0.94371  0.84857  Biso   1.000  H
  H476     1.0000 0.52865  0.86886  0.86667  Biso   1.000  H
  C413     1.0000 0.50787  0.23815  0.07508  Biso   1.000  C
  H477     1.0000 0.39615  0.12785  0.12887  Biso   1.000  H
  H478     1.0000 0.40363  0.06114  0.11638  Biso   1.000  H
  C414     1.0000 0.29513  0.03857  0.11691  Biso   1.000  C
  H479     1.0000 0.21095  0.95101  0.09446  Biso   1.000  H
  H480     1.0000 0.28512  0.94778  0.09477  Biso   1.000  H
  C415     1.0000 0.74274  0.37938  0.07266  Biso   1.000  C
  C416     1.0000 0.62064  0.36339  0.07266  Biso   1.000  C
  C417     1.0000 0.89048  0.37175  0.96235  Biso   1.000  C
  C418     1.0000 0.80961  0.28675  0.92474  Biso   1.000  C
  C419     1.0000 0.78755  0.22728  0.94455  Biso   1.000  C
  H481     1.0000 0.71883  0.11398  0.95066  Biso   1.000  H
  H482     1.0000 0.63596  0.91311  0.89567  Biso   1.000  H
  H483     1.0000 0.66064  0.92337  0.86218  Biso   1.000  H
  C420     1.0000 0.58924  0.28748  0.07275  Biso   1.000  C
  H484     1.0000 0.47723  0.25855  0.07226  Biso   1.000  H
  H485     1.0000 0.28472  0.01399  0.13607  Biso   1.000  H
  H486     1.0000 0.27055  0.06788  0.11618  Biso   1.000  H
  H487     1.0000 0.79422  0.41015  0.07257  Biso   1.000  H
  C421     1.0000 0.71251  0.30174  0.07275  Biso   1.000  C
  H488     1.0000 0.58985  0.38406  0.07257  Biso   1.000  H
  C422     1.0000 0.87008  0.31406  0.98209  Biso   1.000  C
  H489     1.0000 0.92425  0.42018  0.96826  Biso   1.000  H
  H490     1.0000 0.78972  0.27806  0.90567  Biso   1.000  H
  C423     1.0000 0.81825  0.24138  0.97297  Biso   1.000  C
  C424     1.0000 0.63665  0.25727  0.07266  Biso   1.000  C
  C425     1.0000 0.76184  0.26970  0.07508  Biso   1.000  C
  C426     1.0000 0.90316  0.32827  0.01196  Biso   1.000  C
  H491     1.0000 0.80415  0.20198  0.98618  Biso   1.000  H
  H492     1.0000 0.61592  0.20577  0.07257  Biso   1.000  H
  N71      1.0000 0.82930  0.30799  0.08057  Biso   1.000  N
  H493     1.0000 0.74143  0.21865  0.07226  Biso   1.000  H
  N72      1.0000 0.89408  0.27817  0.02978  Biso   1.000  N
  H494     1.0000 0.93273  0.37749  0.01796  Biso   1.000  H
  C427     1.0000 0.87361  0.27159  0.08328  Biso   1.000  C
  C428     1.0000 0.93215  0.30024  0.05834  Biso   1.000  C
  H495     1.0000 0.84115  0.21759  0.08126  Biso   1.000  H
  C429     1.0000 0.91034  0.28887  0.11358  Biso   1.000  C
  C430     1.0000 0.98163  0.26697  0.06217  Biso   1.000  C
  H496     1.0000 0.96227  0.35469  0.05937  Biso   1.000  H
  H497     1.0000 0.87213  0.26825  0.12887  Biso   1.000  H
  H498     1.0000 0.93884  0.34249  0.11638  Biso   1.000  H
  C431     1.0000 0.96141  0.25654  0.11691  Biso   1.000  C
  H499     1.0000 0.95212  0.21335  0.05968  Biso   1.000  H
  C432     1.0000 0.01925  0.28408  0.09268  Biso   1.000  C
  H500     1.0000 0.01971  0.28636  0.04688  Biso   1.000  H
  H501     1.0000 0.98604  0.27076  0.13607  Biso   1.000  H
  H502     1.0000 0.93215  0.20265  0.11618  Biso   1.000  H
  H503     1.0000 0.04903  0.25994  0.09446  Biso   1.000  H
  H504     1.0000 0.05221  0.33736  0.09477  Biso   1.000  H
