data_image0
_cell_length_a       34.692
_cell_length_b       19.887
_cell_length_c       26.67
_cell_angle_alpha    90
_cell_angle_beta     93.33
_cell_angle_gamma    90

_symmetry_space_group_name_H-M    "P 1"
_symmetry_int_tables_number       1

loop_
  _symmetry_equiv_pos_as_xyz
  'x, y, z'

loop_
  _atom_site_label
  _atom_site_occupancy
  _atom_site_fract_x
  _atom_site_fract_y
  _atom_site_fract_z
  _atom_site_thermal_displace_type
  _atom_site_B_iso_or_equiv
  _atom_site_type_symbol
  C1       1.0000 0.64547  0.62131  0.62389  Biso   1.000  C
  C2       1.0000 0.66055  0.69201  0.61825  Biso   1.000  C
  C3       1.0000 0.65585  0.59250  0.67640  Biso   1.000  C
  H1       1.0000 0.65646  0.59199  0.59831  Biso   1.000  H
  H2       1.0000 0.61706  0.62141  0.61780  Biso   1.000  H
  N1       1.0000 0.64752  0.71821  0.56916  Biso   1.000  N
  C4       1.0000 0.64538  0.73877  0.65878  Biso   1.000  C
  H3       1.0000 0.68936  0.69151  0.62118  Biso   1.000  H
  C5       1.0000 0.64007  0.63841  0.71662  Biso   1.000  C
  H4       1.0000 0.64476  0.54689  0.67910  Biso   1.000  H
  H5       1.0000 0.68425  0.58888  0.68169  Biso   1.000  H
  C6       1.0000 0.67224  0.74410  0.54190  Biso   1.000  C
  N2       1.0000 0.66316  0.80490  0.65487  Biso   1.000  N
  H6       1.0000 0.61666  0.74300  0.65390  Biso   1.000  H
  C7       1.0000 0.65618  0.71021  0.71151  Biso   1.000  C
  H7       1.0000 0.64757  0.62041  0.75039  Biso   1.000  H
  H8       1.0000 0.61147  0.63951  0.71271  Biso   1.000  H
  C8       1.0000 0.66230  0.76990  0.49093  Biso   1.000  C
  H9       1.0000 0.69827  0.74707  0.55482  Biso   1.000  H
  C9       1.0000 0.64121  0.85478  0.64545  Biso   1.000  C
  H10      1.0000 0.64557  0.73968  0.73720  Biso   1.000  H
  H11      1.0000 0.68465  0.70941  0.71718  Biso   1.000  H
  C10      1.0000 0.62383  0.77719  0.47309  Biso   1.000  C
  C11      1.0000 0.69167  0.78529  0.45991  Biso   1.000  C
  C12      1.0000 0.65637  0.92467  0.64470  Biso   1.000  C
  H12      1.0000 0.61436  0.84729  0.63861  Biso   1.000  H
  C13      1.0000 0.61417  0.79997  0.42528  Biso   1.000  C
  H13      1.0000 0.60389  0.76618  0.49450  Biso   1.000  H
  C14      1.0000 0.68237  0.80827  0.40969  Biso   1.000  C
  H14      1.0000 0.71789  0.78071  0.47181  Biso   1.000  H
  C15      1.0000 0.69611  0.93830  0.64394  Biso   1.000  C
  C16      1.0000 0.63091  0.97777  0.64834  Biso   1.000  C
  C17      1.0000 0.57320  0.80817  0.40965  Biso   1.000  C
  C18      1.0000 0.64435  0.81521  0.39369  Biso   1.000  C
  C19      1.0000 0.71220  0.82129  0.37427  Biso   1.000  C
  H15      1.0000 0.71368  0.90220  0.64030  Biso   1.000  H
  C20      1.0000 0.70980  0.00241  0.64834  Biso   1.000  C
  C21      1.0000 0.64447  0.04370  0.65187  Biso   1.000  C
  H16      1.0000 0.60396  0.96928  0.64849  Biso   1.000  H
  N3       1.0000 0.56187  0.83331  0.36759  Biso   1.000  N
  H17      1.0000 0.55437  0.79419  0.43189  Biso   1.000  H
  H18      1.0000 0.63809  0.83069  0.36049  Biso   1.000  H
  N4       1.0000 0.74770  0.80510  0.38299  Biso   1.000  N
  H19      1.0000 0.70488  0.84271  0.34329  Biso   1.000  H
  C22      1.0000 0.68395  0.05672  0.65224  Biso   1.000  C
  C23      1.0000 0.75165  0.01408  0.65217  Biso   1.000  C
  C24      1.0000 0.61720  0.10022  0.65765  Biso   1.000  C
  C25      1.0000 0.52047  0.84010  0.35711  Biso   1.000  C
  C26      1.0000 0.77428  0.82049  0.34359  Biso   1.000  C
  H20      1.0000 0.69335  0.10152  0.65510  Biso   1.000  H
  H21      1.0000 0.76837  0.97858  0.64372  Biso   1.000  H
  N5       1.0000 0.76629  0.06989  0.66629  Biso   1.000  N
  N6       1.0000 0.58211  0.09111  0.66524  Biso   1.000  N
  H22      1.0000 0.62656  0.14502  0.65551  Biso   1.000  H
  C27      1.0000 0.50739  0.79469  0.31331  Biso   1.000  C
  C28      1.0000 0.51098  0.91376  0.34408  Biso   1.000  C
  H23      1.0000 0.50679  0.82677  0.38761  Biso   1.000  H
  H24      1.0000 0.75969  0.84221  0.31452  Biso   1.000  H
  C29      1.0000 0.79230  0.75486  0.32631  Biso   1.000  C
  C30      1.0000 0.80525  0.86831  0.36458  Biso   1.000  C
  C31      1.0000 0.80862  0.07452  0.67178  Biso   1.000  C
  C32      1.0000 0.55743  0.14909  0.67147  Biso   1.000  C
  C33      1.0000 0.46443  0.80429  0.29949  Biso   1.000  C
  H25      1.0000 0.51239  0.74707  0.32259  Biso   1.000  H
  H26      1.0000 0.52239  0.80530  0.28391  Biso   1.000  H
  C34      1.0000 0.46784  0.92276  0.33138  Biso   1.000  C
  N7       1.0000 0.52198  0.95691  0.38764  Biso   1.000  N
  H27      1.0000 0.52567  0.92789  0.31470  Biso   1.000  H
  H28      1.0000 0.77187  0.72540  0.31099  Biso   1.000  H
  H29      1.0000 0.80468  0.73108  0.35561  Biso   1.000  H
  C35      1.0000 0.82244  0.76910  0.28789  Biso   1.000  C
  N8       1.0000 0.78726  0.93257  0.37792  Biso   1.000  N
  C36      1.0000 0.83462  0.88259  0.32571  Biso   1.000  C
  H30      1.0000 0.81858  0.84799  0.39519  Biso   1.000  H
  C37      1.0000 0.82145  0.12591  0.63301  Biso   1.000  C
  C38      1.0000 0.82010  0.09720  0.72548  Biso   1.000  C
  H31      1.0000 0.82026  0.02962  0.66520  Biso   1.000  H
  C39      1.0000 0.52572  0.14909  0.62881  Biso   1.000  C
  H32      1.0000 0.57307  0.19118  0.66990  Biso   1.000  H
  C40      1.0000 0.53939  0.14492  0.72210  Biso   1.000  C
  C41      1.0000 0.45464  0.87741  0.28740  Biso   1.000  C
  H33      1.0000 0.45689  0.77588  0.27001  Biso   1.000  H
  H34      1.0000 0.44938  0.78931  0.32781  Biso   1.000  H
  H35      1.0000 0.46237  0.97028  0.32252  Biso   1.000  H
  H36      1.0000 0.45329  0.91140  0.36109  Biso   1.000  H
  C42      1.0000 0.54765  0.00000  0.38224  Biso   1.000  C
  H37      1.0000 0.83479  0.72630  0.27850  Biso   1.000  H
  H38      1.0000 0.80947  0.78861  0.25709  Biso   1.000  H
  C43      1.0000 0.85289  0.81697  0.30888  Biso   1.000  C
  C44      1.0000 0.79513  0.95640  0.42062  Biso   1.000  C
  H39      1.0000 0.85499  0.91291  0.34039  Biso   1.000  H
  H40      1.0000 0.82178  0.90547  0.29641  Biso   1.000  H
  N9       1.0000 0.81310  0.09951  0.58287  Biso   1.000  N
  H41      1.0000 0.80736  0.16931  0.63700  Biso   1.000  H
  C45      1.0000 0.86489  0.13768  0.64090  Biso   1.000  C
  C46      1.0000 0.86292  0.11279  0.73292  Biso   1.000  C
  H42      1.0000 0.80506  0.13778  0.73341  Biso   1.000  H
  H43      1.0000 0.81335  0.06130  0.74918  Biso   1.000  H
  N10      1.0000 0.54229  0.15447  0.58040  Biso   1.000  N
  C47      1.0000 0.49790  0.20798  0.63651  Biso   1.000  C
  H44      1.0000 0.51098  0.10600  0.62990  Biso   1.000  H
  H45      1.0000 0.56006  0.14542  0.74918  Biso   1.000  H
  H46      1.0000 0.52525  0.10188  0.72432  Biso   1.000  H
  C48      1.0000 0.51172  0.20320  0.72980  Biso   1.000  C
  H47      1.0000 0.42640  0.88208  0.28049  Biso   1.000  H
  H48      1.0000 0.46760  0.89139  0.25690  Biso   1.000  H
  C49      1.0000 0.56033  0.05089  0.42017  Biso   1.000  C
  H49      1.0000 0.55999  0.00010  0.35129  Biso   1.000  H
  H50      1.0000 0.87139  0.82677  0.28289  Biso   1.000  H
  H51      1.0000 0.86738  0.79580  0.33780  Biso   1.000  H
  H52      1.0000 0.81187  0.93146  0.44312  Biso   1.000  H
  C50      1.0000 0.77996  0.02072  0.43790  Biso   1.000  C
  C51      1.0000 0.78590  0.12621  0.55617  Biso   1.000  C
  H53      1.0000 0.87868  0.09519  0.63459  Biso   1.000  H
  H54      1.0000 0.87308  0.17152  0.61641  Biso   1.000  H
  C52      1.0000 0.87596  0.16202  0.69378  Biso   1.000  C
  H55      1.0000 0.86827  0.13210  0.76691  Biso   1.000  H
  H56      1.0000 0.87785  0.07060  0.73089  Biso   1.000  H
  C53      1.0000 0.54254  0.10238  0.55316  Biso   1.000  C
  C54      1.0000 0.47997  0.20430  0.68759  Biso   1.000  C
  H57      1.0000 0.51206  0.25092  0.63410  Biso   1.000  H
  H58      1.0000 0.47706  0.20742  0.60950  Biso   1.000  H
  H59      1.0000 0.52606  0.24619  0.73022  Biso   1.000  H
  H60      1.0000 0.49995  0.19812  0.76259  Biso   1.000  H
  C55      1.0000 0.58356  0.10338  0.40533  Biso   1.000  C
  C56      1.0000 0.54774  0.04968  0.46937  Biso   1.000  C
  C57      1.0000 0.75660  0.06150  0.40590  Biso   1.000  C
  C58      1.0000 0.78900  0.04138  0.48680  Biso   1.000  C
  C59      1.0000 0.77505  0.10298  0.50408  Biso   1.000  C
  H61      1.0000 0.77187  0.16222  0.56980  Biso   1.000  H
  H62      1.0000 0.90436  0.16750  0.69780  Biso   1.000  H
  H63      1.0000 0.86395  0.20642  0.69919  Biso   1.000  H
  C60      1.0000 0.55734  0.10228  0.50302  Biso   1.000  C
  H64      1.0000 0.53268  0.06160  0.56590  Biso   1.000  H
  H65      1.0000 0.46307  0.24378  0.69179  Biso   1.000  H
  H66      1.0000 0.46396  0.16322  0.68932  Biso   1.000  H
  H67      1.0000 0.59309  0.10338  0.37270  Biso   1.000  H
  C61      1.0000 0.59298  0.15679  0.43880  Biso   1.000  C
  H68      1.0000 0.53258  0.01312  0.47989  Biso   1.000  H
  C62      1.0000 0.74322  0.12350  0.42276  Biso   1.000  C
  H69      1.0000 0.74978  0.04712  0.37258  Biso   1.000  H
  H70      1.0000 0.80468  0.01378  0.50870  Biso   1.000  H
  C63      1.0000 0.75167  0.14251  0.47241  Biso   1.000  C
  C64      1.0000 0.58041  0.15477  0.48699  Biso   1.000  C
  C65      1.0000 0.61644  0.21371  0.42261  Biso   1.000  C
  C66      1.0000 0.72059  0.16468  0.38513  Biso   1.000  C
  H71      1.0000 0.74129  0.18308  0.48462  Biso   1.000  H
  H72      1.0000 0.58756  0.18997  0.50971  Biso   1.000  H
  N11      1.0000 0.62852  0.21808  0.37938  Biso   1.000  N
  H73      1.0000 0.62268  0.24850  0.44601  Biso   1.000  H
  N12      1.0000 0.71141  0.22557  0.39204  Biso   1.000  N
  H74      1.0000 0.71257  0.14432  0.35410  Biso   1.000  H
  C67      1.0000 0.65005  0.27867  0.36695  Biso   1.000  C
  C68      1.0000 0.68925  0.25861  0.35080  Biso   1.000  C
  C69      1.0000 0.62665  0.31669  0.32571  Biso   1.000  C
  H75      1.0000 0.65328  0.30789  0.39741  Biso   1.000  H
  H76      1.0000 0.68597  0.22658  0.32199  Biso   1.000  H
  C70      1.0000 0.71161  0.32091  0.33378  Biso   1.000  C
  C71      1.0000 0.64908  0.37728  0.30839  Biso   1.000  C
  H77      1.0000 0.62077  0.28642  0.29679  Biso   1.000  H
  H78      1.0000 0.60188  0.33177  0.33859  Biso   1.000  H
  H79      1.0000 0.71718  0.35088  0.36301  Biso   1.000  H
  H80      1.0000 0.73658  0.30638  0.32109  Biso   1.000  H
  C72      1.0000 0.68857  0.35928  0.29288  Biso   1.000  C
  H81      1.0000 0.63440  0.39880  0.27981  Biso   1.000  H
  H82      1.0000 0.65150  0.41047  0.33611  Biso   1.000  H
  H83      1.0000 0.70259  0.40092  0.28481  Biso   1.000  H
  H84      1.0000 0.68618  0.33137  0.26208  Biso   1.000  H
  C73      1.0000 0.35448  0.62131  0.37611  Biso   1.000  C
  C74      1.0000 0.34409  0.59250  0.32361  Biso   1.000  C
  H85      1.0000 0.34349  0.59199  0.40169  Biso   1.000  H
  H86      1.0000 0.38289  0.62141  0.38220  Biso   1.000  H
  C75      1.0000 0.33940  0.69201  0.38175  Biso   1.000  C
  C76      1.0000 0.35988  0.63841  0.28342  Biso   1.000  C
  H87      1.0000 0.35519  0.54689  0.32090  Biso   1.000  H
  H88      1.0000 0.31570  0.58888  0.31831  Biso   1.000  H
  C77      1.0000 0.35454  0.73877  0.34122  Biso   1.000  C
  N13      1.0000 0.35243  0.71821  0.43084  Biso   1.000  N
  H89      1.0000 0.31059  0.69151  0.37882  Biso   1.000  H
  C78      1.0000 0.34377  0.71021  0.28849  Biso   1.000  C
  H90      1.0000 0.35238  0.62041  0.24962  Biso   1.000  H
  H91      1.0000 0.38848  0.63951  0.28729  Biso   1.000  H
  N14      1.0000 0.33678  0.80490  0.34513  Biso   1.000  N
  H92      1.0000 0.38329  0.74300  0.34610  Biso   1.000  H
  C79      1.0000 0.32770  0.74410  0.45810  Biso   1.000  C
  H93      1.0000 0.35438  0.73968  0.26280  Biso   1.000  H
  H94      1.0000 0.31529  0.70941  0.28282  Biso   1.000  H
  C80      1.0000 0.35874  0.85478  0.35455  Biso   1.000  C
  C81      1.0000 0.33765  0.76990  0.50907  Biso   1.000  C
  H95      1.0000 0.30167  0.74707  0.44518  Biso   1.000  H
  C82      1.0000 0.34358  0.92467  0.35531  Biso   1.000  C
  H96      1.0000 0.38559  0.84729  0.36139  Biso   1.000  H
  C83      1.0000 0.37609  0.77719  0.52691  Biso   1.000  C
  C84      1.0000 0.30828  0.78529  0.54009  Biso   1.000  C
  C85      1.0000 0.30383  0.93830  0.35606  Biso   1.000  C
  C86      1.0000 0.36904  0.97777  0.35166  Biso   1.000  C
  C87      1.0000 0.38578  0.79997  0.57472  Biso   1.000  C
  H97      1.0000 0.39606  0.76618  0.50550  Biso   1.000  H
  C88      1.0000 0.31758  0.80827  0.59031  Biso   1.000  C
  H98      1.0000 0.28206  0.78071  0.52819  Biso   1.000  H
  H99      1.0000 0.28627  0.90220  0.35970  Biso   1.000  H
  C89      1.0000 0.29012  0.00241  0.35166  Biso   1.000  C
  H100     1.0000 0.39599  0.96928  0.35151  Biso   1.000  H
  C90      1.0000 0.35548  0.04370  0.34813  Biso   1.000  C
  C91      1.0000 0.35559  0.81521  0.60631  Biso   1.000  C
  C92      1.0000 0.42671  0.80817  0.59035  Biso   1.000  C
  C93      1.0000 0.28774  0.82129  0.62573  Biso   1.000  C
  C94      1.0000 0.31600  0.05672  0.34776  Biso   1.000  C
  C95      1.0000 0.24830  0.01408  0.34783  Biso   1.000  C
  C96      1.0000 0.38275  0.10022  0.34235  Biso   1.000  C
  H101     1.0000 0.36186  0.83069  0.63951  Biso   1.000  H
  N15      1.0000 0.43808  0.83331  0.63241  Biso   1.000  N
  H102     1.0000 0.44558  0.79419  0.56811  Biso   1.000  H
  N16      1.0000 0.25224  0.80510  0.61701  Biso   1.000  N
  H103     1.0000 0.29506  0.84271  0.65671  Biso   1.000  H
  H104     1.0000 0.30659  0.10152  0.34490  Biso   1.000  H
  H105     1.0000 0.23158  0.97858  0.35632  Biso   1.000  H
  N17      1.0000 0.23366  0.06989  0.33371  Biso   1.000  N
  N18      1.0000 0.41781  0.09111  0.33476  Biso   1.000  N
  H106     1.0000 0.37339  0.14502  0.34449  Biso   1.000  H
  C97      1.0000 0.47948  0.84010  0.64289  Biso   1.000  C
  C98      1.0000 0.22567  0.82049  0.65641  Biso   1.000  C
  C99      1.0000 0.19133  0.07452  0.32823  Biso   1.000  C
  C100     1.0000 0.44252  0.14909  0.32853  Biso   1.000  C
  C101     1.0000 0.48896  0.91376  0.65593  Biso   1.000  C
  C102     1.0000 0.49253  0.79469  0.68669  Biso   1.000  C
  H107     1.0000 0.49316  0.82677  0.61240  Biso   1.000  H
  H108     1.0000 0.24026  0.84221  0.68548  Biso   1.000  H
  C103     1.0000 0.20765  0.75486  0.67369  Biso   1.000  C
  C104     1.0000 0.19470  0.86831  0.63542  Biso   1.000  C
  C105     1.0000 0.17850  0.12591  0.36699  Biso   1.000  C
  C106     1.0000 0.17985  0.09720  0.27452  Biso   1.000  C
  H109     1.0000 0.17969  0.02962  0.33480  Biso   1.000  H
  H110     1.0000 0.42688  0.19118  0.33010  Biso   1.000  H
  C107     1.0000 0.46055  0.14492  0.27790  Biso   1.000  C
  C108     1.0000 0.47423  0.14909  0.37119  Biso   1.000  C
  N19      1.0000 0.47797  0.95691  0.61236  Biso   1.000  N
  H111     1.0000 0.47425  0.92789  0.68530  Biso   1.000  H
  C109     1.0000 0.53211  0.92276  0.66862  Biso   1.000  C
  C110     1.0000 0.53552  0.80429  0.70051  Biso   1.000  C
  H112     1.0000 0.48756  0.74707  0.67741  Biso   1.000  H
  H113     1.0000 0.47756  0.80530  0.71609  Biso   1.000  H
  H114     1.0000 0.22808  0.72540  0.68901  Biso   1.000  H
  H115     1.0000 0.19527  0.73108  0.64440  Biso   1.000  H
  C111     1.0000 0.17751  0.76910  0.71211  Biso   1.000  C
  N20      1.0000 0.21269  0.93257  0.62209  Biso   1.000  N
  C112     1.0000 0.16533  0.88259  0.67429  Biso   1.000  C
  H116     1.0000 0.18137  0.84799  0.60481  Biso   1.000  H
  N21      1.0000 0.18685  0.09951  0.41713  Biso   1.000  N
  H117     1.0000 0.19259  0.16931  0.36301  Biso   1.000  H
  C113     1.0000 0.13505  0.13768  0.35910  Biso   1.000  C
  C114     1.0000 0.13703  0.11279  0.26712  Biso   1.000  C
  H118     1.0000 0.19489  0.13778  0.26659  Biso   1.000  H
  H119     1.0000 0.18660  0.06130  0.25082  Biso   1.000  H
  H120     1.0000 0.43989  0.14542  0.25082  Biso   1.000  H
  H121     1.0000 0.47470  0.10188  0.27572  Biso   1.000  H
  C115     1.0000 0.48823  0.20320  0.27020  Biso   1.000  C
  N22      1.0000 0.45766  0.15447  0.41961  Biso   1.000  N
  C116     1.0000 0.50205  0.20798  0.36349  Biso   1.000  C
  H122     1.0000 0.48897  0.10600  0.37010  Biso   1.000  H
  C117     1.0000 0.45230  0.00000  0.61777  Biso   1.000  C
  H123     1.0000 0.53757  0.97028  0.67748  Biso   1.000  H
  H124     1.0000 0.54666  0.91140  0.63891  Biso   1.000  H
  C118     1.0000 0.54531  0.87741  0.71260  Biso   1.000  C
  H125     1.0000 0.54306  0.77588  0.72999  Biso   1.000  H
  H126     1.0000 0.55057  0.78931  0.67219  Biso   1.000  H
  H127     1.0000 0.16516  0.72630  0.72150  Biso   1.000  H
  H128     1.0000 0.19047  0.78861  0.74291  Biso   1.000  H
  C119     1.0000 0.14706  0.81697  0.69112  Biso   1.000  C
  C120     1.0000 0.20482  0.95640  0.57942  Biso   1.000  C
  H129     1.0000 0.14496  0.91291  0.65961  Biso   1.000  H
  H130     1.0000 0.17817  0.90547  0.70359  Biso   1.000  H
  C121     1.0000 0.21404  0.12621  0.44383  Biso   1.000  C
  H131     1.0000 0.12127  0.09519  0.36541  Biso   1.000  H
  H132     1.0000 0.12687  0.17152  0.38359  Biso   1.000  H
  C122     1.0000 0.12399  0.16202  0.30622  Biso   1.000  C
  H133     1.0000 0.13168  0.13210  0.23309  Biso   1.000  H
  H134     1.0000 0.12210  0.07060  0.26911  Biso   1.000  H
  H135     1.0000 0.47388  0.24619  0.26978  Biso   1.000  H
  H136     1.0000 0.49999  0.19812  0.23741  Biso   1.000  H
  C123     1.0000 0.51998  0.20430  0.31241  Biso   1.000  C
  C124     1.0000 0.45740  0.10238  0.44684  Biso   1.000  C
  H137     1.0000 0.48789  0.25092  0.36590  Biso   1.000  H
  H138     1.0000 0.52289  0.20742  0.39050  Biso   1.000  H
  C125     1.0000 0.43962  0.05089  0.57983  Biso   1.000  C
  H139     1.0000 0.43996  0.00010  0.64871  Biso   1.000  H
  H140     1.0000 0.57355  0.88208  0.71951  Biso   1.000  H
  H141     1.0000 0.53235  0.89139  0.74310  Biso   1.000  H
  H142     1.0000 0.12856  0.82677  0.71711  Biso   1.000  H
  H143     1.0000 0.13256  0.79580  0.66220  Biso   1.000  H
  H144     1.0000 0.18808  0.93146  0.55688  Biso   1.000  H
  C126     1.0000 0.21999  0.02072  0.56210  Biso   1.000  C
  C127     1.0000 0.22490  0.10298  0.49593  Biso   1.000  C
  H145     1.0000 0.22808  0.16222  0.43020  Biso   1.000  H
  H146     1.0000 0.09559  0.16750  0.30220  Biso   1.000  H
  H147     1.0000 0.13600  0.20642  0.30081  Biso   1.000  H
  H148     1.0000 0.53688  0.24378  0.30821  Biso   1.000  H
  H149     1.0000 0.53598  0.16322  0.31069  Biso   1.000  H
  C128     1.0000 0.44261  0.10228  0.49698  Biso   1.000  C
  H150     1.0000 0.46727  0.06160  0.43410  Biso   1.000  H
  C129     1.0000 0.41639  0.10338  0.59467  Biso   1.000  C
  C130     1.0000 0.45221  0.04968  0.53063  Biso   1.000  C
  C131     1.0000 0.24335  0.06150  0.59410  Biso   1.000  C
  C132     1.0000 0.21094  0.04138  0.51320  Biso   1.000  C
  C133     1.0000 0.24828  0.14251  0.52759  Biso   1.000  C
  C134     1.0000 0.41954  0.15477  0.51301  Biso   1.000  C
  H151     1.0000 0.40686  0.10338  0.62731  Biso   1.000  H
  C135     1.0000 0.40696  0.15679  0.56120  Biso   1.000  C
  H152     1.0000 0.46736  0.01312  0.52011  Biso   1.000  H
  C136     1.0000 0.25672  0.12350  0.57724  Biso   1.000  C
  H153     1.0000 0.25017  0.04712  0.62742  Biso   1.000  H
  H154     1.0000 0.19526  0.01378  0.49131  Biso   1.000  H
  H155     1.0000 0.25866  0.18308  0.51542  Biso   1.000  H
  H156     1.0000 0.41239  0.18997  0.49029  Biso   1.000  H
  C137     1.0000 0.38350  0.21371  0.57739  Biso   1.000  C
  C138     1.0000 0.27936  0.16468  0.61487  Biso   1.000  C
  N23      1.0000 0.37142  0.21808  0.62062  Biso   1.000  N
  H157     1.0000 0.37727  0.24850  0.55399  Biso   1.000  H
  N24      1.0000 0.28854  0.22557  0.60800  Biso   1.000  N
  H158     1.0000 0.28737  0.14432  0.64590  Biso   1.000  H
  C139     1.0000 0.34990  0.27867  0.63305  Biso   1.000  C
  C140     1.0000 0.31070  0.25861  0.64920  Biso   1.000  C
  C141     1.0000 0.37330  0.31669  0.67429  Biso   1.000  C
  H159     1.0000 0.34667  0.30789  0.60259  Biso   1.000  H
  H160     1.0000 0.31397  0.22658  0.67801  Biso   1.000  H
  C142     1.0000 0.28834  0.32091  0.66622  Biso   1.000  C
  C143     1.0000 0.35087  0.37728  0.69161  Biso   1.000  C
  H161     1.0000 0.37918  0.28642  0.70321  Biso   1.000  H
  H162     1.0000 0.39806  0.33177  0.66141  Biso   1.000  H
  H163     1.0000 0.28277  0.35088  0.63700  Biso   1.000  H
  H164     1.0000 0.26337  0.30638  0.67891  Biso   1.000  H
  C144     1.0000 0.31138  0.35928  0.70712  Biso   1.000  C
  H165     1.0000 0.36555  0.39880  0.72019  Biso   1.000  H
  H166     1.0000 0.34845  0.41047  0.66389  Biso   1.000  H
  H167     1.0000 0.29736  0.40092  0.71519  Biso   1.000  H
  H168     1.0000 0.31377  0.33137  0.73792  Biso   1.000  H
  C145     1.0000 0.63505  0.63770  0.35910  Biso   1.000  C
  C146     1.0000 0.62399  0.66199  0.30622  Biso   1.000  C
  C147     1.0000 0.67850  0.62589  0.36699  Biso   1.000  C
  H169     1.0000 0.62127  0.59521  0.36541  Biso   1.000  H
  H170     1.0000 0.62687  0.67149  0.38359  Biso   1.000  H
  C148     1.0000 0.63703  0.61281  0.26712  Biso   1.000  C
  H171     1.0000 0.59559  0.66747  0.30220  Biso   1.000  H
  H172     1.0000 0.63600  0.70639  0.30081  Biso   1.000  H
  C149     1.0000 0.69133  0.57450  0.32823  Biso   1.000  C
  N25      1.0000 0.68685  0.59949  0.41713  Biso   1.000  N
  H173     1.0000 0.69259  0.66928  0.36301  Biso   1.000  H
  H174     1.0000 0.63168  0.63207  0.23309  Biso   1.000  H
  H175     1.0000 0.62210  0.57057  0.26911  Biso   1.000  H
  C150     1.0000 0.67985  0.59717  0.27452  Biso   1.000  C
  N26      1.0000 0.73366  0.56987  0.33371  Biso   1.000  N
  H176     1.0000 0.67969  0.52959  0.33480  Biso   1.000  H
  C151     1.0000 0.71404  0.62619  0.44383  Biso   1.000  C
  H177     1.0000 0.69489  0.63780  0.26659  Biso   1.000  H
  H178     1.0000 0.68660  0.56127  0.25082  Biso   1.000  H
  C152     1.0000 0.74830  0.51410  0.34783  Biso   1.000  C
  C153     1.0000 0.72490  0.60301  0.49593  Biso   1.000  C
  H179     1.0000 0.72808  0.66219  0.43020  Biso   1.000  H
  C154     1.0000 0.79012  0.50239  0.35166  Biso   1.000  C
  H180     1.0000 0.73158  0.47860  0.35632  Biso   1.000  H
  C155     1.0000 0.74828  0.64248  0.52759  Biso   1.000  C
  C156     1.0000 0.71094  0.54141  0.51320  Biso   1.000  C
  C157     1.0000 0.80383  0.43828  0.35606  Biso   1.000  C
  C158     1.0000 0.81600  0.55670  0.34776  Biso   1.000  C
  H181     1.0000 0.75866  0.68311  0.51542  Biso   1.000  H
  C159     1.0000 0.75672  0.62347  0.57724  Biso   1.000  C
  C160     1.0000 0.71999  0.52069  0.56210  Biso   1.000  C
  H182     1.0000 0.69526  0.51380  0.49131  Biso   1.000  H
  H183     1.0000 0.78627  0.40217  0.35970  Biso   1.000  H
  C161     1.0000 0.84358  0.42470  0.35531  Biso   1.000  C
  C162     1.0000 0.85548  0.54367  0.34813  Biso   1.000  C
  H184     1.0000 0.80659  0.60150  0.34490  Biso   1.000  H
  C163     1.0000 0.74335  0.56147  0.59410  Biso   1.000  C
  C164     1.0000 0.77936  0.66471  0.61487  Biso   1.000  C
  C165     1.0000 0.70482  0.45638  0.57942  Biso   1.000  C
  C166     1.0000 0.86904  0.47780  0.35166  Biso   1.000  C
  C167     1.0000 0.85874  0.35480  0.35455  Biso   1.000  C
  C168     1.0000 0.88275  0.60019  0.34235  Biso   1.000  C
  H185     1.0000 0.75017  0.54709  0.62742  Biso   1.000  H
  N27      1.0000 0.78854  0.72560  0.60800  Biso   1.000  N
  H186     1.0000 0.78737  0.64429  0.64590  Biso   1.000  H
  N28      1.0000 0.71269  0.43259  0.62209  Biso   1.000  N
  H187     1.0000 0.68808  0.43149  0.55688  Biso   1.000  H
  H188     1.0000 0.89599  0.46930  0.35151  Biso   1.000  H
  N29      1.0000 0.83678  0.30487  0.34513  Biso   1.000  N
  H189     1.0000 0.88559  0.34731  0.36139  Biso   1.000  H
  N30      1.0000 0.91781  0.59109  0.33476  Biso   1.000  N
  H190     1.0000 0.87339  0.64499  0.34449  Biso   1.000  H
  C169     1.0000 0.81070  0.75859  0.64920  Biso   1.000  C
  C170     1.0000 0.69470  0.36828  0.63542  Biso   1.000  C
  C171     1.0000 0.85454  0.23880  0.34122  Biso   1.000  C
  C172     1.0000 0.94252  0.64907  0.32853  Biso   1.000  C
  H191     1.0000 0.81397  0.72661  0.67801  Biso   1.000  H
  C173     1.0000 0.78834  0.82089  0.66622  Biso   1.000  C
  C174     1.0000 0.84990  0.77870  0.63305  Biso   1.000  C
  C175     1.0000 0.72567  0.32051  0.65641  Biso   1.000  C
  C176     1.0000 0.66533  0.38261  0.67429  Biso   1.000  C
  H192     1.0000 0.68137  0.34802  0.60481  Biso   1.000  H
  H193     1.0000 0.88329  0.24297  0.34610  Biso   1.000  H
  C177     1.0000 0.84377  0.21019  0.28849  Biso   1.000  C
  C178     1.0000 0.83940  0.19198  0.38175  Biso   1.000  C
  H194     1.0000 0.92688  0.69121  0.33010  Biso   1.000  H
  C179     1.0000 0.96055  0.64489  0.27790  Biso   1.000  C
  C180     1.0000 0.97423  0.64907  0.37119  Biso   1.000  C
  H195     1.0000 0.78277  0.85091  0.63700  Biso   1.000  H
  H196     1.0000 0.76337  0.80641  0.67891  Biso   1.000  H
  C181     1.0000 0.81138  0.85931  0.70712  Biso   1.000  C
  N31      1.0000 0.87142  0.71811  0.62062  Biso   1.000  N
  C182     1.0000 0.87330  0.81666  0.67429  Biso   1.000  C
  H197     1.0000 0.84667  0.80786  0.60259  Biso   1.000  H
  N32      1.0000 0.75224  0.30507  0.61701  Biso   1.000  N
  H198     1.0000 0.74026  0.34218  0.68548  Biso   1.000  H
  C183     1.0000 0.70765  0.25489  0.67369  Biso   1.000  C
  C184     1.0000 0.64706  0.31699  0.69112  Biso   1.000  C
  H199     1.0000 0.64496  0.41288  0.65961  Biso   1.000  H
  H200     1.0000 0.67817  0.40549  0.70359  Biso   1.000  H
  H201     1.0000 0.85438  0.23970  0.26280  Biso   1.000  H
  H202     1.0000 0.81529  0.20938  0.28282  Biso   1.000  H
  C185     1.0000 0.85988  0.13838  0.28342  Biso   1.000  C
  N33      1.0000 0.85243  0.21818  0.43084  Biso   1.000  N
  C186     1.0000 0.85448  0.12129  0.37611  Biso   1.000  C
  H203     1.0000 0.81059  0.19148  0.37882  Biso   1.000  H
  H204     1.0000 0.93989  0.64540  0.25082  Biso   1.000  H
  H205     1.0000 0.97470  0.60190  0.27572  Biso   1.000  H
  C187     1.0000 0.98823  0.70317  0.27020  Biso   1.000  C
  N34      1.0000 0.95766  0.65450  0.41961  Biso   1.000  N
  H206     1.0000 0.98897  0.60597  0.37010  Biso   1.000  H
  C188     1.0000 0.00205  0.70800  0.36349  Biso   1.000  C
  H207     1.0000 0.79736  0.90089  0.71519  Biso   1.000  H
  H208     1.0000 0.81377  0.83140  0.73792  Biso   1.000  H
  C189     1.0000 0.85087  0.87731  0.69161  Biso   1.000  C
  C190     1.0000 0.88350  0.71368  0.57739  Biso   1.000  C
  H209     1.0000 0.87918  0.78639  0.70321  Biso   1.000  H
  H210     1.0000 0.89806  0.83180  0.66141  Biso   1.000  H
  C191     1.0000 0.78774  0.32132  0.62573  Biso   1.000  C
  H211     1.0000 0.72808  0.22537  0.68901  Biso   1.000  H
  H212     1.0000 0.69527  0.23111  0.64440  Biso   1.000  H
  C192     1.0000 0.67751  0.26912  0.71211  Biso   1.000  C
  H213     1.0000 0.62856  0.32680  0.71711  Biso   1.000  H
  H214     1.0000 0.63256  0.29577  0.66220  Biso   1.000  H
  H215     1.0000 0.85238  0.12038  0.24962  Biso   1.000  H
  H216     1.0000 0.88848  0.13949  0.28729  Biso   1.000  H
  C193     1.0000 0.84409  0.09252  0.32361  Biso   1.000  C
  C194     1.0000 0.82770  0.24408  0.45810  Biso   1.000  C
  H217     1.0000 0.84349  0.09202  0.40169  Biso   1.000  H
  H218     1.0000 0.88289  0.12139  0.38220  Biso   1.000  H
  H219     1.0000 0.97388  0.74617  0.26978  Biso   1.000  H
  H220     1.0000 0.99999  0.69809  0.23741  Biso   1.000  H
  C195     1.0000 0.01998  0.70428  0.31241  Biso   1.000  C
  C196     1.0000 0.95740  0.60240  0.44684  Biso   1.000  C
  H221     1.0000 0.98789  0.75089  0.36590  Biso   1.000  H
  H222     1.0000 0.02289  0.70740  0.39050  Biso   1.000  H
  H223     1.0000 0.86555  0.89878  0.72019  Biso   1.000  H
  H224     1.0000 0.84845  0.91049  0.66389  Biso   1.000  H
  C197     1.0000 0.90696  0.65681  0.56120  Biso   1.000  C
  H225     1.0000 0.87727  0.74848  0.55399  Biso   1.000  H
  C198     1.0000 0.81758  0.30829  0.59031  Biso   1.000  C
  H226     1.0000 0.79506  0.34269  0.65671  Biso   1.000  H
  H227     1.0000 0.66516  0.22628  0.72150  Biso   1.000  H
  H228     1.0000 0.69047  0.28858  0.74291  Biso   1.000  H
  H229     1.0000 0.85519  0.04692  0.32090  Biso   1.000  H
  H230     1.0000 0.81570  0.08890  0.31831  Biso   1.000  H
  C199     1.0000 0.83765  0.26987  0.50907  Biso   1.000  C
  H231     1.0000 0.80167  0.24710  0.44518  Biso   1.000  H
  H232     1.0000 0.03688  0.74380  0.30821  Biso   1.000  H
  H233     1.0000 0.03598  0.66320  0.31069  Biso   1.000  H
  C200     1.0000 0.94261  0.60230  0.49698  Biso   1.000  C
  H234     1.0000 0.96727  0.56157  0.43410  Biso   1.000  H
  C201     1.0000 0.91954  0.65480  0.51301  Biso   1.000  C
  C202     1.0000 0.91639  0.60341  0.59467  Biso   1.000  C
  C203     1.0000 0.80828  0.28531  0.54009  Biso   1.000  C
  C204     1.0000 0.85559  0.31518  0.60631  Biso   1.000  C
  C205     1.0000 0.87609  0.27722  0.52691  Biso   1.000  C
  C206     1.0000 0.95221  0.54971  0.53063  Biso   1.000  C
  H235     1.0000 0.91239  0.69000  0.49029  Biso   1.000  H
  C207     1.0000 0.93962  0.55091  0.57983  Biso   1.000  C
  H236     1.0000 0.90686  0.60341  0.62731  Biso   1.000  H
  H237     1.0000 0.78206  0.28069  0.52819  Biso   1.000  H
  C208     1.0000 0.88578  0.29999  0.57472  Biso   1.000  C
  H238     1.0000 0.86186  0.33072  0.63951  Biso   1.000  H
  H239     1.0000 0.89606  0.26620  0.50550  Biso   1.000  H
  H240     1.0000 0.96736  0.51310  0.52011  Biso   1.000  H
  C209     1.0000 0.95230  0.49997  0.61777  Biso   1.000  C
  C210     1.0000 0.92671  0.30819  0.59035  Biso   1.000  C
  N35      1.0000 0.97797  0.45688  0.61236  Biso   1.000  N
  H241     1.0000 0.93996  0.50008  0.64871  Biso   1.000  H
  N36      1.0000 0.93808  0.33328  0.63241  Biso   1.000  N
  H242     1.0000 0.94558  0.29421  0.56811  Biso   1.000  H
  C211     1.0000 0.98896  0.41379  0.65593  Biso   1.000  C
  C212     1.0000 0.97948  0.34007  0.64289  Biso   1.000  C
  H243     1.0000 0.97425  0.42792  0.68530  Biso   1.000  H
  C213     1.0000 0.03211  0.42279  0.66862  Biso   1.000  C
  C214     1.0000 0.99253  0.29472  0.68669  Biso   1.000  C
  H244     1.0000 0.99316  0.32680  0.61240  Biso   1.000  H
  H245     1.0000 0.03757  0.47031  0.67748  Biso   1.000  H
  H246     1.0000 0.04666  0.41137  0.63891  Biso   1.000  H
  C215     1.0000 0.04531  0.37738  0.71260  Biso   1.000  C
  H247     1.0000 0.98756  0.24710  0.67741  Biso   1.000  H
  H248     1.0000 0.97756  0.30527  0.71609  Biso   1.000  H
  C216     1.0000 0.03552  0.30432  0.70051  Biso   1.000  C
  H249     1.0000 0.07355  0.38211  0.71951  Biso   1.000  H
  H250     1.0000 0.03235  0.39141  0.74310  Biso   1.000  H
  H251     1.0000 0.04306  0.27591  0.72999  Biso   1.000  H
  H252     1.0000 0.05057  0.28928  0.67219  Biso   1.000  H
  C217     1.0000 0.54278  0.47921  0.26411  Biso   1.000  C
  C218     1.0000 0.54110  0.40760  0.24710  Biso   1.000  C
  C219     1.0000 0.52845  0.52778  0.22148  Biso   1.000  C
  H253     1.0000 0.56960  0.49077  0.27531  Biso   1.000  H
  H254     1.0000 0.52650  0.48479  0.29318  Biso   1.000  H
  C220     1.0000 0.50069  0.38860  0.22918  Biso   1.000  C
  H255     1.0000 0.55000  0.37789  0.27531  Biso   1.000  H
  H256     1.0000 0.55869  0.40132  0.21949  Biso   1.000  H
  C221     1.0000 0.48805  0.50767  0.20289  Biso   1.000  C
  H257     1.0000 0.52839  0.57460  0.23429  Biso   1.000  H
  H258     1.0000 0.54600  0.52557  0.19362  Biso   1.000  H
  C222     1.0000 0.48575  0.43450  0.18569  Biso   1.000  C
  H259     1.0000 0.48347  0.39242  0.25731  Biso   1.000  H
  H260     1.0000 0.50030  0.34118  0.21769  Biso   1.000  H
  N37      1.0000 0.47506  0.55011  0.16004  Biso   1.000  N
  H261     1.0000 0.47020  0.51431  0.23061  Biso   1.000  H
  N38      1.0000 0.44560  0.41650  0.17149  Biso   1.000  N
  H262     1.0000 0.50199  0.42807  0.15628  Biso   1.000  H
  C223     1.0000 0.44571  0.58737  0.16500  Biso   1.000  C
  C224     1.0000 0.43873  0.39010  0.12931  Biso   1.000  C
  C225     1.0000 0.43064  0.63640  0.12639  Biso   1.000  C
  H263     1.0000 0.43259  0.58380  0.19519  Biso   1.000  H
  C226     1.0000 0.39935  0.37039  0.10918  Biso   1.000  C
  H264     1.0000 0.45978  0.38221  0.10888  Biso   1.000  H
  C227     1.0000 0.40359  0.68241  0.13900  Biso   1.000  C
  C228     1.0000 0.44392  0.63640  0.07850  Biso   1.000  C
  C229     1.0000 0.36757  0.37658  0.13799  Biso   1.000  C
  C230     1.0000 0.39504  0.34671  0.05991  Biso   1.000  C
  C231     1.0000 0.38991  0.73199  0.10449  Biso   1.000  C
  H265     1.0000 0.39380  0.68090  0.17149  Biso   1.000  H
  C232     1.0000 0.43130  0.68487  0.04312  Biso   1.000  C
  H266     1.0000 0.46188  0.60301  0.06948  Biso   1.000  H
  C233     1.0000 0.33063  0.35998  0.11688  Biso   1.000  C
  H267     1.0000 0.37069  0.39201  0.17179  Biso   1.000  H
  C234     1.0000 0.35818  0.33092  0.03940  Biso   1.000  C
  H268     1.0000 0.41689  0.34148  0.04049  Biso   1.000  H
  C235     1.0000 0.36275  0.78317  0.11850  Biso   1.000  C
  C236     1.0000 0.40409  0.73209  0.05671  Biso   1.000  C
  C237     1.0000 0.44883  0.68879  0.99467  Biso   1.000  C
  C238     1.0000 0.29756  0.36421  0.14971  Biso   1.000  C
  C239     1.0000 0.32631  0.33781  0.06802  Biso   1.000  C
  C240     1.0000 0.35265  0.30261  0.98719  Biso   1.000  C
  N39      1.0000 0.35063  0.78951  0.16131  Biso   1.000  N
  H269     1.0000 0.35358  0.81400  0.09330  Biso   1.000  H
  H270     1.0000 0.39511  0.76497  0.03301  Biso   1.000  H
  N40      1.0000 0.44490  0.74038  0.96605  Biso   1.000  N
  H271     1.0000 0.46363  0.65178  0.98400  Biso   1.000  H
  N41      1.0000 0.26324  0.34937  0.13581  Biso   1.000  N
  H272     1.0000 0.30258  0.37899  0.18329  Biso   1.000  H
  H273     1.0000 0.30129  0.32710  0.05371  Biso   1.000  H
  N42      1.0000 0.37995  0.28672  0.96131  Biso   1.000  N
  H274     1.0000 0.32704  0.29658  0.97330  Biso   1.000  H
  C241     1.0000 0.32434  0.84618  0.16920  Biso   1.000  C
  C242     1.0000 0.46687  0.74239  0.92045  Biso   1.000  C
  C243     1.0000 0.23465  0.35279  0.17450  Biso   1.000  C
  C244     1.0000 0.36985  0.25650  0.91200  Biso   1.000  C
  C245     1.0000 0.28490  0.81857  0.18197  Biso   1.000  C
  H275     1.0000 0.32138  0.87359  0.13769  Biso   1.000  H
  C246     1.0000 0.34121  0.89008  0.21191  Biso   1.000  C
  C247     1.0000 0.43935  0.73807  0.87399  Biso   1.000  C
  H276     1.0000 0.48525  0.70358  0.92071  Biso   1.000  H
  C248     1.0000 0.48967  0.80807  0.92090  Biso   1.000  C
  C249     1.0000 0.21986  0.28079  0.18239  Biso   1.000  C
  C250     1.0000 0.20086  0.39760  0.15628  Biso   1.000  C
  H277     1.0000 0.24689  0.37079  0.20661  Biso   1.000  H
  H278     1.0000 0.34116  0.25082  0.90802  Biso   1.000  H
  C251     1.0000 0.38924  0.18681  0.91001  Biso   1.000  C
  C252     1.0000 0.38282  0.30321  0.87140  Biso   1.000  C
  N43      1.0000 0.26869  0.77719  0.14043  Biso   1.000  N
  C253     1.0000 0.25776  0.87761  0.18918  Biso   1.000  C
  H279     1.0000 0.28758  0.79117  0.21341  Biso   1.000  H
  H280     1.0000 0.34518  0.86277  0.24270  Biso   1.000  H
  H281     1.0000 0.36658  0.90798  0.20300  Biso   1.000  H
  C254     1.0000 0.31431  0.94781  0.22148  Biso   1.000  C
  N44      1.0000 0.42057  0.67049  0.87380  Biso   1.000  N
  C255     1.0000 0.46154  0.74511  0.82682  Biso   1.000  C
  H282     1.0000 0.41935  0.77417  0.87489  Biso   1.000  H
  H283     1.0000 0.50825  0.80897  0.95038  Biso   1.000  H
  H284     1.0000 0.47174  0.84658  0.92361  Biso   1.000  H
  C256     1.0000 0.51158  0.81511  0.87271  Biso   1.000  C
  C257     1.0000 0.18793  0.28038  0.22051  Biso   1.000  C
  H285     1.0000 0.24158  0.25177  0.19489  Biso   1.000  H
  H286     1.0000 0.20948  0.26228  0.14990  Biso   1.000  H
  C258     1.0000 0.17082  0.39850  0.19621  Biso   1.000  C
  N45      1.0000 0.21451  0.46538  0.14828  Biso   1.000  N
  H287     1.0000 0.18890  0.37939  0.12409  Biso   1.000  H
  H288     1.0000 0.41736  0.19148  0.91801  Biso   1.000  H
  H289     1.0000 0.37856  0.15689  0.93540  Biso   1.000  H
  C259     1.0000 0.38235  0.15598  0.85822  Biso   1.000  C
  N46      1.0000 0.36019  0.36481  0.87136  Biso   1.000  N
  C260     1.0000 0.37654  0.27028  0.81919  Biso   1.000  C
  H290     1.0000 0.41076  0.31418  0.87801  Biso   1.000  H
  C261     1.0000 0.26089  0.71760  0.15031  Biso   1.000  C
  C262     1.0000 0.27346  0.92317  0.23091  Biso   1.000  C
  H291     1.0000 0.25450  0.90350  0.15760  Biso   1.000  H
  H292     1.0000 0.23210  0.86041  0.19748  Biso   1.000  H
  H293     1.0000 0.31309  0.97838  0.19211  Biso   1.000  H
  H294     1.0000 0.32468  0.97360  0.25100  Biso   1.000  H
  C263     1.0000 0.38420  0.67039  0.87452  Biso   1.000  C
  C264     1.0000 0.48464  0.81048  0.82719  Biso   1.000  C
  H295     1.0000 0.44325  0.74420  0.79692  Biso   1.000  H
  H296     1.0000 0.47945  0.70649  0.82441  Biso   1.000  H
  H297     1.0000 0.52514  0.85890  0.87290  Biso   1.000  H
  H298     1.0000 0.53116  0.77900  0.87159  Biso   1.000  H
  C265     1.0000 0.15515  0.32871  0.20560  Biso   1.000  C
  H299     1.0000 0.17740  0.23427  0.22291  Biso   1.000  H
  H300     1.0000 0.19940  0.29301  0.25401  Biso   1.000  H
  H301     1.0000 0.18278  0.41680  0.22791  Biso   1.000  H
  H302     1.0000 0.14919  0.42847  0.18501  Biso   1.000  H
  C266     1.0000 0.20600  0.49158  0.10550  Biso   1.000  C
  H303     1.0000 0.39604  0.11238  0.85701  Biso   1.000  H
  H304     1.0000 0.35436  0.14728  0.85172  Biso   1.000  H
  C267     1.0000 0.39626  0.20169  0.81799  Biso   1.000  C
  C268     1.0000 0.37805  0.42058  0.87422  Biso   1.000  C
  H305     1.0000 0.34855  0.26500  0.81089  Biso   1.000  H
  H306     1.0000 0.38715  0.29999  0.79350  Biso   1.000  H
  C269     1.0000 0.24315  0.67069  0.11129  Biso   1.000  C
  H307     1.0000 0.26629  0.70141  0.18351  Biso   1.000  H
  H308     1.0000 0.27398  0.89858  0.26321  Biso   1.000  H
  H309     1.0000 0.25608  0.96239  0.23362  Biso   1.000  H
  C270     1.0000 0.36184  0.60768  0.87410  Biso   1.000  C
  H310     1.0000 0.37094  0.71207  0.87519  Biso   1.000  H
  H311     1.0000 0.49966  0.81279  0.79669  Biso   1.000  H
  H312     1.0000 0.46666  0.84920  0.82652  Biso   1.000  H
  H313     1.0000 0.14089  0.31201  0.17480  Biso   1.000  H
  H314     1.0000 0.13688  0.33072  0.23279  Biso   1.000  H
  C271     1.0000 0.21580  0.56167  0.09191  Biso   1.000  C
  H315     1.0000 0.19258  0.46468  0.08079  Biso   1.000  H
  H316     1.0000 0.39077  0.18082  0.78471  Biso   1.000  H
  H317     1.0000 0.42456  0.20757  0.82310  Biso   1.000  H
  C272     1.0000 0.35816  0.48590  0.87429  Biso   1.000  C
  H318     1.0000 0.40544  0.42007  0.87639  Biso   1.000  H
  C273     1.0000 0.23351  0.60648  0.12639  Biso   1.000  C
  C274     1.0000 0.23546  0.69010  0.06178  Biso   1.000  C
  C275     1.0000 0.37962  0.54357  0.87452  Biso   1.000  C
  C276     1.0000 0.32169  0.61090  0.87159  Biso   1.000  C
  C277     1.0000 0.20775  0.58179  0.04342  Biso   1.000  C
  C278     1.0000 0.31782  0.48982  0.87279  Biso   1.000  C
  H319     1.0000 0.23899  0.59290  0.16019  Biso   1.000  H
  C279     1.0000 0.21791  0.64610  0.02749  Biso   1.000  C
  H320     1.0000 0.24240  0.73390  0.05131  Biso   1.000  H
  H321     1.0000 0.40696  0.54060  0.87489  Biso   1.000  H
  C280     1.0000 0.29987  0.55257  0.87091  Biso   1.000  C
  H322     1.0000 0.30915  0.65339  0.87031  Biso   1.000  H
  H323     1.0000 0.19510  0.55167  0.02021  Biso   1.000  H
  H324     1.0000 0.30276  0.44989  0.87301  Biso   1.000  H
  C281     1.0000 0.20897  0.66757  0.97529  Biso   1.000  C
  C282     1.0000 0.25678  0.55609  0.86779  Biso   1.000  C
  N47      1.0000 0.18947  0.63177  0.94385  Biso   1.000  N
  H325     1.0000 0.21825  0.71001  0.96481  Biso   1.000  H
  N48      1.0000 0.23958  0.61171  0.86145  Biso   1.000  N
  H326     1.0000 0.24215  0.51602  0.87061  Biso   1.000  H
  C283     1.0000 0.18112  0.65807  0.89318  Biso   1.000  C
  C284     1.0000 0.19750  0.60959  0.85581  Biso   1.000  C
  C285     1.0000 0.13685  0.66420  0.88492  Biso   1.000  C
  H327     1.0000 0.19335  0.70337  0.88999  Biso   1.000  H
  H328     1.0000 0.18826  0.56288  0.86250  Biso   1.000  H
  C286     1.0000 0.18473  0.63031  0.80229  Biso   1.000  C
  C287     1.0000 0.12455  0.68321  0.83091  Biso   1.000  C
  H329     1.0000 0.12485  0.62081  0.89311  Biso   1.000  H
  H330     1.0000 0.12736  0.69870  0.90791  Biso   1.000  H
  H331     1.0000 0.19576  0.67491  0.79489  Biso   1.000  H
  H332     1.0000 0.19476  0.59748  0.77829  Biso   1.000  H
  C288     1.0000 0.14098  0.63348  0.79534  Biso   1.000  C
  H333     1.0000 0.09605  0.68331  0.82640  Biso   1.000  H
  H334     1.0000 0.13394  0.72897  0.82359  Biso   1.000  H
  H335     1.0000 0.13345  0.64660  0.76030  Biso   1.000  H
  H336     1.0000 0.13006  0.58837  0.80131  Biso   1.000  H
  C289     1.0000 0.36489  0.63770  0.64090  Biso   1.000  C
  C290     1.0000 0.32145  0.62589  0.63301  Biso   1.000  C
  H337     1.0000 0.37868  0.59521  0.63459  Biso   1.000  H
  H338     1.0000 0.37308  0.67149  0.61641  Biso   1.000  H
  C291     1.0000 0.37596  0.66199  0.69378  Biso   1.000  C
  N49      1.0000 0.31310  0.59949  0.58287  Biso   1.000  N
  H339     1.0000 0.30736  0.66928  0.63700  Biso   1.000  H
  C292     1.0000 0.30862  0.57450  0.67178  Biso   1.000  C
  H340     1.0000 0.40436  0.66747  0.69780  Biso   1.000  H
  H341     1.0000 0.36395  0.70639  0.69919  Biso   1.000  H
  C293     1.0000 0.36292  0.61281  0.73292  Biso   1.000  C
  C294     1.0000 0.28590  0.62619  0.55617  Biso   1.000  C
  N50      1.0000 0.26629  0.56987  0.66629  Biso   1.000  N
  C295     1.0000 0.32010  0.59717  0.72548  Biso   1.000  C
  H342     1.0000 0.32026  0.52959  0.66520  Biso   1.000  H
  H343     1.0000 0.36827  0.63207  0.76691  Biso   1.000  H
  H344     1.0000 0.37785  0.57057  0.73089  Biso   1.000  H
  C296     1.0000 0.27505  0.60301  0.50408  Biso   1.000  C
  H345     1.0000 0.27187  0.66219  0.56980  Biso   1.000  H
  C297     1.0000 0.25165  0.51410  0.65217  Biso   1.000  C
  H346     1.0000 0.30506  0.63780  0.73341  Biso   1.000  H
  H347     1.0000 0.31335  0.56127  0.74918  Biso   1.000  H
  C298     1.0000 0.28900  0.54141  0.48680  Biso   1.000  C
  C299     1.0000 0.25167  0.64248  0.47241  Biso   1.000  C
  C300     1.0000 0.20980  0.50239  0.64834  Biso   1.000  C
  H348     1.0000 0.26837  0.47860  0.64372  Biso   1.000  H
  C301     1.0000 0.27996  0.52069  0.43790  Biso   1.000  C
  H349     1.0000 0.30468  0.51380  0.50870  Biso   1.000  H
  C302     1.0000 0.24322  0.62347  0.42276  Biso   1.000  C
  H350     1.0000 0.24129  0.68311  0.48462  Biso   1.000  H
  C303     1.0000 0.19611  0.43828  0.64394  Biso   1.000  C
  C304     1.0000 0.18395  0.55670  0.65224  Biso   1.000  C
  C305     1.0000 0.29513  0.45638  0.42062  Biso   1.000  C
  C306     1.0000 0.25660  0.56147  0.40590  Biso   1.000  C
  C307     1.0000 0.22059  0.66471  0.38513  Biso   1.000  C
  C308     1.0000 0.15637  0.42470  0.64470  Biso   1.000  C
  H351     1.0000 0.21368  0.40217  0.64030  Biso   1.000  H
  C309     1.0000 0.14447  0.54367  0.65187  Biso   1.000  C
  H352     1.0000 0.19335  0.60150  0.65510  Biso   1.000  H
  N51      1.0000 0.28726  0.43259  0.37792  Biso   1.000  N
  H353     1.0000 0.31187  0.43149  0.44312  Biso   1.000  H
  H354     1.0000 0.24978  0.54709  0.37258  Biso   1.000  H
  N52      1.0000 0.21141  0.72560  0.39204  Biso   1.000  N
  H355     1.0000 0.21257  0.64429  0.35410  Biso   1.000  H
  C310     1.0000 0.14121  0.35480  0.64545  Biso   1.000  C
  C311     1.0000 0.13091  0.47780  0.64834  Biso   1.000  C
  C312     1.0000 0.11720  0.60019  0.65765  Biso   1.000  C
  C313     1.0000 0.30525  0.36828  0.36458  Biso   1.000  C
  C314     1.0000 0.18925  0.75859  0.35080  Biso   1.000  C
  N53      1.0000 0.16316  0.30487  0.65487  Biso   1.000  N
  H356     1.0000 0.11436  0.34731  0.63861  Biso   1.000  H
  H357     1.0000 0.10396  0.46930  0.64849  Biso   1.000  H
  N54      1.0000 0.08211  0.59109  0.66524  Biso   1.000  N
  H358     1.0000 0.12656  0.64499  0.65551  Biso   1.000  H
  C315     1.0000 0.27428  0.32051  0.34359  Biso   1.000  C
  C316     1.0000 0.33462  0.38261  0.32571  Biso   1.000  C
  H359     1.0000 0.31858  0.34802  0.39519  Biso   1.000  H
  H360     1.0000 0.18597  0.72661  0.32199  Biso   1.000  H
  C317     1.0000 0.21161  0.82089  0.33378  Biso   1.000  C
  C318     1.0000 0.15005  0.77870  0.36695  Biso   1.000  C
  C319     1.0000 0.14538  0.23880  0.65878  Biso   1.000  C
  C320     1.0000 0.05743  0.64907  0.67147  Biso   1.000  C
  C321     1.0000 0.29230  0.25489  0.32631  Biso   1.000  C
  N55      1.0000 0.24770  0.30507  0.38299  Biso   1.000  N
  H361     1.0000 0.25969  0.34218  0.31452  Biso   1.000  H
  C322     1.0000 0.35289  0.31699  0.30888  Biso   1.000  C
  H362     1.0000 0.35499  0.41288  0.34039  Biso   1.000  H
  H363     1.0000 0.32178  0.40549  0.29641  Biso   1.000  H
  H364     1.0000 0.21718  0.85091  0.36301  Biso   1.000  H
  H365     1.0000 0.23658  0.80641  0.32109  Biso   1.000  H
  C323     1.0000 0.18857  0.85931  0.29288  Biso   1.000  C
  N56      1.0000 0.12852  0.71811  0.37938  Biso   1.000  N
  C324     1.0000 0.12665  0.81666  0.32571  Biso   1.000  C
  H366     1.0000 0.15328  0.80786  0.39741  Biso   1.000  H
  C325     1.0000 0.16055  0.19198  0.61825  Biso   1.000  C
  H367     1.0000 0.11666  0.24297  0.65390  Biso   1.000  H
  C326     1.0000 0.15618  0.21019  0.71151  Biso   1.000  C
  C327     1.0000 0.02572  0.64907  0.62881  Biso   1.000  C
  H368     1.0000 0.07307  0.69121  0.66990  Biso   1.000  H
  C328     1.0000 0.03939  0.64489  0.72210  Biso   1.000  C
  H369     1.0000 0.27187  0.22537  0.31099  Biso   1.000  H
  H370     1.0000 0.30468  0.23111  0.35561  Biso   1.000  H
  C329     1.0000 0.32244  0.26912  0.28789  Biso   1.000  C
  C330     1.0000 0.21220  0.32132  0.37427  Biso   1.000  C
  H371     1.0000 0.37139  0.32680  0.28289  Biso   1.000  H
  H372     1.0000 0.36738  0.29577  0.33780  Biso   1.000  H
  H373     1.0000 0.20259  0.90089  0.28481  Biso   1.000  H
  H374     1.0000 0.18618  0.83140  0.26208  Biso   1.000  H
  C331     1.0000 0.14908  0.87731  0.30839  Biso   1.000  C
  C332     1.0000 0.11644  0.71368  0.42261  Biso   1.000  C
  H375     1.0000 0.12077  0.78639  0.29679  Biso   1.000  H
  H376     1.0000 0.10188  0.83180  0.33859  Biso   1.000  H
  N57      1.0000 0.14752  0.21818  0.56916  Biso   1.000  N
  C333     1.0000 0.14547  0.12129  0.62389  Biso   1.000  C
  H377     1.0000 0.18936  0.19148  0.62118  Biso   1.000  H
  H378     1.0000 0.14557  0.23970  0.73720  Biso   1.000  H
  H379     1.0000 0.18465  0.20938  0.71718  Biso   1.000  H
  C334     1.0000 0.14007  0.13838  0.71662  Biso   1.000  C
  N58      1.0000 0.04229  0.65450  0.58040  Biso   1.000  N
  H380     1.0000 0.01098  0.60597  0.62990  Biso   1.000  H
  C335     1.0000 0.99790  0.70800  0.63651  Biso   1.000  C
  H381     1.0000 0.06006  0.64540  0.74918  Biso   1.000  H
  H382     1.0000 0.02525  0.60190  0.72432  Biso   1.000  H
  C336     1.0000 0.01172  0.70317  0.72980  Biso   1.000  C
  H383     1.0000 0.33479  0.22628  0.27850  Biso   1.000  H
  H384     1.0000 0.30947  0.28858  0.25709  Biso   1.000  H
  C337     1.0000 0.18237  0.30829  0.40969  Biso   1.000  C
  H385     1.0000 0.20488  0.34269  0.34329  Biso   1.000  H
  H386     1.0000 0.13440  0.89878  0.27981  Biso   1.000  H
  H387     1.0000 0.15150  0.91049  0.33611  Biso   1.000  H
  C338     1.0000 0.09298  0.65681  0.43880  Biso   1.000  C
  H388     1.0000 0.12268  0.74848  0.44601  Biso   1.000  H
  C339     1.0000 0.17224  0.24408  0.54190  Biso   1.000  C
  C340     1.0000 0.15585  0.09252  0.67640  Biso   1.000  C
  H389     1.0000 0.15646  0.09202  0.59831  Biso   1.000  H
  H390     1.0000 0.11706  0.12139  0.61780  Biso   1.000  H
  H391     1.0000 0.14757  0.12038  0.75039  Biso   1.000  H
  H392     1.0000 0.11147  0.13949  0.71271  Biso   1.000  H
  C341     1.0000 0.04254  0.60240  0.55316  Biso   1.000  C
  H393     1.0000 0.01206  0.75089  0.63410  Biso   1.000  H
  C342     1.0000 0.97997  0.70428  0.68759  Biso   1.000  C
  H394     1.0000 0.97706  0.70740  0.60950  Biso   1.000  H
  H395     1.0000 0.02606  0.74617  0.73022  Biso   1.000  H
  H396     1.0000 0.99995  0.69809  0.76259  Biso   1.000  H
  C343     1.0000 0.14435  0.31518  0.39369  Biso   1.000  C
  C344     1.0000 0.19167  0.28531  0.45991  Biso   1.000  C
  C345     1.0000 0.08356  0.60341  0.40533  Biso   1.000  C
  C346     1.0000 0.08041  0.65480  0.48699  Biso   1.000  C
  C347     1.0000 0.16230  0.26987  0.49093  Biso   1.000  C
  H397     1.0000 0.19827  0.24710  0.55482  Biso   1.000  H
  H398     1.0000 0.14476  0.04692  0.67910  Biso   1.000  H
  H399     1.0000 0.18425  0.08890  0.68169  Biso   1.000  H
  C348     1.0000 0.05734  0.60230  0.50302  Biso   1.000  C
  H400     1.0000 0.03268  0.56157  0.56590  Biso   1.000  H
  H401     1.0000 0.96307  0.74380  0.69179  Biso   1.000  H
  H402     1.0000 0.96396  0.66320  0.68932  Biso   1.000  H
  H403     1.0000 0.13809  0.33072  0.36049  Biso   1.000  H
  C349     1.0000 0.11417  0.29999  0.42528  Biso   1.000  C
  H404     1.0000 0.21789  0.28069  0.47181  Biso   1.000  H
  C350     1.0000 0.06033  0.55091  0.42017  Biso   1.000  C
  H405     1.0000 0.09309  0.60341  0.37270  Biso   1.000  H
  H406     1.0000 0.08756  0.69000  0.50971  Biso   1.000  H
  C351     1.0000 0.12383  0.27722  0.47309  Biso   1.000  C
  C352     1.0000 0.04774  0.54971  0.46937  Biso   1.000  C
  C353     1.0000 0.07320  0.30819  0.40965  Biso   1.000  C
  C354     1.0000 0.04765  0.49997  0.38224  Biso   1.000  C
  H407     1.0000 0.10389  0.26620  0.49450  Biso   1.000  H
  H408     1.0000 0.03258  0.51310  0.47989  Biso   1.000  H
  N59      1.0000 0.06187  0.33328  0.36759  Biso   1.000  N
  H409     1.0000 0.05437  0.29421  0.43189  Biso   1.000  H
  N60      1.0000 0.02198  0.45688  0.38764  Biso   1.000  N
  H410     1.0000 0.05999  0.50008  0.35129  Biso   1.000  H
  C355     1.0000 0.02047  0.34007  0.35711  Biso   1.000  C
  C356     1.0000 0.01098  0.41379  0.34408  Biso   1.000  C
  C357     1.0000 0.00739  0.29472  0.31331  Biso   1.000  C
  H411     1.0000 0.00679  0.32680  0.38761  Biso   1.000  H
  H412     1.0000 0.02567  0.42792  0.31470  Biso   1.000  H
  C358     1.0000 0.96784  0.42279  0.33138  Biso   1.000  C
  H413     1.0000 0.01239  0.24710  0.32259  Biso   1.000  H
  H414     1.0000 0.02239  0.30527  0.28391  Biso   1.000  H
  C359     1.0000 0.96443  0.30432  0.29949  Biso   1.000  C
  H415     1.0000 0.96237  0.47031  0.32252  Biso   1.000  H
  H416     1.0000 0.95329  0.41137  0.36109  Biso   1.000  H
  C360     1.0000 0.95464  0.37738  0.28740  Biso   1.000  C
  H417     1.0000 0.95689  0.27591  0.27001  Biso   1.000  H
  H418     1.0000 0.94938  0.28928  0.32781  Biso   1.000  H
  H419     1.0000 0.92640  0.38211  0.28049  Biso   1.000  H
  H420     1.0000 0.96760  0.39141  0.25690  Biso   1.000  H
  C361     1.0000 0.45717  0.47921  0.73589  Biso   1.000  C
  C362     1.0000 0.45885  0.40760  0.75290  Biso   1.000  C
  H421     1.0000 0.43035  0.49077  0.72470  Biso   1.000  H
  H422     1.0000 0.47345  0.48479  0.70682  Biso   1.000  H
  C363     1.0000 0.47149  0.52778  0.77852  Biso   1.000  C
  C364     1.0000 0.49925  0.38860  0.77082  Biso   1.000  C
  H423     1.0000 0.44995  0.37789  0.72470  Biso   1.000  H
  H424     1.0000 0.44126  0.40132  0.78051  Biso   1.000  H
  H425     1.0000 0.47156  0.57460  0.76571  Biso   1.000  H
  H426     1.0000 0.45394  0.52557  0.80639  Biso   1.000  H
  C365     1.0000 0.51190  0.50767  0.79711  Biso   1.000  C
  C366     1.0000 0.51420  0.43450  0.81431  Biso   1.000  C
  H427     1.0000 0.51645  0.39242  0.74269  Biso   1.000  H
  H428     1.0000 0.49965  0.34118  0.78231  Biso   1.000  H
  N61      1.0000 0.52488  0.55011  0.83996  Biso   1.000  N
  H429     1.0000 0.52975  0.51431  0.76939  Biso   1.000  H
  N62      1.0000 0.55435  0.41650  0.82851  Biso   1.000  N
  H430     1.0000 0.49796  0.42807  0.84372  Biso   1.000  H
  C367     1.0000 0.55424  0.58737  0.83501  Biso   1.000  C
  C368     1.0000 0.56122  0.39010  0.87069  Biso   1.000  C
  C369     1.0000 0.56931  0.63640  0.87362  Biso   1.000  C
  H431     1.0000 0.56736  0.58380  0.80481  Biso   1.000  H
  C370     1.0000 0.60060  0.37039  0.89082  Biso   1.000  C
  H432     1.0000 0.54014  0.38221  0.89112  Biso   1.000  H
  C371     1.0000 0.59636  0.68241  0.86100  Biso   1.000  C
  C372     1.0000 0.55602  0.63640  0.92150  Biso   1.000  C
  C373     1.0000 0.63238  0.37658  0.86201  Biso   1.000  C
  C374     1.0000 0.60491  0.34671  0.94009  Biso   1.000  C
  H433     1.0000 0.60615  0.68090  0.82851  Biso   1.000  H
  C375     1.0000 0.61003  0.73199  0.89551  Biso   1.000  C
  C376     1.0000 0.56865  0.68487  0.95692  Biso   1.000  C
  H434     1.0000 0.53806  0.60301  0.93052  Biso   1.000  H
  C377     1.0000 0.66932  0.35998  0.88312  Biso   1.000  C
  H435     1.0000 0.62925  0.39201  0.82821  Biso   1.000  H
  C378     1.0000 0.64177  0.33092  0.96060  Biso   1.000  C
  H436     1.0000 0.58306  0.34148  0.95951  Biso   1.000  H
  C379     1.0000 0.59585  0.73209  0.94329  Biso   1.000  C
  C380     1.0000 0.63720  0.78317  0.88150  Biso   1.000  C
  C381     1.0000 0.55112  0.68879  0.00533  Biso   1.000  C
  C382     1.0000 0.67364  0.33781  0.93202  Biso   1.000  C
  C383     1.0000 0.70239  0.36421  0.85029  Biso   1.000  C
  C384     1.0000 0.64730  0.30261  0.01281  Biso   1.000  C
  H437     1.0000 0.60484  0.76497  0.96699  Biso   1.000  H
  N63      1.0000 0.64932  0.78951  0.83869  Biso   1.000  N
  H438     1.0000 0.64636  0.81400  0.90671  Biso   1.000  H
  N64      1.0000 0.55505  0.74038  0.03395  Biso   1.000  N
  H439     1.0000 0.53632  0.65178  0.01600  Biso   1.000  H
  H440     1.0000 0.69866  0.32710  0.94629  Biso   1.000  H
  N65      1.0000 0.73671  0.34937  0.86419  Biso   1.000  N
  H441     1.0000 0.69734  0.37899  0.81671  Biso   1.000  H
  N66      1.0000 0.62000  0.28672  0.03869  Biso   1.000  N
  H442     1.0000 0.67291  0.29658  0.02671  Biso   1.000  H
  C385     1.0000 0.67560  0.84618  0.83080  Biso   1.000  C
  C386     1.0000 0.53308  0.74239  0.07959  Biso   1.000  C
  C387     1.0000 0.76530  0.35279  0.82550  Biso   1.000  C
  C388     1.0000 0.63010  0.25650  0.08800  Biso   1.000  C
  H443     1.0000 0.67857  0.87359  0.86231  Biso   1.000  H
  C389     1.0000 0.65874  0.89008  0.78809  Biso   1.000  C
  C390     1.0000 0.71504  0.81857  0.81803  Biso   1.000  C
  H444     1.0000 0.51470  0.70358  0.07929  Biso   1.000  H
  C391     1.0000 0.51028  0.80807  0.07910  Biso   1.000  C
  C392     1.0000 0.56060  0.73807  0.12601  Biso   1.000  C
  C393     1.0000 0.79909  0.39760  0.84372  Biso   1.000  C
  C394     1.0000 0.78008  0.28079  0.81762  Biso   1.000  C
  H445     1.0000 0.75306  0.37079  0.79339  Biso   1.000  H
  H446     1.0000 0.65879  0.25082  0.09202  Biso   1.000  H
  C395     1.0000 0.61071  0.18681  0.08999  Biso   1.000  C
  C396     1.0000 0.61713  0.30321  0.12860  Biso   1.000  C
  H447     1.0000 0.65477  0.86277  0.75730  Biso   1.000  H
  H448     1.0000 0.63336  0.90798  0.79700  Biso   1.000  H
  C397     1.0000 0.68564  0.94781  0.77852  Biso   1.000  C
  N67      1.0000 0.73125  0.77719  0.85957  Biso   1.000  N
  C398     1.0000 0.74219  0.87761  0.81082  Biso   1.000  C
  H449     1.0000 0.71237  0.79117  0.78659  Biso   1.000  H
  H450     1.0000 0.49170  0.80897  0.04962  Biso   1.000  H
  H451     1.0000 0.52821  0.84658  0.07640  Biso   1.000  H
  C399     1.0000 0.48837  0.81511  0.12729  Biso   1.000  C
  N68      1.0000 0.57937  0.67049  0.12620  Biso   1.000  N
  C400     1.0000 0.53841  0.74511  0.17318  Biso   1.000  C
  H452     1.0000 0.58059  0.77417  0.12511  Biso   1.000  H
  N69      1.0000 0.78544  0.46538  0.85172  Biso   1.000  N
  H453     1.0000 0.81105  0.37939  0.87591  Biso   1.000  H
  C401     1.0000 0.82913  0.39850  0.80379  Biso   1.000  C
  C402     1.0000 0.81202  0.28038  0.77949  Biso   1.000  C
  H454     1.0000 0.75837  0.25177  0.80511  Biso   1.000  H
  H455     1.0000 0.79044  0.26228  0.85010  Biso   1.000  H
  H456     1.0000 0.58259  0.19148  0.08199  Biso   1.000  H
  H457     1.0000 0.62139  0.15689  0.06460  Biso   1.000  H
  C403     1.0000 0.61760  0.15598  0.14179  Biso   1.000  C
  N70      1.0000 0.63976  0.36481  0.12864  Biso   1.000  N
  C404     1.0000 0.62341  0.27028  0.18081  Biso   1.000  C
  H458     1.0000 0.58919  0.31418  0.12199  Biso   1.000  H
  H459     1.0000 0.68686  0.97838  0.80789  Biso   1.000  H
  H460     1.0000 0.67527  0.97360  0.74900  Biso   1.000  H
  C405     1.0000 0.72649  0.92317  0.76909  Biso   1.000  C
  C406     1.0000 0.73906  0.71760  0.84969  Biso   1.000  C
  H461     1.0000 0.74545  0.90350  0.84240  Biso   1.000  H
  H462     1.0000 0.76785  0.86041  0.80252  Biso   1.000  H
  H463     1.0000 0.47481  0.85890  0.12710  Biso   1.000  H
  H464     1.0000 0.46879  0.77900  0.12841  Biso   1.000  H
  C407     1.0000 0.51530  0.81048  0.17281  Biso   1.000  C
  C408     1.0000 0.61575  0.67039  0.12548  Biso   1.000  C
  H465     1.0000 0.55669  0.74420  0.20312  Biso   1.000  H
  H466     1.0000 0.52050  0.70649  0.17559  Biso   1.000  H
  C409     1.0000 0.79395  0.49158  0.89450  Biso   1.000  C
  H467     1.0000 0.81717  0.41680  0.77209  Biso   1.000  H
  H468     1.0000 0.85076  0.42847  0.81499  Biso   1.000  H
  C410     1.0000 0.84480  0.32871  0.79440  Biso   1.000  C
  H469     1.0000 0.82255  0.23427  0.77709  Biso   1.000  H
  H470     1.0000 0.80055  0.29301  0.74599  Biso   1.000  H
  H471     1.0000 0.60391  0.11238  0.14299  Biso   1.000  H
  H472     1.0000 0.64559  0.14728  0.14828  Biso   1.000  H
  C411     1.0000 0.60369  0.20169  0.18201  Biso   1.000  C
  C412     1.0000 0.62190  0.42058  0.12579  Biso   1.000  C
  H473     1.0000 0.65139  0.26500  0.18911  Biso   1.000  H
  H474     1.0000 0.61279  0.29999  0.20650  Biso   1.000  H
  H475     1.0000 0.72597  0.89858  0.73679  Biso   1.000  H
  H476     1.0000 0.74387  0.96239  0.76639  Biso   1.000  H
  C413     1.0000 0.75680  0.67069  0.88871  Biso   1.000  C
  H477     1.0000 0.73365  0.70141  0.81649  Biso   1.000  H
  H478     1.0000 0.50029  0.81279  0.20331  Biso   1.000  H
  H479     1.0000 0.53329  0.84920  0.17348  Biso   1.000  H
  C414     1.0000 0.63811  0.60768  0.12590  Biso   1.000  C
  H480     1.0000 0.62901  0.71207  0.12481  Biso   1.000  H
  C415     1.0000 0.78415  0.56167  0.90809  Biso   1.000  C
  H481     1.0000 0.80736  0.46468  0.91921  Biso   1.000  H
  H482     1.0000 0.85906  0.31201  0.82520  Biso   1.000  H
  H483     1.0000 0.86307  0.33072  0.76721  Biso   1.000  H
  H484     1.0000 0.60918  0.18082  0.21529  Biso   1.000  H
  H485     1.0000 0.57538  0.20757  0.17690  Biso   1.000  H
  C416     1.0000 0.64179  0.48590  0.12571  Biso   1.000  C
  H486     1.0000 0.59451  0.42007  0.12361  Biso   1.000  H
  C417     1.0000 0.76448  0.69010  0.93822  Biso   1.000  C
  C418     1.0000 0.76644  0.60648  0.87362  Biso   1.000  C
  C419     1.0000 0.62033  0.54357  0.12548  Biso   1.000  C
  C420     1.0000 0.67826  0.61090  0.12841  Biso   1.000  C
  C421     1.0000 0.79220  0.58179  0.95662  Biso   1.000  C
  C422     1.0000 0.68212  0.48982  0.12721  Biso   1.000  C
  C423     1.0000 0.78204  0.64610  0.97251  Biso   1.000  C
  H487     1.0000 0.75754  0.73390  0.94870  Biso   1.000  H
  H488     1.0000 0.76095  0.59290  0.83981  Biso   1.000  H
  H489     1.0000 0.59299  0.54060  0.12511  Biso   1.000  H
  H490     1.0000 0.69080  0.65339  0.12969  Biso   1.000  H
  C424     1.0000 0.70008  0.55257  0.12909  Biso   1.000  C
  H491     1.0000 0.80485  0.55167  0.97979  Biso   1.000  H
  H492     1.0000 0.69719  0.44989  0.12699  Biso   1.000  H
  C425     1.0000 0.79097  0.66757  0.02471  Biso   1.000  C
  C426     1.0000 0.74317  0.55609  0.13221  Biso   1.000  C
  N71      1.0000 0.81048  0.63177  0.05619  Biso   1.000  N
  H493     1.0000 0.78170  0.71001  0.03519  Biso   1.000  H
  N72      1.0000 0.76037  0.61171  0.13856  Biso   1.000  N
  H494     1.0000 0.75780  0.51602  0.12939  Biso   1.000  H
  C427     1.0000 0.81882  0.65807  0.10682  Biso   1.000  C
  C428     1.0000 0.80245  0.60959  0.14419  Biso   1.000  C
  C429     1.0000 0.86310  0.66420  0.11512  Biso   1.000  C
  H495     1.0000 0.80660  0.70337  0.11001  Biso   1.000  H
  H496     1.0000 0.81169  0.56288  0.13750  Biso   1.000  H
  C430     1.0000 0.81522  0.63031  0.19771  Biso   1.000  C
  C431     1.0000 0.87539  0.68321  0.16909  Biso   1.000  C
  H497     1.0000 0.87509  0.62081  0.10689  Biso   1.000  H
  H498     1.0000 0.87259  0.69870  0.09210  Biso   1.000  H
  H499     1.0000 0.80419  0.67491  0.20511  Biso   1.000  H
  H500     1.0000 0.80519  0.59748  0.22171  Biso   1.000  H
  C432     1.0000 0.85897  0.63348  0.20466  Biso   1.000  C
  H501     1.0000 0.90390  0.68331  0.17360  Biso   1.000  H
  H502     1.0000 0.86601  0.72897  0.17641  Biso   1.000  H
  H503     1.0000 0.86650  0.64660  0.23970  Biso   1.000  H
  H504     1.0000 0.86988  0.58837  0.19869  Biso   1.000  H
  C433     1.0000 0.77346  0.42319  0.23091  Biso   1.000  C
  C434     1.0000 0.75776  0.37758  0.18918  Biso   1.000  C
  C435     1.0000 0.81431  0.44778  0.22148  Biso   1.000  C
  H505     1.0000 0.77398  0.39860  0.26321  Biso   1.000  H
  H506     1.0000 0.75608  0.46241  0.23362  Biso   1.000  H
  C436     1.0000 0.78490  0.31860  0.18197  Biso   1.000  C
  H507     1.0000 0.75450  0.40348  0.15760  Biso   1.000  H
  H508     1.0000 0.73210  0.36039  0.19748  Biso   1.000  H
  C437     1.0000 0.84121  0.39010  0.21191  Biso   1.000  C
  H509     1.0000 0.81309  0.47840  0.19211  Biso   1.000  H
  H510     1.0000 0.82468  0.47358  0.25100  Biso   1.000  H
  N73      1.0000 0.76869  0.27722  0.14043  Biso   1.000  N
  C438     1.0000 0.82434  0.34621  0.16920  Biso   1.000  C
  H511     1.0000 0.78758  0.29120  0.21341  Biso   1.000  H
  H512     1.0000 0.84518  0.36280  0.24270  Biso   1.000  H
  H513     1.0000 0.86658  0.40801  0.20300  Biso   1.000  H
  C439     1.0000 0.76089  0.21758  0.15031  Biso   1.000  C
  N74      1.0000 0.85063  0.28949  0.16131  Biso   1.000  N
  H514     1.0000 0.82138  0.37361  0.13769  Biso   1.000  H
  C440     1.0000 0.74315  0.17071  0.11129  Biso   1.000  C
  H515     1.0000 0.76629  0.20139  0.18351  Biso   1.000  H
  C441     1.0000 0.86275  0.28320  0.11850  Biso   1.000  C
  C442     1.0000 0.73351  0.10650  0.12639  Biso   1.000  C
  C443     1.0000 0.73546  0.19007  0.06178  Biso   1.000  C
  C444     1.0000 0.88991  0.23201  0.10449  Biso   1.000  C
  H516     1.0000 0.85358  0.31397  0.09330  Biso   1.000  H
  C445     1.0000 0.71580  0.06170  0.09191  Biso   1.000  C
  H517     1.0000 0.73899  0.09287  0.16019  Biso   1.000  H
  C446     1.0000 0.71791  0.14608  0.02749  Biso   1.000  C
  H518     1.0000 0.74240  0.23387  0.05131  Biso   1.000  H
  C447     1.0000 0.90359  0.18238  0.13900  Biso   1.000  C
  C448     1.0000 0.90409  0.23211  0.05671  Biso   1.000  C
  C449     1.0000 0.70775  0.08181  0.04342  Biso   1.000  C
  C450     1.0000 0.70600  0.99160  0.10550  Biso   1.000  C
  C451     1.0000 0.70897  0.16760  0.97529  Biso   1.000  C
  C452     1.0000 0.93064  0.13642  0.12639  Biso   1.000  C
  H519     1.0000 0.89380  0.18092  0.17149  Biso   1.000  H
  H520     1.0000 0.89511  0.26500  0.03301  Biso   1.000  H
  C453     1.0000 0.93130  0.18489  0.04312  Biso   1.000  C
  H521     1.0000 0.69510  0.05169  0.02021  Biso   1.000  H
  N75      1.0000 0.71451  0.96540  0.14828  Biso   1.000  N
  H522     1.0000 0.69258  0.96470  0.08079  Biso   1.000  H
  N76      1.0000 0.68947  0.13179  0.94385  Biso   1.000  N
  H523     1.0000 0.71825  0.20999  0.96481  Biso   1.000  H
  C454     1.0000 0.94392  0.13642  0.07850  Biso   1.000  C
  C455     1.0000 0.94571  0.08739  0.16500  Biso   1.000  C
  C456     1.0000 0.94883  0.18882  0.99467  Biso   1.000  C
  C457     1.0000 0.70086  0.89757  0.15628  Biso   1.000  C
  C458     1.0000 0.68112  0.15809  0.89318  Biso   1.000  C
  H524     1.0000 0.96188  0.10298  0.06948  Biso   1.000  H
  N77      1.0000 0.97506  0.05008  0.16004  Biso   1.000  N
  H525     1.0000 0.93259  0.08382  0.19519  Biso   1.000  H
  N78      1.0000 0.94490  0.24041  0.96605  Biso   1.000  N
  H526     1.0000 0.96363  0.15181  0.98400  Biso   1.000  H
  H527     1.0000 0.68890  0.87937  0.12409  Biso   1.000  H
  C459     1.0000 0.67082  0.89848  0.19621  Biso   1.000  C
  C460     1.0000 0.73465  0.85277  0.17450  Biso   1.000  C
  C461     1.0000 0.69750  0.10962  0.85581  Biso   1.000  C
  C462     1.0000 0.63685  0.16418  0.88492  Biso   1.000  C
  H528     1.0000 0.69335  0.20340  0.88999  Biso   1.000  H
  C463     1.0000 0.98805  0.00769  0.20289  Biso   1.000  C
  C464     1.0000 0.96687  0.24242  0.92045  Biso   1.000  C
  H529     1.0000 0.68278  0.91678  0.22791  Biso   1.000  H
  H530     1.0000 0.64919  0.92850  0.18501  Biso   1.000  H
  C465     1.0000 0.65515  0.82868  0.20560  Biso   1.000  C
  N79      1.0000 0.76324  0.84940  0.13581  Biso   1.000  N
  C466     1.0000 0.71986  0.78081  0.18239  Biso   1.000  C
  H531     1.0000 0.74689  0.87077  0.20661  Biso   1.000  H
  N80      1.0000 0.73958  0.11168  0.86145  Biso   1.000  N
  H532     1.0000 0.68826  0.06291  0.86250  Biso   1.000  H
  C467     1.0000 0.68473  0.13029  0.80229  Biso   1.000  C
  C468     1.0000 0.62455  0.18318  0.83091  Biso   1.000  C
  H533     1.0000 0.62485  0.12078  0.89311  Biso   1.000  H
  H534     1.0000 0.62736  0.19867  0.90791  Biso   1.000  H
  C469     1.0000 0.98575  0.93448  0.18569  Biso   1.000  C
  H535     1.0000 0.97020  0.01428  0.23061  Biso   1.000  H
  C470     1.0000 0.02845  0.02781  0.22148  Biso   1.000  C
  C471     1.0000 0.93935  0.23810  0.87399  Biso   1.000  C
  H536     1.0000 0.98525  0.20360  0.92071  Biso   1.000  H
  C472     1.0000 0.98967  0.30809  0.92090  Biso   1.000  C
  H537     1.0000 0.64089  0.81199  0.17480  Biso   1.000  H
  H538     1.0000 0.63688  0.83069  0.23279  Biso   1.000  H
  C473     1.0000 0.68793  0.78041  0.22051  Biso   1.000  C
  C474     1.0000 0.79756  0.86418  0.14971  Biso   1.000  C
  H539     1.0000 0.74158  0.75180  0.19489  Biso   1.000  H
  H540     1.0000 0.70948  0.76231  0.14990  Biso   1.000  H
  C475     1.0000 0.75678  0.05612  0.86779  Biso   1.000  C
  H541     1.0000 0.69576  0.17489  0.79489  Biso   1.000  H
  H542     1.0000 0.69476  0.09750  0.77829  Biso   1.000  H
  C476     1.0000 0.64098  0.13350  0.79534  Biso   1.000  C
  H543     1.0000 0.59605  0.18329  0.82640  Biso   1.000  H
  H544     1.0000 0.63394  0.22899  0.82359  Biso   1.000  H
  N81      1.0000 0.94560  0.91648  0.17149  Biso   1.000  N
  H545     1.0000 0.00199  0.92809  0.15628  Biso   1.000  H
  C477     1.0000 0.00069  0.88857  0.22918  Biso   1.000  C
  C478     1.0000 0.04278  0.97918  0.26411  Biso   1.000  C
  H546     1.0000 0.02839  0.07462  0.23429  Biso   1.000  H
  H547     1.0000 0.04600  0.02559  0.19362  Biso   1.000  H
  N82      1.0000 0.92057  0.17051  0.87380  Biso   1.000  N
  C479     1.0000 0.96154  0.24508  0.82682  Biso   1.000  C
  H548     1.0000 0.91935  0.27420  0.87489  Biso   1.000  H
  H549     1.0000 0.97174  0.34661  0.92361  Biso   1.000  H
  H550     1.0000 0.00825  0.30900  0.95038  Biso   1.000  H
  C480     1.0000 0.01158  0.31508  0.87271  Biso   1.000  C
  H551     1.0000 0.67740  0.73430  0.22291  Biso   1.000  H
  H552     1.0000 0.69940  0.79298  0.25401  Biso   1.000  H
  C481     1.0000 0.83063  0.86001  0.11688  Biso   1.000  C
  H553     1.0000 0.80258  0.87897  0.18329  Biso   1.000  H
  C482     1.0000 0.79987  0.05260  0.87091  Biso   1.000  C
  H554     1.0000 0.74215  0.01599  0.87061  Biso   1.000  H
  H555     1.0000 0.63345  0.14658  0.76030  Biso   1.000  H
  H556     1.0000 0.63006  0.08840  0.80131  Biso   1.000  H
  C483     1.0000 0.93873  0.89008  0.12931  Biso   1.000  C
  H557     1.0000 0.98347  0.89239  0.25731  Biso   1.000  H
  H558     1.0000 0.00030  0.84120  0.21769  Biso   1.000  H
  C484     1.0000 0.04110  0.90758  0.24710  Biso   1.000  C
  H559     1.0000 0.06960  0.99080  0.27531  Biso   1.000  H
  H560     1.0000 0.02650  0.98476  0.29318  Biso   1.000  H
  C485     1.0000 0.88420  0.17041  0.87452  Biso   1.000  C
  C486     1.0000 0.98464  0.31050  0.82719  Biso   1.000  C
  H561     1.0000 0.94325  0.24418  0.79692  Biso   1.000  H
  H562     1.0000 0.97945  0.20652  0.82441  Biso   1.000  H
  H563     1.0000 0.02514  0.35888  0.87290  Biso   1.000  H
  H564     1.0000 0.03116  0.27898  0.87159  Biso   1.000  H
  C487     1.0000 0.82631  0.83778  0.06802  Biso   1.000  C
  C488     1.0000 0.86757  0.87660  0.13799  Biso   1.000  C
  C489     1.0000 0.81782  0.98979  0.87279  Biso   1.000  C
  C490     1.0000 0.82169  0.11088  0.87159  Biso   1.000  C
  C491     1.0000 0.89935  0.87037  0.10918  Biso   1.000  C
  H565     1.0000 0.95978  0.88218  0.10888  Biso   1.000  H
  H566     1.0000 0.05000  0.87791  0.27531  Biso   1.000  H
  H567     1.0000 0.05869  0.90129  0.21949  Biso   1.000  H
  C492     1.0000 0.86184  0.10771  0.87410  Biso   1.000  C
  H568     1.0000 0.87094  0.21210  0.87519  Biso   1.000  H
  H569     1.0000 0.99966  0.31282  0.79669  Biso   1.000  H
  H570     1.0000 0.96666  0.34917  0.82652  Biso   1.000  H
  C493     1.0000 0.85818  0.83089  0.03940  Biso   1.000  C
  H571     1.0000 0.80129  0.82707  0.05371  Biso   1.000  H
  H572     1.0000 0.87069  0.89199  0.17179  Biso   1.000  H
  C494     1.0000 0.85816  0.98587  0.87429  Biso   1.000  C
  H573     1.0000 0.80276  0.94987  0.87301  Biso   1.000  H
  H574     1.0000 0.80915  0.15342  0.87031  Biso   1.000  H
  C495     1.0000 0.89504  0.84668  0.05991  Biso   1.000  C
  C496     1.0000 0.87962  0.04360  0.87452  Biso   1.000  C
  C497     1.0000 0.85265  0.80258  0.98719  Biso   1.000  C
  C498     1.0000 0.87805  0.92060  0.87422  Biso   1.000  C
  H575     1.0000 0.91689  0.84150  0.04049  Biso   1.000  H
  H576     1.0000 0.90696  0.04058  0.87489  Biso   1.000  H
  N83      1.0000 0.87995  0.78669  0.96131  Biso   1.000  N
  H577     1.0000 0.82704  0.79660  0.97330  Biso   1.000  H
  N84      1.0000 0.86019  0.86479  0.87136  Biso   1.000  N
  H578     1.0000 0.90544  0.92010  0.87639  Biso   1.000  H
  C499     1.0000 0.86985  0.75647  0.91200  Biso   1.000  C
  C500     1.0000 0.88282  0.80319  0.87140  Biso   1.000  C
  H579     1.0000 0.84116  0.75079  0.90802  Biso   1.000  H
  C501     1.0000 0.88924  0.68678  0.91001  Biso   1.000  C
  C502     1.0000 0.87654  0.77030  0.81919  Biso   1.000  C
  H580     1.0000 0.91076  0.81420  0.87801  Biso   1.000  H
  H581     1.0000 0.91736  0.69151  0.91801  Biso   1.000  H
  H582     1.0000 0.87856  0.65691  0.93540  Biso   1.000  H
  C503     1.0000 0.88235  0.65601  0.85822  Biso   1.000  C
  C504     1.0000 0.89626  0.70166  0.81799  Biso   1.000  C
  H583     1.0000 0.84855  0.76497  0.81089  Biso   1.000  H
  H584     1.0000 0.88715  0.79997  0.79350  Biso   1.000  H
  H585     1.0000 0.89604  0.61241  0.85701  Biso   1.000  H
  H586     1.0000 0.85436  0.64731  0.85172  Biso   1.000  H
  H587     1.0000 0.89077  0.68080  0.78471  Biso   1.000  H
  H588     1.0000 0.92456  0.70760  0.82310  Biso   1.000  H
  C505     1.0000 0.22649  0.42319  0.76909  Biso   1.000  C
  C506     1.0000 0.18564  0.44778  0.77852  Biso   1.000  C
  H589     1.0000 0.22597  0.39860  0.73679  Biso   1.000  H
  H590     1.0000 0.24387  0.46241  0.76639  Biso   1.000  H
  C507     1.0000 0.24219  0.37758  0.81082  Biso   1.000  C
  C508     1.0000 0.15874  0.39010  0.78809  Biso   1.000  C
  H591     1.0000 0.18686  0.47840  0.80789  Biso   1.000  H
  H592     1.0000 0.17527  0.47358  0.74900  Biso   1.000  H
  H593     1.0000 0.24545  0.40348  0.84240  Biso   1.000  H
  H594     1.0000 0.26785  0.36039  0.80252  Biso   1.000  H
  C509     1.0000 0.21504  0.31860  0.81803  Biso   1.000  C
  C510     1.0000 0.17560  0.34621  0.83080  Biso   1.000  C
  H595     1.0000 0.15477  0.36280  0.75730  Biso   1.000  H
  H596     1.0000 0.13336  0.40801  0.79700  Biso   1.000  H
  N85      1.0000 0.23125  0.27722  0.85957  Biso   1.000  N
  H597     1.0000 0.21237  0.29120  0.78659  Biso   1.000  H
  N86      1.0000 0.14932  0.28949  0.83869  Biso   1.000  N
  H598     1.0000 0.17857  0.37361  0.86231  Biso   1.000  H
  C511     1.0000 0.23906  0.21758  0.84969  Biso   1.000  C
  C512     1.0000 0.13720  0.28320  0.88150  Biso   1.000  C
  C513     1.0000 0.25680  0.17071  0.88871  Biso   1.000  C
  H599     1.0000 0.23365  0.20139  0.81649  Biso   1.000  H
  C514     1.0000 0.11003  0.23201  0.89551  Biso   1.000  C
  H600     1.0000 0.14636  0.31397  0.90671  Biso   1.000  H
  C515     1.0000 0.26448  0.19007  0.93822  Biso   1.000  C
  C516     1.0000 0.26644  0.10650  0.87362  Biso   1.000  C
  C517     1.0000 0.09636  0.18238  0.86100  Biso   1.000  C
  C518     1.0000 0.09585  0.23211  0.94329  Biso   1.000  C
  C519     1.0000 0.28204  0.14608  0.97251  Biso   1.000  C
  H601     1.0000 0.25754  0.23387  0.94870  Biso   1.000  H
  H602     1.0000 0.26095  0.09287  0.83981  Biso   1.000  H
  C520     1.0000 0.28415  0.06170  0.90809  Biso   1.000  C
  C521     1.0000 0.06931  0.13642  0.87362  Biso   1.000  C
  H603     1.0000 0.10615  0.18092  0.82851  Biso   1.000  H
  H604     1.0000 0.10484  0.26500  0.96699  Biso   1.000  H
  C522     1.0000 0.06865  0.18489  0.95692  Biso   1.000  C
  C523     1.0000 0.29220  0.08181  0.95662  Biso   1.000  C
  C524     1.0000 0.29097  0.16760  0.02471  Biso   1.000  C
  C525     1.0000 0.29395  0.99160  0.89450  Biso   1.000  C
  C526     1.0000 0.05602  0.13642  0.92150  Biso   1.000  C
  C527     1.0000 0.05424  0.08739  0.83501  Biso   1.000  C
  C528     1.0000 0.05112  0.18882  0.00533  Biso   1.000  C
  H605     1.0000 0.30485  0.05169  0.97979  Biso   1.000  H
  N87      1.0000 0.31048  0.13179  0.05619  Biso   1.000  N
  H606     1.0000 0.28170  0.20999  0.03519  Biso   1.000  H
  N88      1.0000 0.28544  0.96540  0.85172  Biso   1.000  N
  H607     1.0000 0.30736  0.96470  0.91921  Biso   1.000  H
  H608     1.0000 0.03806  0.10298  0.93052  Biso   1.000  H
  N89      1.0000 0.02488  0.05008  0.83996  Biso   1.000  N
  H609     1.0000 0.06736  0.08382  0.80481  Biso   1.000  H
  N90      1.0000 0.05505  0.24041  0.03395  Biso   1.000  N
  H610     1.0000 0.03632  0.15181  0.01600  Biso   1.000  H
  C529     1.0000 0.31882  0.15809  0.10682  Biso   1.000  C
  C530     1.0000 0.29909  0.89757  0.84372  Biso   1.000  C
  C531     1.0000 0.01190  0.00769  0.79711  Biso   1.000  C
  C532     1.0000 0.03308  0.24242  0.07959  Biso   1.000  C
  C533     1.0000 0.30245  0.10962  0.14419  Biso   1.000  C
  C534     1.0000 0.36310  0.16418  0.11512  Biso   1.000  C
  H611     1.0000 0.30660  0.20340  0.11001  Biso   1.000  H
  H612     1.0000 0.31105  0.87937  0.87591  Biso   1.000  H
  C535     1.0000 0.32913  0.89848  0.80379  Biso   1.000  C
  C536     1.0000 0.26530  0.85277  0.82550  Biso   1.000  C
  H613     1.0000 0.02975  0.01428  0.76939  Biso   1.000  H
  C537     1.0000 0.97149  0.02781  0.77852  Biso   1.000  C
  C538     1.0000 0.01420  0.93448  0.81431  Biso   1.000  C
  H614     1.0000 0.01470  0.20360  0.07929  Biso   1.000  H
  C539     1.0000 0.01028  0.30809  0.07910  Biso   1.000  C
  C540     1.0000 0.06060  0.23810  0.12601  Biso   1.000  C
  N91      1.0000 0.26037  0.11168  0.13856  Biso   1.000  N
  H615     1.0000 0.31169  0.06291  0.13750  Biso   1.000  H
  C541     1.0000 0.31522  0.13029  0.19771  Biso   1.000  C
  C542     1.0000 0.37539  0.18318  0.16909  Biso   1.000  C
  H616     1.0000 0.37509  0.12078  0.10689  Biso   1.000  H
  H617     1.0000 0.37259  0.19867  0.09210  Biso   1.000  H
  H618     1.0000 0.31717  0.91678  0.77209  Biso   1.000  H
  H619     1.0000 0.35076  0.92850  0.81499  Biso   1.000  H
  C543     1.0000 0.34480  0.82868  0.79440  Biso   1.000  C
  N92      1.0000 0.23671  0.84940  0.86419  Biso   1.000  N
  C544     1.0000 0.28008  0.78081  0.81762  Biso   1.000  C
  H620     1.0000 0.25306  0.87077  0.79339  Biso   1.000  H
  C545     1.0000 0.95717  0.97918  0.73589  Biso   1.000  C
  H621     1.0000 0.97156  0.07462  0.76571  Biso   1.000  H
  H622     1.0000 0.95394  0.02559  0.80639  Biso   1.000  H
  H623     1.0000 0.99796  0.92809  0.84372  Biso   1.000  H
  C546     1.0000 0.99925  0.88857  0.77082  Biso   1.000  C
  N93      1.0000 0.05435  0.91648  0.82851  Biso   1.000  N
  H624     1.0000 0.99170  0.30900  0.04962  Biso   1.000  H
  C547     1.0000 0.98837  0.31508  0.12729  Biso   1.000  C
  H625     1.0000 0.02821  0.34661  0.07640  Biso   1.000  H
  N94      1.0000 0.07937  0.17051  0.12620  Biso   1.000  N
  C548     1.0000 0.03841  0.24508  0.17318  Biso   1.000  C
  H626     1.0000 0.08059  0.27420  0.12511  Biso   1.000  H
  C549     1.0000 0.24317  0.05612  0.13221  Biso   1.000  C
  H627     1.0000 0.30419  0.17489  0.20511  Biso   1.000  H
  H628     1.0000 0.30519  0.09750  0.22171  Biso   1.000  H
  C550     1.0000 0.35897  0.13350  0.20466  Biso   1.000  C
  H629     1.0000 0.40390  0.18329  0.17360  Biso   1.000  H
  H630     1.0000 0.36601  0.22899  0.17641  Biso   1.000  H
  H631     1.0000 0.35906  0.81199  0.82520  Biso   1.000  H
  H632     1.0000 0.36307  0.83069  0.76721  Biso   1.000  H
  C551     1.0000 0.31202  0.78041  0.77949  Biso   1.000  C
  C552     1.0000 0.20239  0.86418  0.85029  Biso   1.000  C
  H633     1.0000 0.25837  0.75180  0.80511  Biso   1.000  H
  H634     1.0000 0.29044  0.76231  0.85010  Biso   1.000  H
  C553     1.0000 0.95885  0.90758  0.75290  Biso   1.000  C
  H635     1.0000 0.93035  0.99080  0.72470  Biso   1.000  H
  H636     1.0000 0.97345  0.98476  0.70682  Biso   1.000  H
  H637     1.0000 0.99965  0.84120  0.78231  Biso   1.000  H
  H638     1.0000 0.01645  0.89239  0.74269  Biso   1.000  H
  C554     1.0000 0.06122  0.89008  0.87069  Biso   1.000  C
  H639     1.0000 0.97481  0.35888  0.12710  Biso   1.000  H
  H640     1.0000 0.96879  0.27898  0.12841  Biso   1.000  H
  C555     1.0000 0.01530  0.31050  0.17281  Biso   1.000  C
  C556     1.0000 0.11575  0.17041  0.12548  Biso   1.000  C
  H641     1.0000 0.05669  0.24418  0.20312  Biso   1.000  H
  H642     1.0000 0.02050  0.20652  0.17559  Biso   1.000  H
  C557     1.0000 0.20008  0.05260  0.12909  Biso   1.000  C
  H643     1.0000 0.25780  0.01599  0.12939  Biso   1.000  H
  H644     1.0000 0.36650  0.14658  0.23970  Biso   1.000  H
  H645     1.0000 0.36988  0.08840  0.19869  Biso   1.000  H
  H646     1.0000 0.32255  0.73430  0.77709  Biso   1.000  H
  H647     1.0000 0.30055  0.79298  0.74599  Biso   1.000  H
  C558     1.0000 0.16932  0.86001  0.88312  Biso   1.000  C
  H648     1.0000 0.19734  0.87897  0.81671  Biso   1.000  H
  H649     1.0000 0.94995  0.87791  0.72470  Biso   1.000  H
  H650     1.0000 0.94126  0.90129  0.78051  Biso   1.000  H
  C559     1.0000 0.10060  0.87037  0.89082  Biso   1.000  C
  H651     1.0000 0.04014  0.88218  0.89112  Biso   1.000  H
  H652     1.0000 0.00029  0.31282  0.20331  Biso   1.000  H
  H653     1.0000 0.03329  0.34917  0.17348  Biso   1.000  H
  C560     1.0000 0.13811  0.10771  0.12590  Biso   1.000  C
  H654     1.0000 0.12901  0.21210  0.12481  Biso   1.000  H
  C561     1.0000 0.18212  0.98979  0.12721  Biso   1.000  C
  C562     1.0000 0.17826  0.11088  0.12841  Biso   1.000  C
  C563     1.0000 0.17364  0.83778  0.93202  Biso   1.000  C
  C564     1.0000 0.13238  0.87660  0.86201  Biso   1.000  C
  C565     1.0000 0.10491  0.84668  0.94009  Biso   1.000  C
  C566     1.0000 0.12033  0.04360  0.12548  Biso   1.000  C
  C567     1.0000 0.14179  0.98587  0.12571  Biso   1.000  C
  H655     1.0000 0.19719  0.94987  0.12699  Biso   1.000  H
  H656     1.0000 0.19080  0.15342  0.12969  Biso   1.000  H
  C568     1.0000 0.14177  0.83089  0.96060  Biso   1.000  C
  H657     1.0000 0.19866  0.82707  0.94629  Biso   1.000  H
  H658     1.0000 0.12925  0.89199  0.82821  Biso   1.000  H
  H659     1.0000 0.08306  0.84150  0.95951  Biso   1.000  H
  H660     1.0000 0.09299  0.04058  0.12511  Biso   1.000  H
  C569     1.0000 0.12190  0.92060  0.12579  Biso   1.000  C
  C570     1.0000 0.14730  0.80258  0.01281  Biso   1.000  C
  N95      1.0000 0.13976  0.86479  0.12864  Biso   1.000  N
  H661     1.0000 0.09451  0.92010  0.12361  Biso   1.000  H
  N96      1.0000 0.12000  0.78669  0.03869  Biso   1.000  N
  H662     1.0000 0.17291  0.79660  0.02671  Biso   1.000  H
  C571     1.0000 0.11713  0.80319  0.12860  Biso   1.000  C
  C572     1.0000 0.13010  0.75647  0.08800  Biso   1.000  C
  C573     1.0000 0.12341  0.77030  0.18081  Biso   1.000  C
  H663     1.0000 0.08919  0.81420  0.12199  Biso   1.000  H
  H664     1.0000 0.15879  0.75079  0.09202  Biso   1.000  H
  C574     1.0000 0.11071  0.68678  0.08999  Biso   1.000  C
  C575     1.0000 0.10369  0.70166  0.18201  Biso   1.000  C
  H665     1.0000 0.15139  0.76497  0.18911  Biso   1.000  H
  H666     1.0000 0.11279  0.79997  0.20650  Biso   1.000  H
  H667     1.0000 0.08259  0.69151  0.08199  Biso   1.000  H
  H668     1.0000 0.12139  0.65691  0.06460  Biso   1.000  H
  C576     1.0000 0.11760  0.65601  0.14179  Biso   1.000  C
  H669     1.0000 0.10918  0.68080  0.21529  Biso   1.000  H
  H670     1.0000 0.07538  0.70760  0.17690  Biso   1.000  H
  H671     1.0000 0.10391  0.61241  0.14299  Biso   1.000  H
  H672     1.0000 0.14559  0.64731  0.14828  Biso   1.000  H
  Ne1      1.0000 0.16426  0.49244  0.50064  Biso   1.000  Ne
  He1      1.0000 0.09958  0.42436  0.53060  Biso   1.000  He
  He2      1.0000 0.17050  0.61845  0.53441  Biso   1.000  He
  He3      1.0000 0.23105  0.41648  0.52790  Biso   1.000  He
  He4      1.0000 0.16209  0.49162  0.38796  Biso   1.000  He
  Ar1      1.0000 0.16650  0.49070  0.49275  Biso   1.000  Ar
  Ne2      1.0000 0.33734  0.55441  0.03276  Biso   1.000  Ne
  He5      1.0000 0.33269  0.54841  0.13716  Biso   1.000  He
  He6      1.0000 0.39827  0.50829  0.00401  Biso   1.000  He
  He7      1.0000 0.27847  0.46949  0.99450  Biso   1.000  He
  He8      1.0000 0.31814  0.68012  0.99228  Biso   1.000  He
  Ar2      1.0000 0.33125  0.55159  0.03137  Biso   1.000  Ar
  Ne3      1.0000 0.33569  0.99244  0.49937  Biso   1.000  Ne
  He9      1.0000 0.33740  0.99069  0.59984  Biso   1.000  He
  He10     1.0000 0.26735  0.91456  0.47117  Biso   1.000  He
  He11     1.0000 0.32880  0.13106  0.46190  Biso   1.000  He
  He12     1.0000 0.40470  0.92062  0.46706  Biso   1.000  He
  Ar3      1.0000 0.33338  0.98888  0.50784  Biso   1.000  Ar
  Ne4      1.0000 0.66426  0.99244  0.50064  Biso   1.000  Ne
  He13     1.0000 0.59958  0.92434  0.53060  Biso   1.000  He
  He14     1.0000 0.67050  0.11847  0.53441  Biso   1.000  He
  He15     1.0000 0.73105  0.91646  0.52790  Biso   1.000  He
  He16     1.0000 0.66210  0.99163  0.38796  Biso   1.000  He
  Ar4      1.0000 0.66651  0.99069  0.49274  Biso   1.000  Ar
  Ne5      1.0000 0.16260  0.05441  0.96724  Biso   1.000  Ne
  He17     1.0000 0.18212  0.18323  0.00867  Biso   1.000  He
  He18     1.0000 0.22154  0.96940  0.00554  Biso   1.000  He
  He19     1.0000 0.08662  0.00117  0.00120  Biso   1.000  He
  He20     1.0000 0.16728  0.04846  0.85905  Biso   1.000  He
  Ar5      1.0000 0.16870  0.05158  0.96864  Biso   1.000  Ar
  Ne6      1.0000 0.83569  0.49244  0.49937  Biso   1.000  Ne
  He21     1.0000 0.83741  0.49068  0.59984  Biso   1.000  He
  He22     1.0000 0.76735  0.41459  0.47117  Biso   1.000  He
  He23     1.0000 0.90471  0.42064  0.46707  Biso   1.000  He
  He24     1.0000 0.82880  0.63104  0.46190  Biso   1.000  He
  Ar6      1.0000 0.83326  0.49280  0.50678  Biso   1.000  Ar
  Ne7      1.0000 0.66260  0.55441  0.96724  Biso   1.000  Ne
  He25     1.0000 0.68213  0.68325  0.00867  Biso   1.000  He
  He26     1.0000 0.72153  0.46942  0.00555  Biso   1.000  He
  He27     1.0000 0.58663  0.50118  0.00120  Biso   1.000  He
  He28     1.0000 0.66726  0.54845  0.85906  Biso   1.000  He
  Ar7      1.0000 0.66851  0.55134  0.96838  Biso   1.000  Ar
  Ne8      1.0000 0.83734  0.05441  0.03276  Biso   1.000  Ne
  He29     1.0000 0.83267  0.04844  0.13896  Biso   1.000  He
  He30     1.0000 0.89827  0.00828  0.00402  Biso   1.000  He
  He31     1.0000 0.77847  0.96950  0.99451  Biso   1.000  He
  He32     1.0000 0.81814  0.18010  0.99229  Biso   1.000  He
  Ar8      1.0000 0.83177  0.05098  0.03137  Biso   1.000  Ar
