data_image0
_cell_length_a       34.796
_cell_length_b       19.898
_cell_length_c       26.764
_cell_angle_alpha    90
_cell_angle_beta     93.45
_cell_angle_gamma    90

_symmetry_space_group_name_H-M    "P 1"
_symmetry_int_tables_number       1

loop_
  _symmetry_equiv_pos_as_xyz
  'x, y, z'

loop_
  _atom_site_label
  _atom_site_occupancy
  _atom_site_fract_x
  _atom_site_fract_y
  _atom_site_fract_z
  _atom_site_thermal_displace_type
  _atom_site_B_iso_or_equiv
  _atom_site_type_symbol
  N1       1.0000 0.55377  0.59021  0.53651  Biso   1.000  N
  C1       1.0000 0.55079  0.54031  0.50989  Biso   1.000  C
  C2       1.0000 0.53107  0.59453  0.58127  Biso   1.000  C
  C3       1.0000 0.56879  0.53533  0.46168  Biso   1.000  C
  H1       1.0000 0.53630  0.50322  0.52090  Biso   1.000  H
  C4       1.0000 0.55898  0.59162  0.62859  Biso   1.000  C
  C5       1.0000 0.50779  0.65801  0.58109  Biso   1.000  C
  H2       1.0000 0.51318  0.55513  0.58157  Biso   1.000  H
  C6       1.0000 0.55639  0.48573  0.42548  Biso   1.000  C
  C7       1.0000 0.59490  0.58423  0.44839  Biso   1.000  C
  N2       1.0000 0.57877  0.52493  0.62948  Biso   1.000  N
  H3       1.0000 0.57859  0.62810  0.62690  Biso   1.000  H
  C8       1.0000 0.53707  0.60041  0.67549  Biso   1.000  C
  C9       1.0000 0.48637  0.66901  0.62578  Biso   1.000  C
  H4       1.0000 0.52539  0.69660  0.57719  Biso   1.000  H
  H5       1.0000 0.48929  0.65740  0.55148  Biso   1.000  H
  C10      1.0000 0.57059  0.48643  0.37948  Biso   1.000  C
  H6       1.0000 0.53830  0.45241  0.43379  Biso   1.000  H
  C11      1.0000 0.60939  0.58423  0.40070  Biso   1.000  C
  H7       1.0000 0.60298  0.61790  0.47197  Biso   1.000  H
  C12      1.0000 0.61367  0.52312  0.63038  Biso   1.000  C
  H8       1.0000 0.55537  0.60081  0.70517  Biso   1.000  H
  H9       1.0000 0.51918  0.56212  0.67878  Biso   1.000  H
  C13      1.0000 0.51399  0.66690  0.67298  Biso   1.000  C
  H10      1.0000 0.46647  0.63383  0.62799  Biso   1.000  H
  H11      1.0000 0.47339  0.71324  0.62350  Biso   1.000  H
  C14      1.0000 0.55509  0.43808  0.34149  Biso   1.000  C
  C15      1.0000 0.59698  0.53252  0.36608  Biso   1.000  C
  C16      1.0000 0.63470  0.63810  0.38689  Biso   1.000  C
  C17      1.0000 0.63728  0.46562  0.62937  Biso   1.000  C
  H12      1.0000 0.62648  0.56523  0.63199  Biso   1.000  H
  H13      1.0000 0.49898  0.67102  0.70308  Biso   1.000  H
  H14      1.0000 0.53199  0.70540  0.67261  Biso   1.000  H
  N3       1.0000 0.52799  0.39682  0.34819  Biso   1.000  N
  H15      1.0000 0.56610  0.43798  0.30978  Biso   1.000  H
  H16      1.0000 0.60728  0.53041  0.33400  Biso   1.000  H
  N4       1.0000 0.64740  0.64509  0.34400  Biso   1.000  N
  H17      1.0000 0.64238  0.67032  0.41178  Biso   1.000  H
  C18      1.0000 0.61908  0.39989  0.62679  Biso   1.000  C
  C19      1.0000 0.67648  0.46733  0.63570  Biso   1.000  C
  C20      1.0000 0.51469  0.35451  0.30488  Biso   1.000  C
  C21      1.0000 0.67188  0.70012  0.33580  Biso   1.000  C
  C22      1.0000 0.64158  0.34109  0.62978  Biso   1.000  C
  H18      1.0000 0.59178  0.39672  0.62308  Biso   1.000  H
  C23      1.0000 0.69938  0.41120  0.63559  Biso   1.000  C
  H19      1.0000 0.68859  0.50980  0.64030  Biso   1.000  H
  C24      1.0000 0.51700  0.28169  0.32558  Biso   1.000  C
  C25      1.0000 0.47100  0.37119  0.29361  Biso   1.000  C
  H20      1.0000 0.53038  0.36109  0.27520  Biso   1.000  H
  C26      1.0000 0.71199  0.67590  0.32180  Biso   1.000  C
  C27      1.0000 0.65549  0.74560  0.29219  Biso   1.000  C
  H21      1.0000 0.67489  0.72751  0.36720  Biso   1.000  H
  C28      1.0000 0.62289  0.27319  0.62788  Biso   1.000  C
  C29      1.0000 0.68260  0.34813  0.63368  Biso   1.000  C
  C30      1.0000 0.74099  0.41562  0.63851  Biso   1.000  C
  C31      1.0000 0.50150  0.23600  0.28141  Biso   1.000  C
  N5       1.0000 0.55708  0.26500  0.33348  Biso   1.000  N
  H22      1.0000 0.50250  0.27581  0.35638  Biso   1.000  H
  C32      1.0000 0.45748  0.32943  0.24750  Biso   1.000  C
  H23      1.0000 0.45599  0.35928  0.32258  Biso   1.000  H
  H24      1.0000 0.46749  0.41979  0.28661  Biso   1.000  H
  N6       1.0000 0.72810  0.63423  0.36451  Biso   1.000  N
  H25      1.0000 0.70899  0.64710  0.29110  Biso   1.000  H
  C33      1.0000 0.73830  0.73183  0.31218  Biso   1.000  C
  C34      1.0000 0.68138  0.80259  0.28081  Biso   1.000  C
  H26      1.0000 0.65098  0.71781  0.26180  Biso   1.000  H
  H27      1.0000 0.63030  0.76390  0.30110  Biso   1.000  H
  N7       1.0000 0.64377  0.22148  0.63248  Biso   1.000  N
  H28      1.0000 0.59569  0.26912  0.62320  Biso   1.000  H
  H29      1.0000 0.69838  0.30923  0.63499  Biso   1.000  H
  N8       1.0000 0.75909  0.47221  0.64210  Biso   1.000  N
  H30      1.0000 0.75550  0.37521  0.63779  Biso   1.000  H
  C35      1.0000 0.45860  0.25420  0.26599  Biso   1.000  C
  H31      1.0000 0.50329  0.18831  0.29159  Biso   1.000  H
  H32      1.0000 0.51748  0.24239  0.25229  Biso   1.000  H
  C36      1.0000 0.56558  0.23932  0.37679  Biso   1.000  C
  H33      1.0000 0.47489  0.33601  0.21998  Biso   1.000  H
  H34      1.0000 0.43101  0.34230  0.23548  Biso   1.000  H
  C37      1.0000 0.73380  0.57342  0.35478  Biso   1.000  C
  H35      1.0000 0.76308  0.71324  0.30188  Biso   1.000  H
  H36      1.0000 0.74369  0.75731  0.34358  Biso   1.000  H
  C38      1.0000 0.72219  0.77993  0.27149  Biso   1.000  C
  H37      1.0000 0.68241  0.83461  0.30918  Biso   1.000  H
  H38      1.0000 0.67051  0.82662  0.25079  Biso   1.000  H
  C39      1.0000 0.62328  0.15660  0.63188  Biso   1.000  C
  C40      1.0000 0.80097  0.47080  0.64678  Biso   1.000  C
  H39      1.0000 0.44250  0.24872  0.29500  Biso   1.000  H
  H40      1.0000 0.44849  0.22399  0.23881  Biso   1.000  H
  C41      1.0000 0.60519  0.22701  0.39438  Biso   1.000  C
  H41      1.0000 0.54548  0.22811  0.39778  Biso   1.000  H
  C42      1.0000 0.75030  0.52603  0.39520  Biso   1.000  C
  H42      1.0000 0.72780  0.55679  0.32199  Biso   1.000  H
  H43      1.0000 0.73918  0.81983  0.27048  Biso   1.000  H
  H44      1.0000 0.72219  0.75731  0.23859  Biso   1.000  H
  C43      1.0000 0.64048  0.11142  0.59119  Biso   1.000  C
  C44      1.0000 0.62928  0.12770  0.68458  Biso   1.000  C
  H45      1.0000 0.59519  0.16389  0.62357  Biso   1.000  H
  C45      1.0000 0.81748  0.51880  0.60980  Biso   1.000  C
  H46      1.0000 0.80989  0.42431  0.63948  Biso   1.000  H
  C46      1.0000 0.81419  0.48879  0.70139  Biso   1.000  C
  C47      1.0000 0.61099  0.20198  0.44397  Biso   1.000  C
  C48      1.0000 0.63599  0.23359  0.36679  Biso   1.000  C
  C49      1.0000 0.76168  0.46130  0.37959  Biso   1.000  C
  C50      1.0000 0.75888  0.54563  0.44259  Biso   1.000  C
  N9       1.0000 0.63067  0.13800  0.54201  Biso   1.000  N
  H47      1.0000 0.66908  0.11132  0.59688  Biso   1.000  H
  C51      1.0000 0.62578  0.03779  0.59389  Biso   1.000  C
  C52      1.0000 0.61298  0.05649  0.68058  Biso   1.000  C
  H48      1.0000 0.61549  0.15479  0.70880  Biso   1.000  H
  H49      1.0000 0.65709  0.12680  0.69540  Biso   1.000  H
  N10      1.0000 0.80809  0.49100  0.56147  Biso   1.000  N
  C53      1.0000 0.86058  0.52749  0.61878  Biso   1.000  C
  H50      1.0000 0.80458  0.56362  0.61230  Biso   1.000  H
  H51      1.0000 0.80228  0.53201  0.71049  Biso   1.000  H
  H52      1.0000 0.80507  0.45371  0.72407  Biso   1.000  H
  C54      1.0000 0.85838  0.49472  0.70850  Biso   1.000  C
  H53      1.0000 0.58989  0.19479  0.46430  Biso   1.000  H
  C55      1.0000 0.64929  0.18791  0.46239  Biso   1.000  C
  C56      1.0000 0.67568  0.21982  0.38431  Biso   1.000  C
  H54      1.0000 0.63149  0.24832  0.33310  Biso   1.000  H
  C57      1.0000 0.77910  0.41733  0.41500  Biso   1.000  C
  H55      1.0000 0.75761  0.44798  0.34560  Biso   1.000  H
  C58      1.0000 0.77719  0.50291  0.47807  Biso   1.000  C
  H56      1.0000 0.75237  0.58991  0.45240  Biso   1.000  H
  C59      1.0000 0.65708  0.15911  0.51581  Biso   1.000  C
  H57      1.0000 0.63958  0.00940  0.57049  Biso   1.000  H
  H58      1.0000 0.59798  0.03618  0.58378  Biso   1.000  H
  C60      1.0000 0.63278  0.01050  0.64839  Biso   1.000  C
  H59      1.0000 0.61349  0.03699  0.71468  Biso   1.000  H
  H60      1.0000 0.58567  0.05950  0.66808  Biso   1.000  H
  C61      1.0000 0.78580  0.52633  0.53059  Biso   1.000  C
  C62      1.0000 0.87268  0.54679  0.67219  Biso   1.000  C
  H61      1.0000 0.87347  0.48492  0.61051  Biso   1.000  H
  H62      1.0000 0.86949  0.56262  0.59598  Biso   1.000  H
  H63      1.0000 0.86577  0.50839  0.74339  Biso   1.000  H
  H64      1.0000 0.87039  0.45060  0.70229  Biso   1.000  H
  C63      1.0000 0.67999  0.19751  0.43391  Biso   1.000  C
  C64      1.0000 0.70719  0.22419  0.35238  Biso   1.000  C
  C65      1.0000 0.79219  0.35089  0.40048  Biso   1.000  C
  C66      1.0000 0.78718  0.43753  0.46239  Biso   1.000  C
  H65      1.0000 0.68288  0.15730  0.52928  Biso   1.000  H
  H66      1.0000 0.66059  0.00920  0.65808  Biso   1.000  H
  H67      1.0000 0.62218  0.96452  0.65090  Biso   1.000  H
  H68      1.0000 0.77498  0.56709  0.54160  Biso   1.000  H
  H69      1.0000 0.86188  0.59142  0.67991  Biso   1.000  H
  H70      1.0000 0.90108  0.54980  0.67609  Biso   1.000  H
  H71      1.0000 0.70519  0.18871  0.44820  Biso   1.000  H
  N11      1.0000 0.74090  0.20691  0.36458  Biso   1.000  N
  H72      1.0000 0.70208  0.24148  0.31959  Biso   1.000  H
  N12      1.0000 0.78719  0.32822  0.35590  Biso   1.000  N
  H73      1.0000 0.80498  0.32340  0.42530  Biso   1.000  H
  H74      1.0000 0.79978  0.40753  0.48567  Biso   1.000  H
  C67      1.0000 0.77039  0.21389  0.32741  Biso   1.000  C
  C68      1.0000 0.80268  0.25922  0.34770  Biso   1.000  C
  H75      1.0000 0.75830  0.23409  0.29608  Biso   1.000  H
  C69      1.0000 0.78550  0.14162  0.31558  Biso   1.000  C
  C70      1.0000 0.83319  0.26380  0.31019  Biso   1.000  C
  H76      1.0000 0.81420  0.24073  0.38000  Biso   1.000  H
  H77      1.0000 0.79509  0.11941  0.34710  Biso   1.000  H
  H78      1.0000 0.76419  0.11418  0.30031  Biso   1.000  H
  C71      1.0000 0.81798  0.14579  0.27969  Biso   1.000  C
  C72      1.0000 0.85050  0.19193  0.30050  Biso   1.000  C
  H79      1.0000 0.85398  0.29430  0.32288  Biso   1.000  H
  H80      1.0000 0.82180  0.28239  0.27830  Biso   1.000  H
  H81      1.0000 0.80770  0.16318  0.24701  Biso   1.000  H
  H82      1.0000 0.82848  0.10021  0.27441  Biso   1.000  H
  H83      1.0000 0.87079  0.19520  0.27628  Biso   1.000  H
  H84      1.0000 0.86208  0.17318  0.33220  Biso   1.000  H
  N13      1.0000 0.44619  0.59021  0.46348  Biso   1.000  N
  C73      1.0000 0.46889  0.59453  0.41871  Biso   1.000  C
  C74      1.0000 0.44920  0.54031  0.49009  Biso   1.000  C
  C75      1.0000 0.44100  0.59162  0.37139  Biso   1.000  C
  C76      1.0000 0.49220  0.65801  0.41890  Biso   1.000  C
  H85      1.0000 0.48678  0.55513  0.41841  Biso   1.000  H
  C77      1.0000 0.43120  0.53533  0.53830  Biso   1.000  C
  H86      1.0000 0.46369  0.50322  0.47909  Biso   1.000  H
  N14      1.0000 0.42119  0.52493  0.37050  Biso   1.000  N
  H87      1.0000 0.42140  0.62810  0.37308  Biso   1.000  H
  C78      1.0000 0.46289  0.60041  0.32449  Biso   1.000  C
  C79      1.0000 0.51358  0.66901  0.37420  Biso   1.000  C
  H88      1.0000 0.47459  0.69660  0.42279  Biso   1.000  H
  H89      1.0000 0.51070  0.65740  0.44850  Biso   1.000  H
  C80      1.0000 0.40509  0.58423  0.55159  Biso   1.000  C
  C81      1.0000 0.44359  0.48573  0.57450  Biso   1.000  C
  C82      1.0000 0.38629  0.52312  0.36960  Biso   1.000  C
  H90      1.0000 0.44459  0.60081  0.29481  Biso   1.000  H
  H91      1.0000 0.48078  0.56212  0.32120  Biso   1.000  H
  C83      1.0000 0.48599  0.66690  0.32700  Biso   1.000  C
  H92      1.0000 0.53348  0.63383  0.37199  Biso   1.000  H
  H93      1.0000 0.52659  0.71324  0.37649  Biso   1.000  H
  C84      1.0000 0.39060  0.58423  0.59928  Biso   1.000  C
  H94      1.0000 0.39698  0.61790  0.52801  Biso   1.000  H
  H95      1.0000 0.46169  0.45241  0.56619  Biso   1.000  H
  C85      1.0000 0.42937  0.48643  0.62050  Biso   1.000  C
  C86      1.0000 0.36268  0.46562  0.37061  Biso   1.000  C
  H96      1.0000 0.37348  0.56523  0.36799  Biso   1.000  H
  H97      1.0000 0.50098  0.67102  0.29691  Biso   1.000  H
  H98      1.0000 0.46799  0.70540  0.32741  Biso   1.000  H
  C87      1.0000 0.40298  0.53252  0.63390  Biso   1.000  C
  C88      1.0000 0.36528  0.63810  0.61309  Biso   1.000  C
  C89      1.0000 0.44489  0.43808  0.65849  Biso   1.000  C
  C90      1.0000 0.32348  0.46733  0.36428  Biso   1.000  C
  C91      1.0000 0.38088  0.39989  0.37319  Biso   1.000  C
  H99      1.0000 0.39268  0.53041  0.66598  Biso   1.000  H
  N15      1.0000 0.35258  0.64509  0.65599  Biso   1.000  N
  H100     1.0000 0.35758  0.67032  0.58820  Biso   1.000  H
  N16      1.0000 0.47197  0.39682  0.65179  Biso   1.000  N
  H101     1.0000 0.43389  0.43798  0.69020  Biso   1.000  H
  C92      1.0000 0.30058  0.41120  0.36440  Biso   1.000  C
  H102     1.0000 0.31139  0.50980  0.35968  Biso   1.000  H
  C93      1.0000 0.35838  0.34109  0.37020  Biso   1.000  C
  H103     1.0000 0.40818  0.39672  0.37690  Biso   1.000  H
  C94      1.0000 0.32808  0.70012  0.66418  Biso   1.000  C
  C95      1.0000 0.48527  0.35451  0.69510  Biso   1.000  C
  C96      1.0000 0.31739  0.34813  0.36630  Biso   1.000  C
  C97      1.0000 0.25900  0.41562  0.36148  Biso   1.000  C
  C98      1.0000 0.37709  0.27319  0.37211  Biso   1.000  C
  C99      1.0000 0.28797  0.67590  0.67818  Biso   1.000  C
  C100     1.0000 0.34449  0.74560  0.70779  Biso   1.000  C
  H104     1.0000 0.32507  0.72751  0.63278  Biso   1.000  H
  C101     1.0000 0.48299  0.28169  0.67440  Biso   1.000  C
  C102     1.0000 0.52899  0.37119  0.70641  Biso   1.000  C
  H105     1.0000 0.46958  0.36109  0.72479  Biso   1.000  H
  H106     1.0000 0.30158  0.30923  0.36499  Biso   1.000  H
  N17      1.0000 0.24090  0.47221  0.35788  Biso   1.000  N
  H107     1.0000 0.24449  0.37521  0.36219  Biso   1.000  H
  N18      1.0000 0.35619  0.22148  0.36750  Biso   1.000  N
  H108     1.0000 0.40429  0.26912  0.37679  Biso   1.000  H
  N19      1.0000 0.27188  0.63423  0.63547  Biso   1.000  N
  H109     1.0000 0.29097  0.64710  0.70888  Biso   1.000  H
  C103     1.0000 0.26169  0.73183  0.68780  Biso   1.000  C
  C104     1.0000 0.31858  0.80259  0.71917  Biso   1.000  C
  H110     1.0000 0.34897  0.71781  0.73819  Biso   1.000  H
  H111     1.0000 0.36969  0.76390  0.69888  Biso   1.000  H
  N20      1.0000 0.44288  0.26500  0.66650  Biso   1.000  N
  H112     1.0000 0.49749  0.27581  0.64360  Biso   1.000  H
  C105     1.0000 0.49849  0.23600  0.71857  Biso   1.000  C
  C106     1.0000 0.54247  0.32943  0.75248  Biso   1.000  C
  H113     1.0000 0.54397  0.35928  0.67740  Biso   1.000  H
  H114     1.0000 0.53248  0.41979  0.71341  Biso   1.000  H
  C107     1.0000 0.19898  0.47080  0.35320  Biso   1.000  C
  C108     1.0000 0.37668  0.15660  0.36810  Biso   1.000  C
  C109     1.0000 0.26618  0.57342  0.64521  Biso   1.000  C
  H115     1.0000 0.23688  0.71324  0.69810  Biso   1.000  H
  H116     1.0000 0.25627  0.75731  0.65640  Biso   1.000  H
  C110     1.0000 0.27777  0.77993  0.72849  Biso   1.000  C
  H117     1.0000 0.31758  0.83461  0.69080  Biso   1.000  H
  H118     1.0000 0.32948  0.82662  0.74919  Biso   1.000  H
  C111     1.0000 0.43438  0.23932  0.62320  Biso   1.000  C
  H119     1.0000 0.49669  0.18831  0.70839  Biso   1.000  H
  H120     1.0000 0.48248  0.24239  0.74769  Biso   1.000  H
  C112     1.0000 0.54139  0.25420  0.73399  Biso   1.000  C
  H121     1.0000 0.52507  0.33601  0.78000  Biso   1.000  H
  H122     1.0000 0.56898  0.34230  0.76450  Biso   1.000  H
  H123     1.0000 0.19010  0.42431  0.36050  Biso   1.000  H
  C113     1.0000 0.18579  0.48879  0.29859  Biso   1.000  C
  C114     1.0000 0.18248  0.51880  0.39019  Biso   1.000  C
  C115     1.0000 0.35948  0.11142  0.40879  Biso   1.000  C
  C116     1.0000 0.37070  0.12770  0.31540  Biso   1.000  C
  H124     1.0000 0.40479  0.16389  0.37641  Biso   1.000  H
  C117     1.0000 0.24969  0.52603  0.60478  Biso   1.000  C
  H125     1.0000 0.27219  0.55679  0.67800  Biso   1.000  H
  H126     1.0000 0.26078  0.81983  0.72950  Biso   1.000  H
  H127     1.0000 0.27777  0.75731  0.76139  Biso   1.000  H
  C118     1.0000 0.39480  0.22701  0.60560  Biso   1.000  C
  H128     1.0000 0.45447  0.22811  0.60220  Biso   1.000  H
  H129     1.0000 0.55749  0.24872  0.70498  Biso   1.000  H
  H130     1.0000 0.55147  0.22399  0.76117  Biso   1.000  H
  H131     1.0000 0.19770  0.53201  0.28949  Biso   1.000  H
  H132     1.0000 0.19489  0.45371  0.27591  Biso   1.000  H
  C119     1.0000 0.14158  0.49472  0.29148  Biso   1.000  C
  N21      1.0000 0.19190  0.49100  0.43851  Biso   1.000  N
  C120     1.0000 0.13938  0.52749  0.38120  Biso   1.000  C
  H133     1.0000 0.19538  0.56362  0.38768  Biso   1.000  H
  N22      1.0000 0.36928  0.13800  0.45797  Biso   1.000  N
  H134     1.0000 0.33088  0.11132  0.40310  Biso   1.000  H
  C121     1.0000 0.37418  0.03779  0.40609  Biso   1.000  C
  C122     1.0000 0.38698  0.05649  0.31940  Biso   1.000  C
  H135     1.0000 0.38450  0.15479  0.29118  Biso   1.000  H
  H136     1.0000 0.34290  0.12680  0.30458  Biso   1.000  H
  C123     1.0000 0.24108  0.54563  0.55739  Biso   1.000  C
  C124     1.0000 0.23828  0.46130  0.62039  Biso   1.000  C
  C125     1.0000 0.38900  0.20198  0.55601  Biso   1.000  C
  C126     1.0000 0.36397  0.23359  0.63319  Biso   1.000  C
  H137     1.0000 0.13419  0.50839  0.25659  Biso   1.000  H
  H138     1.0000 0.12960  0.45060  0.29769  Biso   1.000  H
  C127     1.0000 0.12728  0.54679  0.32779  Biso   1.000  C
  C128     1.0000 0.21419  0.52633  0.46939  Biso   1.000  C
  H139     1.0000 0.12649  0.48492  0.38951  Biso   1.000  H
  H140     1.0000 0.13049  0.56262  0.40400  Biso   1.000  H
  C129     1.0000 0.34288  0.15911  0.48418  Biso   1.000  C
  H141     1.0000 0.36038  0.00940  0.42949  Biso   1.000  H
  H142     1.0000 0.40198  0.03618  0.41620  Biso   1.000  H
  C130     1.0000 0.36718  0.01050  0.35159  Biso   1.000  C
  H143     1.0000 0.38650  0.03699  0.28530  Biso   1.000  H
  H144     1.0000 0.41429  0.05950  0.33190  Biso   1.000  H
  C131     1.0000 0.22280  0.50291  0.52191  Biso   1.000  C
  H145     1.0000 0.24758  0.58991  0.54758  Biso   1.000  H
  C132     1.0000 0.22089  0.41733  0.58498  Biso   1.000  C
  H146     1.0000 0.24238  0.44798  0.65438  Biso   1.000  H
  C133     1.0000 0.35070  0.18791  0.53759  Biso   1.000  C
  H147     1.0000 0.41010  0.19479  0.53568  Biso   1.000  H
  C134     1.0000 0.32428  0.21982  0.61567  Biso   1.000  C
  H148     1.0000 0.36849  0.24832  0.66688  Biso   1.000  H
  H149     1.0000 0.13808  0.59142  0.32008  Biso   1.000  H
  H150     1.0000 0.09888  0.54980  0.32389  Biso   1.000  H
  H151     1.0000 0.22498  0.56709  0.45839  Biso   1.000  H
  H152     1.0000 0.31708  0.15730  0.47070  Biso   1.000  H
  H153     1.0000 0.33940  0.00920  0.34190  Biso   1.000  H
  H154     1.0000 0.37778  0.96452  0.34909  Biso   1.000  H
  C135     1.0000 0.21278  0.43753  0.53759  Biso   1.000  C
  C136     1.0000 0.20780  0.35089  0.59950  Biso   1.000  C
  C137     1.0000 0.31997  0.19751  0.56608  Biso   1.000  C
  C138     1.0000 0.29279  0.22419  0.64760  Biso   1.000  C
  H155     1.0000 0.20018  0.40753  0.51431  Biso   1.000  H
  N23      1.0000 0.21279  0.32822  0.64408  Biso   1.000  N
  H156     1.0000 0.19498  0.32340  0.57469  Biso   1.000  H
  H157     1.0000 0.29479  0.18871  0.55178  Biso   1.000  H
  N24      1.0000 0.25909  0.20691  0.63540  Biso   1.000  N
  H158     1.0000 0.29787  0.24148  0.68039  Biso   1.000  H
  C139     1.0000 0.19728  0.25922  0.65228  Biso   1.000  C
  C140     1.0000 0.22958  0.21389  0.67261  Biso   1.000  C
  C141     1.0000 0.16677  0.26380  0.68979  Biso   1.000  C
  H159     1.0000 0.18578  0.24073  0.61998  Biso   1.000  H
  H160     1.0000 0.24169  0.23409  0.70390  Biso   1.000  H
  C142     1.0000 0.21449  0.14162  0.68440  Biso   1.000  C
  C143     1.0000 0.14949  0.19193  0.69948  Biso   1.000  C
  H161     1.0000 0.14598  0.29430  0.67710  Biso   1.000  H
  H162     1.0000 0.17819  0.28239  0.72168  Biso   1.000  H
  H163     1.0000 0.20489  0.11941  0.65288  Biso   1.000  H
  H164     1.0000 0.23577  0.11418  0.69971  Biso   1.000  H
  C144     1.0000 0.18198  0.14579  0.72029  Biso   1.000  C
  H165     1.0000 0.12917  0.19520  0.72370  Biso   1.000  H
  H166     1.0000 0.13788  0.17318  0.66778  Biso   1.000  H
  H167     1.0000 0.19228  0.16318  0.75297  Biso   1.000  H
  H168     1.0000 0.17147  0.10021  0.72557  Biso   1.000  H
  C145     1.0000 0.64949  0.69193  0.69948  Biso   1.000  C
  C146     1.0000 0.68198  0.64579  0.72029  Biso   1.000  C
  H169     1.0000 0.62917  0.69520  0.72370  Biso   1.000  H
  H170     1.0000 0.63788  0.67323  0.66778  Biso   1.000  H
  C147     1.0000 0.66677  0.76380  0.68979  Biso   1.000  C
  C148     1.0000 0.71449  0.64162  0.68440  Biso   1.000  C
  H171     1.0000 0.69228  0.66323  0.75297  Biso   1.000  H
  H172     1.0000 0.67147  0.60021  0.72557  Biso   1.000  H
  H173     1.0000 0.64598  0.79430  0.67710  Biso   1.000  H
  H174     1.0000 0.67819  0.78244  0.72168  Biso   1.000  H
  C149     1.0000 0.69728  0.75922  0.65228  Biso   1.000  C
  C150     1.0000 0.72958  0.71389  0.67261  Biso   1.000  C
  H175     1.0000 0.70489  0.61941  0.65288  Biso   1.000  H
  H176     1.0000 0.73577  0.61423  0.69971  Biso   1.000  H
  N25      1.0000 0.71279  0.82822  0.64408  Biso   1.000  N
  H177     1.0000 0.68578  0.74073  0.61998  Biso   1.000  H
  N26      1.0000 0.75909  0.70691  0.63540  Biso   1.000  N
  H178     1.0000 0.74169  0.73409  0.70390  Biso   1.000  H
  C151     1.0000 0.70780  0.85094  0.59950  Biso   1.000  C
  C152     1.0000 0.79279  0.72419  0.64760  Biso   1.000  C
  C153     1.0000 0.72089  0.91733  0.58498  Biso   1.000  C
  H179     1.0000 0.69498  0.82340  0.57469  Biso   1.000  H
  C154     1.0000 0.82428  0.71982  0.61567  Biso   1.000  C
  H180     1.0000 0.79787  0.74153  0.68039  Biso   1.000  H
  C155     1.0000 0.73828  0.96130  0.62039  Biso   1.000  C
  C156     1.0000 0.71278  0.93753  0.53759  Biso   1.000  C
  C157     1.0000 0.81997  0.69751  0.56608  Biso   1.000  C
  C158     1.0000 0.86397  0.73359  0.63319  Biso   1.000  C
  H181     1.0000 0.74238  0.94803  0.65438  Biso   1.000  H
  C159     1.0000 0.74969  0.02598  0.60478  Biso   1.000  C
  H182     1.0000 0.70018  0.90753  0.51431  Biso   1.000  H
  C160     1.0000 0.72280  0.00291  0.52191  Biso   1.000  C
  C161     1.0000 0.85070  0.68791  0.53759  Biso   1.000  C
  H183     1.0000 0.79479  0.68871  0.55178  Biso   1.000  H
  C162     1.0000 0.89480  0.72701  0.60560  Biso   1.000  C
  H184     1.0000 0.86849  0.74832  0.66688  Biso   1.000  H
  C163     1.0000 0.74108  0.04558  0.55739  Biso   1.000  C
  C164     1.0000 0.76618  0.07342  0.64521  Biso   1.000  C
  C165     1.0000 0.71419  0.02628  0.46939  Biso   1.000  C
  C166     1.0000 0.88900  0.70203  0.55601  Biso   1.000  C
  C167     1.0000 0.84288  0.65911  0.48418  Biso   1.000  C
  C168     1.0000 0.93438  0.73932  0.62320  Biso   1.000  C
  H185     1.0000 0.74758  0.08991  0.54758  Biso   1.000  H
  N27      1.0000 0.77188  0.13418  0.63547  Biso   1.000  N
  H186     1.0000 0.77219  0.05679  0.67800  Biso   1.000  H
  N28      1.0000 0.69190  0.99100  0.43851  Biso   1.000  N
  H187     1.0000 0.72498  0.06709  0.45839  Biso   1.000  H
  H188     1.0000 0.91010  0.69479  0.53568  Biso   1.000  H
  N29      1.0000 0.86928  0.63800  0.45797  Biso   1.000  N
  H189     1.0000 0.81708  0.65730  0.47070  Biso   1.000  H
  N30      1.0000 0.94288  0.76500  0.66650  Biso   1.000  N
  H190     1.0000 0.95447  0.72811  0.60220  Biso   1.000  H
  C169     1.0000 0.78797  0.17590  0.67818  Biso   1.000  C
  C170     1.0000 0.68248  0.01880  0.39019  Biso   1.000  C
  C171     1.0000 0.85948  0.61142  0.40879  Biso   1.000  C
  C172     1.0000 0.98299  0.78174  0.67440  Biso   1.000  C
  H191     1.0000 0.79097  0.14710  0.70888  Biso   1.000  H
  C173     1.0000 0.76169  0.23178  0.68780  Biso   1.000  C
  C174     1.0000 0.82808  0.20012  0.66418  Biso   1.000  C
  C175     1.0000 0.69898  0.97080  0.35320  Biso   1.000  C
  C176     1.0000 0.63938  0.02749  0.38120  Biso   1.000  C
  H192     1.0000 0.69538  0.06362  0.38768  Biso   1.000  H
  H193     1.0000 0.83088  0.61132  0.40310  Biso   1.000  H
  C177     1.0000 0.87418  0.53779  0.40609  Biso   1.000  C
  C178     1.0000 0.87668  0.65660  0.36810  Biso   1.000  C
  H194     1.0000 0.99749  0.77581  0.64360  Biso   1.000  H
  C179     1.0000 0.99849  0.73600  0.71857  Biso   1.000  C
  C180     1.0000 0.98527  0.85451  0.69510  Biso   1.000  C
  H195     1.0000 0.73688  0.21319  0.69810  Biso   1.000  H
  H196     1.0000 0.75627  0.25731  0.65640  Biso   1.000  H
  C181     1.0000 0.77777  0.27993  0.72849  Biso   1.000  C
  N31      1.0000 0.85258  0.14509  0.65599  Biso   1.000  N
  C182     1.0000 0.84449  0.24560  0.70779  Biso   1.000  C
  H197     1.0000 0.82507  0.22751  0.63278  Biso   1.000  H
  N32      1.0000 0.74090  0.97221  0.35788  Biso   1.000  N
  H198     1.0000 0.69010  0.92431  0.36050  Biso   1.000  H
  C183     1.0000 0.68579  0.98884  0.29859  Biso   1.000  C
  H199     1.0000 0.62649  0.98492  0.38951  Biso   1.000  H
  C184     1.0000 0.62728  0.04679  0.32779  Biso   1.000  C
  H200     1.0000 0.63049  0.06262  0.40400  Biso   1.000  H
  H201     1.0000 0.86038  0.50940  0.42949  Biso   1.000  H
  H202     1.0000 0.90198  0.53623  0.41620  Biso   1.000  H
  C185     1.0000 0.86718  0.51050  0.35159  Biso   1.000  C
  N33      1.0000 0.85619  0.72153  0.36750  Biso   1.000  N
  C186     1.0000 0.87070  0.62770  0.31540  Biso   1.000  C
  H203     1.0000 0.90479  0.66394  0.37641  Biso   1.000  H
  H204     1.0000 0.99669  0.68831  0.70839  Biso   1.000  H
  H205     1.0000 0.98248  0.74244  0.74769  Biso   1.000  H
  C187     1.0000 0.04139  0.75420  0.73399  Biso   1.000  C
  N34      1.0000 0.97197  0.89682  0.65179  Biso   1.000  N
  H206     1.0000 0.96958  0.86114  0.72479  Biso   1.000  H
  C188     1.0000 0.02899  0.87119  0.70641  Biso   1.000  C
  H207     1.0000 0.76078  0.31983  0.72950  Biso   1.000  H
  H208     1.0000 0.77777  0.25731  0.76139  Biso   1.000  H
  C189     1.0000 0.81858  0.30259  0.71917  Biso   1.000  C
  C190     1.0000 0.86528  0.13810  0.61309  Biso   1.000  C
  H209     1.0000 0.84897  0.21781  0.73819  Biso   1.000  H
  H210     1.0000 0.86969  0.26390  0.69888  Biso   1.000  H
  C191     1.0000 0.75900  0.91562  0.36148  Biso   1.000  C
  H211     1.0000 0.69489  0.95371  0.27591  Biso   1.000  H
  C192     1.0000 0.64158  0.99472  0.29148  Biso   1.000  C
  H212     1.0000 0.69770  0.03201  0.28949  Biso   1.000  H
  H213     1.0000 0.63808  0.09142  0.32008  Biso   1.000  H
  H214     1.0000 0.59888  0.04980  0.32389  Biso   1.000  H
  H215     1.0000 0.87778  0.46452  0.34909  Biso   1.000  H
  H216     1.0000 0.83940  0.50920  0.34190  Biso   1.000  H
  C193     1.0000 0.88698  0.55649  0.31940  Biso   1.000  C
  C194     1.0000 0.87709  0.77319  0.37211  Biso   1.000  C
  H217     1.0000 0.88450  0.65479  0.29118  Biso   1.000  H
  H218     1.0000 0.84290  0.62680  0.30458  Biso   1.000  H
  H219     1.0000 0.05749  0.74872  0.70498  Biso   1.000  H
  H220     1.0000 0.05147  0.72399  0.76117  Biso   1.000  H
  C195     1.0000 0.04247  0.82943  0.75248  Biso   1.000  C
  C196     1.0000 0.94489  0.93813  0.65849  Biso   1.000  C
  H221     1.0000 0.04397  0.85933  0.67740  Biso   1.000  H
  H222     1.0000 0.03248  0.91984  0.71341  Biso   1.000  H
  H223     1.0000 0.81758  0.33461  0.69080  Biso   1.000  H
  H224     1.0000 0.82948  0.32662  0.74919  Biso   1.000  H
  C197     1.0000 0.89060  0.08418  0.59928  Biso   1.000  C
  H225     1.0000 0.85758  0.17032  0.58820  Biso   1.000  H
  C198     1.0000 0.80058  0.91120  0.36440  Biso   1.000  C
  H226     1.0000 0.74449  0.87521  0.36219  Biso   1.000  H
  H227     1.0000 0.62960  0.95060  0.29769  Biso   1.000  H
  H228     1.0000 0.63419  0.00839  0.25659  Biso   1.000  H
  H229     1.0000 0.88650  0.53699  0.28530  Biso   1.000  H
  H230     1.0000 0.91429  0.55950  0.33190  Biso   1.000  H
  C199     1.0000 0.85838  0.84114  0.37020  Biso   1.000  C
  H231     1.0000 0.90429  0.76912  0.37679  Biso   1.000  H
  H232     1.0000 0.02507  0.83601  0.78000  Biso   1.000  H
  H233     1.0000 0.06898  0.84230  0.76450  Biso   1.000  H
  C200     1.0000 0.92937  0.98643  0.62050  Biso   1.000  C
  H234     1.0000 0.93389  0.93803  0.69020  Biso   1.000  H
  C201     1.0000 0.90509  0.08418  0.55159  Biso   1.000  C
  C202     1.0000 0.90298  0.03252  0.63390  Biso   1.000  C
  C203     1.0000 0.82348  0.96733  0.36428  Biso   1.000  C
  C204     1.0000 0.81739  0.84813  0.36630  Biso   1.000  C
  C205     1.0000 0.88088  0.89994  0.37319  Biso   1.000  C
  C206     1.0000 0.94359  0.98573  0.57450  Biso   1.000  C
  H235     1.0000 0.89698  0.11790  0.52801  Biso   1.000  H
  C207     1.0000 0.93120  0.03528  0.53830  Biso   1.000  C
  H236     1.0000 0.89268  0.03041  0.66598  Biso   1.000  H
  C208     1.0000 0.86268  0.96562  0.37061  Biso   1.000  C
  H237     1.0000 0.81139  0.00980  0.35968  Biso   1.000  H
  H238     1.0000 0.80158  0.80923  0.36499  Biso   1.000  H
  H239     1.0000 0.90818  0.89672  0.37690  Biso   1.000  H
  H240     1.0000 0.96169  0.95241  0.56619  Biso   1.000  H
  C209     1.0000 0.94920  0.04031  0.49009  Biso   1.000  C
  C210     1.0000 0.88629  0.02312  0.36960  Biso   1.000  C
  N35      1.0000 0.94619  0.09021  0.46348  Biso   1.000  N
  H241     1.0000 0.96369  0.00322  0.47909  Biso   1.000  H
  N36      1.0000 0.92119  0.02488  0.37050  Biso   1.000  N
  H242     1.0000 0.87348  0.06518  0.36799  Biso   1.000  H
  C211     1.0000 0.96889  0.09448  0.41871  Biso   1.000  C
  C212     1.0000 0.94100  0.09162  0.37139  Biso   1.000  C
  C213     1.0000 0.99220  0.15801  0.41890  Biso   1.000  C
  H243     1.0000 0.98678  0.05508  0.41841  Biso   1.000  H
  H244     1.0000 0.92140  0.12810  0.37308  Biso   1.000  H
  C214     1.0000 0.96289  0.10041  0.32449  Biso   1.000  C
  H245     1.0000 0.97459  0.19660  0.42279  Biso   1.000  H
  C215     1.0000 0.01358  0.16901  0.37420  Biso   1.000  C
  H246     1.0000 0.01070  0.15740  0.44850  Biso   1.000  H
  H247     1.0000 0.94459  0.10081  0.29481  Biso   1.000  H
  H248     1.0000 0.98078  0.06212  0.32120  Biso   1.000  H
  C216     1.0000 0.98599  0.16690  0.32700  Biso   1.000  C
  H249     1.0000 0.03348  0.13378  0.37199  Biso   1.000  H
  H250     1.0000 0.02659  0.21319  0.37649  Biso   1.000  H
  H251     1.0000 0.96799  0.20540  0.32741  Biso   1.000  H
  H252     1.0000 0.00098  0.17102  0.29691  Biso   1.000  H
  C217     1.0000 0.35050  0.69193  0.30050  Biso   1.000  C
  C218     1.0000 0.31798  0.64579  0.27969  Biso   1.000  C
  C219     1.0000 0.33319  0.76380  0.31019  Biso   1.000  C
  H253     1.0000 0.37079  0.69520  0.27628  Biso   1.000  H
  H254     1.0000 0.36208  0.67323  0.33220  Biso   1.000  H
  C220     1.0000 0.28550  0.64162  0.31558  Biso   1.000  C
  H255     1.0000 0.30770  0.66323  0.24701  Biso   1.000  H
  H256     1.0000 0.32848  0.60021  0.27441  Biso   1.000  H
  C221     1.0000 0.30268  0.75922  0.34770  Biso   1.000  C
  H257     1.0000 0.35398  0.79430  0.32288  Biso   1.000  H
  H258     1.0000 0.32180  0.78244  0.27830  Biso   1.000  H
  C222     1.0000 0.27039  0.71389  0.32741  Biso   1.000  C
  H259     1.0000 0.29509  0.61941  0.34710  Biso   1.000  H
  H260     1.0000 0.26419  0.61423  0.30031  Biso   1.000  H
  N37      1.0000 0.28719  0.82822  0.35590  Biso   1.000  N
  H261     1.0000 0.31420  0.74073  0.38000  Biso   1.000  H
  N38      1.0000 0.24090  0.70691  0.36458  Biso   1.000  N
  H262     1.0000 0.25830  0.73409  0.29608  Biso   1.000  H
  C223     1.0000 0.29219  0.85094  0.40048  Biso   1.000  C
  C224     1.0000 0.20719  0.72419  0.35238  Biso   1.000  C
  C225     1.0000 0.27910  0.91733  0.41500  Biso   1.000  C
  H263     1.0000 0.30498  0.82340  0.42530  Biso   1.000  H
  C226     1.0000 0.17568  0.71982  0.38431  Biso   1.000  C
  H264     1.0000 0.20208  0.74153  0.31959  Biso   1.000  H
  C227     1.0000 0.26168  0.96130  0.37959  Biso   1.000  C
  C228     1.0000 0.28718  0.93753  0.46239  Biso   1.000  C
  C229     1.0000 0.17999  0.69751  0.43391  Biso   1.000  C
  C230     1.0000 0.13599  0.73359  0.36679  Biso   1.000  C
  H265     1.0000 0.25761  0.94803  0.34560  Biso   1.000  H
  C231     1.0000 0.25030  0.02598  0.39520  Biso   1.000  C
  H266     1.0000 0.29978  0.90753  0.48567  Biso   1.000  H
  C232     1.0000 0.27719  0.00291  0.47807  Biso   1.000  C
  C233     1.0000 0.14929  0.68791  0.46239  Biso   1.000  C
  H267     1.0000 0.20519  0.68871  0.44820  Biso   1.000  H
  C234     1.0000 0.10519  0.72701  0.39438  Biso   1.000  C
  H268     1.0000 0.13149  0.74832  0.33310  Biso   1.000  H
  C235     1.0000 0.25888  0.04558  0.44259  Biso   1.000  C
  C236     1.0000 0.23380  0.07342  0.35478  Biso   1.000  C
  C237     1.0000 0.28580  0.02628  0.53059  Biso   1.000  C
  C238     1.0000 0.11099  0.70203  0.44397  Biso   1.000  C
  C239     1.0000 0.15708  0.65911  0.51581  Biso   1.000  C
  C240     1.0000 0.06558  0.73932  0.37679  Biso   1.000  C
  H269     1.0000 0.25237  0.08991  0.45240  Biso   1.000  H
  N39      1.0000 0.22810  0.13418  0.36451  Biso   1.000  N
  H270     1.0000 0.22780  0.05679  0.32199  Biso   1.000  H
  N40      1.0000 0.30809  0.99100  0.56147  Biso   1.000  N
  H271     1.0000 0.27498  0.06709  0.54160  Biso   1.000  H
  H272     1.0000 0.08989  0.69479  0.46430  Biso   1.000  H
  N41      1.0000 0.13067  0.63800  0.54201  Biso   1.000  N
  H273     1.0000 0.18288  0.65730  0.52928  Biso   1.000  H
  N42      1.0000 0.05708  0.76500  0.33348  Biso   1.000  N
  H274     1.0000 0.04548  0.72811  0.39778  Biso   1.000  H
  C241     1.0000 0.21199  0.17590  0.32180  Biso   1.000  C
  C242     1.0000 0.31748  0.01880  0.60980  Biso   1.000  C
  C243     1.0000 0.14048  0.61142  0.59119  Biso   1.000  C
  C244     1.0000 0.01700  0.78174  0.32558  Biso   1.000  C
  H275     1.0000 0.20899  0.14710  0.29110  Biso   1.000  H
  C245     1.0000 0.23830  0.23178  0.31218  Biso   1.000  C
  C246     1.0000 0.17188  0.20012  0.33580  Biso   1.000  C
  C247     1.0000 0.30097  0.97080  0.64678  Biso   1.000  C
  C248     1.0000 0.36058  0.02749  0.61878  Biso   1.000  C
  H276     1.0000 0.30458  0.06362  0.61230  Biso   1.000  H
  H277     1.0000 0.16908  0.61132  0.59688  Biso   1.000  H
  C249     1.0000 0.12578  0.53779  0.59389  Biso   1.000  C
  C250     1.0000 0.12328  0.65660  0.63188  Biso   1.000  C
  H278     1.0000 0.00250  0.77581  0.35638  Biso   1.000  H
  C251     1.0000 0.00150  0.73600  0.28141  Biso   1.000  C
  C252     1.0000 0.01469  0.85451  0.30488  Biso   1.000  C
  H279     1.0000 0.26308  0.21319  0.30188  Biso   1.000  H
  H280     1.0000 0.24369  0.25731  0.34358  Biso   1.000  H
  C253     1.0000 0.22219  0.27993  0.27149  Biso   1.000  C
  N43      1.0000 0.14740  0.14509  0.34400  Biso   1.000  N
  C254     1.0000 0.15549  0.24560  0.29219  Biso   1.000  C
  H281     1.0000 0.17489  0.22751  0.36720  Biso   1.000  H
  N44      1.0000 0.25909  0.97221  0.64210  Biso   1.000  N
  H282     1.0000 0.30989  0.92431  0.63948  Biso   1.000  H
  C255     1.0000 0.31419  0.98884  0.70139  Biso   1.000  C
  H283     1.0000 0.37347  0.98492  0.61051  Biso   1.000  H
  C256     1.0000 0.37268  0.04679  0.67219  Biso   1.000  C
  H284     1.0000 0.36949  0.06262  0.59598  Biso   1.000  H
  H285     1.0000 0.13958  0.50940  0.57049  Biso   1.000  H
  H286     1.0000 0.09798  0.53623  0.58378  Biso   1.000  H
  C257     1.0000 0.13278  0.51050  0.64839  Biso   1.000  C
  N45      1.0000 0.14377  0.72153  0.63248  Biso   1.000  N
  C258     1.0000 0.12928  0.62770  0.68458  Biso   1.000  C
  H287     1.0000 0.09519  0.66394  0.62357  Biso   1.000  H
  H288     1.0000 0.00329  0.68831  0.29159  Biso   1.000  H
  H289     1.0000 0.01748  0.74244  0.25229  Biso   1.000  H
  C259     1.0000 0.95860  0.75420  0.26599  Biso   1.000  C
  N46      1.0000 0.02799  0.89682  0.34819  Biso   1.000  N
  H290     1.0000 0.03038  0.86114  0.27520  Biso   1.000  H
  C260     1.0000 0.97100  0.87119  0.29361  Biso   1.000  C
  H291     1.0000 0.23918  0.31983  0.27048  Biso   1.000  H
  H292     1.0000 0.22219  0.25731  0.23859  Biso   1.000  H
  C261     1.0000 0.18138  0.30259  0.28081  Biso   1.000  C
  C262     1.0000 0.13470  0.13810  0.38689  Biso   1.000  C
  H293     1.0000 0.15098  0.21781  0.26180  Biso   1.000  H
  H294     1.0000 0.13030  0.26390  0.30110  Biso   1.000  H
  C263     1.0000 0.24099  0.91562  0.63851  Biso   1.000  C
  H295     1.0000 0.30507  0.95371  0.72407  Biso   1.000  H
  C264     1.0000 0.35838  0.99472  0.70850  Biso   1.000  C
  H296     1.0000 0.30228  0.03201  0.71049  Biso   1.000  H
  H297     1.0000 0.36188  0.09142  0.67991  Biso   1.000  H
  H298     1.0000 0.40108  0.04980  0.67609  Biso   1.000  H
  H299     1.0000 0.12218  0.46452  0.65090  Biso   1.000  H
  H300     1.0000 0.16059  0.50920  0.65808  Biso   1.000  H
  C265     1.0000 0.11298  0.55649  0.68058  Biso   1.000  C
  C266     1.0000 0.12289  0.77319  0.62788  Biso   1.000  C
  H301     1.0000 0.11549  0.65479  0.70880  Biso   1.000  H
  H302     1.0000 0.15709  0.62680  0.69540  Biso   1.000  H
  H303     1.0000 0.94250  0.74872  0.29500  Biso   1.000  H
  H304     1.0000 0.94849  0.72399  0.23881  Biso   1.000  H
  C267     1.0000 0.95748  0.82943  0.24750  Biso   1.000  C
  C268     1.0000 0.05509  0.93813  0.34149  Biso   1.000  C
  H305     1.0000 0.95599  0.85933  0.32258  Biso   1.000  H
  H306     1.0000 0.96749  0.91984  0.28661  Biso   1.000  H
  H307     1.0000 0.18241  0.33461  0.30918  Biso   1.000  H
  H308     1.0000 0.17051  0.32662  0.25079  Biso   1.000  H
  C269     1.0000 0.10939  0.08418  0.40070  Biso   1.000  C
  H309     1.0000 0.14238  0.17032  0.41178  Biso   1.000  H
  C270     1.0000 0.19938  0.91120  0.63559  Biso   1.000  C
  H310     1.0000 0.25550  0.87521  0.63779  Biso   1.000  H
  H311     1.0000 0.37039  0.95060  0.70229  Biso   1.000  H
  H312     1.0000 0.36577  0.00839  0.74339  Biso   1.000  H
  H313     1.0000 0.11349  0.53699  0.71468  Biso   1.000  H
  H314     1.0000 0.08567  0.55950  0.66808  Biso   1.000  H
  C271     1.0000 0.14158  0.84114  0.62978  Biso   1.000  C
  H315     1.0000 0.09569  0.76912  0.62320  Biso   1.000  H
  H316     1.0000 0.97489  0.83601  0.21998  Biso   1.000  H
  H317     1.0000 0.93101  0.84230  0.23548  Biso   1.000  H
  C272     1.0000 0.07059  0.98643  0.37948  Biso   1.000  C
  H318     1.0000 0.06610  0.93803  0.30978  Biso   1.000  H
  C273     1.0000 0.09698  0.03252  0.36608  Biso   1.000  C
  C274     1.0000 0.09490  0.08418  0.44839  Biso   1.000  C
  C275     1.0000 0.18260  0.84813  0.63368  Biso   1.000  C
  C276     1.0000 0.17648  0.96733  0.63570  Biso   1.000  C
  C277     1.0000 0.11908  0.89994  0.62679  Biso   1.000  C
  C278     1.0000 0.05639  0.98573  0.42548  Biso   1.000  C
  H319     1.0000 0.10728  0.03041  0.33400  Biso   1.000  H
  C279     1.0000 0.06879  0.03528  0.46168  Biso   1.000  C
  H320     1.0000 0.10298  0.11790  0.47197  Biso   1.000  H
  H321     1.0000 0.19838  0.80923  0.63499  Biso   1.000  H
  C280     1.0000 0.13728  0.96562  0.62937  Biso   1.000  C
  H322     1.0000 0.18859  0.00980  0.64030  Biso   1.000  H
  H323     1.0000 0.09178  0.89672  0.62308  Biso   1.000  H
  H324     1.0000 0.03830  0.95241  0.43379  Biso   1.000  H
  C281     1.0000 0.05079  0.04031  0.50989  Biso   1.000  C
  C282     1.0000 0.11367  0.02312  0.63038  Biso   1.000  C
  N47      1.0000 0.05377  0.09021  0.53651  Biso   1.000  N
  H325     1.0000 0.03630  0.00322  0.52090  Biso   1.000  H
  N48      1.0000 0.07877  0.02488  0.62948  Biso   1.000  N
  H326     1.0000 0.12648  0.06518  0.63199  Biso   1.000  H
  C283     1.0000 0.03107  0.09448  0.58127  Biso   1.000  C
  C284     1.0000 0.05898  0.09162  0.62859  Biso   1.000  C
  C285     1.0000 0.00779  0.15801  0.58109  Biso   1.000  C
  H327     1.0000 0.01318  0.05508  0.58157  Biso   1.000  H
  H328     1.0000 0.07859  0.12810  0.62690  Biso   1.000  H
  C286     1.0000 0.03707  0.10041  0.67549  Biso   1.000  C
  C287     1.0000 0.98637  0.16901  0.62578  Biso   1.000  C
  H329     1.0000 0.98929  0.15740  0.55148  Biso   1.000  H
  H330     1.0000 0.02539  0.19660  0.57719  Biso   1.000  H
  H331     1.0000 0.05537  0.10081  0.70517  Biso   1.000  H
  H332     1.0000 0.01918  0.06212  0.67878  Biso   1.000  H
  C288     1.0000 0.01399  0.16690  0.67298  Biso   1.000  C
  H333     1.0000 0.96647  0.13378  0.62799  Biso   1.000  H
  H334     1.0000 0.97339  0.21319  0.62350  Biso   1.000  H
  H335     1.0000 0.99898  0.17102  0.70308  Biso   1.000  H
  H336     1.0000 0.03199  0.20540  0.67261  Biso   1.000  H
  C289     1.0000 0.46278  0.67479  0.80028  Biso   1.000  C
  C290     1.0000 0.45368  0.74580  0.78550  Biso   1.000  C
  H337     1.0000 0.45408  0.64469  0.77240  Biso   1.000  H
  H338     1.0000 0.44787  0.66313  0.82948  Biso   1.000  H
  C291     1.0000 0.50647  0.66152  0.81398  Biso   1.000  C
  C292     1.0000 0.46808  0.79204  0.82978  Biso   1.000  C
  H339     1.0000 0.42568  0.75143  0.77850  Biso   1.000  H
  H340     1.0000 0.46689  0.75771  0.75488  Biso   1.000  H
  H341     1.0000 0.51047  0.61453  0.82529  Biso   1.000  H
  H342     1.0000 0.52177  0.66941  0.78449  Biso   1.000  H
  C293     1.0000 0.51858  0.71022  0.85598  Biso   1.000  C
  C294     1.0000 0.50999  0.78214  0.84228  Biso   1.000  C
  H343     1.0000 0.46317  0.83963  0.82057  Biso   1.000  H
  H344     1.0000 0.45357  0.78174  0.85950  Biso   1.000  H
  N49      1.0000 0.56038  0.70304  0.86609  Biso   1.000  N
  H345     1.0000 0.50518  0.69821  0.88668  Biso   1.000  H
  N50      1.0000 0.52188  0.82601  0.88619  Biso   1.000  N
  H346     1.0000 0.52487  0.79521  0.81290  Biso   1.000  H
  C295     1.0000 0.57197  0.67821  0.91048  Biso   1.000  C
  C296     1.0000 0.54797  0.86903  0.88117  Biso   1.000  C
  C297     1.0000 0.61348  0.66992  0.92418  Biso   1.000  C
  H347     1.0000 0.55359  0.66570  0.93358  Biso   1.000  H
  C298     1.0000 0.56057  0.91954  0.91797  Biso   1.000  C
  H348     1.0000 0.56047  0.86843  0.85059  Biso   1.000  H
  C299     1.0000 0.62268  0.64660  0.97277  Biso   1.000  C
  C300     1.0000 0.64139  0.68660  0.89270  Biso   1.000  C
  C301     1.0000 0.54816  0.91793  0.96667  Biso   1.000  C
  C302     1.0000 0.58347  0.97351  0.90419  Biso   1.000  C
  H349     1.0000 0.60288  0.63640  0.99459  Biso   1.000  H
  C303     1.0000 0.66216  0.63831  0.98939  Biso   1.000  C
  C304     1.0000 0.68007  0.67630  0.90880  Biso   1.000  C
  H350     1.0000 0.63478  0.70479  0.86047  Biso   1.000  H
  H351     1.0000 0.53307  0.88129  0.97707  Biso   1.000  H
  C305     1.0000 0.55820  0.97090  0.00099  Biso   1.000  C
  H352     1.0000 0.59247  0.97472  0.87137  Biso   1.000  H
  C306     1.0000 0.59318  0.02422  0.93650  Biso   1.000  C
  C307     1.0000 0.69006  0.65303  0.95709  Biso   1.000  C
  C308     1.0000 0.67198  0.61182  0.03899  Biso   1.000  C
  C309     1.0000 0.71038  0.69042  0.87137  Biso   1.000  C
  C310     1.0000 0.54299  0.96864  0.05119  Biso   1.000  C
  C311     1.0000 0.58019  0.02272  0.98609  Biso   1.000  C
  C312     1.0000 0.61718  0.08408  0.92108  Biso   1.000  C
  H353     1.0000 0.71647  0.64740  0.96757  Biso   1.000  H
  N51      1.0000 0.64768  0.58780  0.06710  Biso   1.000  N
  H354     1.0000 0.69829  0.61272  0.05096  Biso   1.000  H
  N52      1.0000 0.74519  0.67364  0.88009  Biso   1.000  N
  H355     1.0000 0.70299  0.71233  0.84079  Biso   1.000  H
  H356     1.0000 0.53267  0.92773  0.06287  Biso   1.000  H
  N53      1.0000 0.54359  0.02030  0.07896  Biso   1.000  N
  H357     1.0000 0.58689  0.05820  0.00867  Biso   1.000  H
  N54      1.0000 0.62809  0.08649  0.87848  Biso   1.000  N
  H358     1.0000 0.62349  0.11911  0.94428  Biso   1.000  H
  C313     1.0000 0.66168  0.55880  0.11568  Biso   1.000  C
  C314     1.0000 0.77098  0.68741  0.84187  Biso   1.000  C
  C315     1.0000 0.52709  0.01181  0.12729  Biso   1.000  C
  C316     1.0000 0.65027  0.14690  0.86598  Biso   1.000  C
  C317     1.0000 0.64740  0.60323  0.15659  Biso   1.000  C
  C318     1.0000 0.64730  0.48759  0.11969  Biso   1.000  C
  H359     1.0000 0.69047  0.55870  0.11797  Biso   1.000  H
  H360     1.0000 0.75629  0.70952  0.81320  Biso   1.000  H
  C319     1.0000 0.78989  0.62202  0.82267  Biso   1.000  C
  C320     1.0000 0.80297  0.73369  0.86059  Biso   1.000  C
  H361     1.0000 0.51259  0.96844  0.12830  Biso   1.000  H
  C321     1.0000 0.49938  0.07252  0.13530  Biso   1.000  C
  C322     1.0000 0.55889  0.01412  0.16928  Biso   1.000  C
  C323     1.0000 0.68958  0.12368  0.84917  Biso   1.000  C
  C324     1.0000 0.62797  0.18369  0.82248  Biso   1.000  C
  H362     1.0000 0.65369  0.17710  0.89577  Biso   1.000  H
  N55      1.0000 0.66559  0.67012  0.15476  Biso   1.000  N
  H363     1.0000 0.61877  0.60790  0.15229  Biso   1.000  H
  C325     1.0000 0.65899  0.57242  0.20907  Biso   1.000  C
  C326     1.0000 0.65768  0.45683  0.17067  Biso   1.000  C
  H364     1.0000 0.65847  0.45990  0.09349  Biso   1.000  H
  H365     1.0000 0.61899  0.48713  0.11347  Biso   1.000  H
  H366     1.0000 0.80238  0.59790  0.85168  Biso   1.000  H
  H367     1.0000 0.76937  0.59252  0.80770  Biso   1.000  H
  C327     1.0000 0.81877  0.63353  0.78527  Biso   1.000  C
  N56      1.0000 0.78519  0.79872  0.87507  Biso   1.000  N
  C328     1.0000 0.83209  0.74922  0.82170  Biso   1.000  C
  H368     1.0000 0.81669  0.71334  0.89068  Biso   1.000  H
  H369     1.0000 0.51389  0.11509  0.13339  Biso   1.000  H
  H370     1.0000 0.47859  0.07272  0.10838  Biso   1.000  H
  C329     1.0000 0.48210  0.06770  0.18527  Biso   1.000  C
  N57      1.0000 0.58419  0.95492  0.16389  Biso   1.000  N
  C330     1.0000 0.54139  0.00859  0.21959  Biso   1.000  C
  H371     1.0000 0.57409  0.05659  0.16737  Biso   1.000  H
  N58      1.0000 0.71176  0.09011  0.89008  Biso   1.000  N
  H372     1.0000 0.68509  0.09091  0.82110  Biso   1.000  H
  C331     1.0000 0.71248  0.18449  0.82978  Biso   1.000  C
  C332     1.0000 0.65017  0.24520  0.80478  Biso   1.000  C
  H373     1.0000 0.62337  0.15223  0.79407  Biso   1.000  H
  H374     1.0000 0.60267  0.19831  0.83349  Biso   1.000  H
  C333     1.0000 0.64318  0.71902  0.14746  Biso   1.000  C
  H375     1.0000 0.68738  0.57282  0.21458  Biso   1.000  H
  H376     1.0000 0.64817  0.60031  0.23539  Biso   1.000  H
  C334     1.0000 0.64419  0.49950  0.21338  Biso   1.000  C
  H377     1.0000 0.68598  0.45130  0.17486  Biso   1.000  H
  H378     1.0000 0.64588  0.41160  0.17228  Biso   1.000  H
  H379     1.0000 0.80607  0.65293  0.75447  Biso   1.000  H
  H380     1.0000 0.83078  0.59031  0.77659  Biso   1.000  H
  C335     1.0000 0.84927  0.68122  0.80657  Biso   1.000  C
  C336     1.0000 0.79258  0.82209  0.91797  Biso   1.000  C
  H381     1.0000 0.85259  0.77922  0.83607  Biso   1.000  H
  H382     1.0000 0.81917  0.77153  0.79220  Biso   1.000  H
  H383     1.0000 0.46667  0.02598  0.18669  Biso   1.000  H
  H384     1.0000 0.46459  0.10629  0.18950  Biso   1.000  H
  C337     1.0000 0.51348  0.06749  0.22809  Biso   1.000  C
  C338     1.0000 0.61919  0.96472  0.15757  Biso   1.000  C
  H385     1.0000 0.52727  0.96562  0.22128  Biso   1.000  H
  H386     1.0000 0.56218  0.00859  0.24658  Biso   1.000  H
  C339     1.0000 0.71839  0.02870  0.88537  Biso   1.000  C
  H387     1.0000 0.71919  0.21540  0.85800  Biso   1.000  H
  H388     1.0000 0.73679  0.16821  0.81660  Biso   1.000  H
  C340     1.0000 0.68907  0.22299  0.78838  Biso   1.000  C
  H389     1.0000 0.63538  0.26711  0.77659  Biso   1.000  H
  H390     1.0000 0.65369  0.27812  0.83240  Biso   1.000  H
  C341     1.0000 0.65888  0.78852  0.14697  Biso   1.000  C
  H391     1.0000 0.61627  0.71163  0.14230  Biso   1.000  H
  H392     1.0000 0.65380  0.48000  0.24579  Biso   1.000  H
  H393     1.0000 0.61569  0.49950  0.21237  Biso   1.000  H
  H394     1.0000 0.86848  0.68901  0.78138  Biso   1.000  H
  H395     1.0000 0.86277  0.66042  0.83629  Biso   1.000  H
  C342     1.0000 0.77808  0.88441  0.93698  Biso   1.000  C
  H396     1.0000 0.80918  0.79651  0.94009  Biso   1.000  H
  H397     1.0000 0.50167  0.06202  0.26058  Biso   1.000  H
  H398     1.0000 0.52767  0.11061  0.22869  Biso   1.000  H
  C343     1.0000 0.64670  0.90873  0.15326  Biso   1.000  C
  H399     1.0000 0.62829  0.00960  0.15547  Biso   1.000  H
  C344     1.0000 0.74109  0.98713  0.92197  Biso   1.000  C
  H400     1.0000 0.70797  0.00719  0.85587  Biso   1.000  H
  H401     1.0000 0.70379  0.26299  0.77869  Biso   1.000  H
  H402     1.0000 0.68527  0.19379  0.75847  Biso   1.000  H
  C345     1.0000 0.63257  0.84199  0.14806  Biso   1.000  C
  C346     1.0000 0.69808  0.80194  0.14697  Biso   1.000  C
  C347     1.0000 0.78728  0.90682  0.98538  Biso   1.000  C
  C348     1.0000 0.75429  0.92492  0.90599  Biso   1.000  C
  C349     1.0000 0.68569  0.92120  0.15368  Biso   1.000  C
  C350     1.0000 0.75117  0.00890  0.97097  Biso   1.000  C
  H403     1.0000 0.60558  0.83370  0.14537  Biso   1.000  H
  C351     1.0000 0.71228  0.86833  0.15147  Biso   1.000  C
  H404     1.0000 0.71567  0.76581  0.14398  Biso   1.000  H
  H405     1.0000 0.80270  0.87913  0.00747  Biso   1.000  H
  C352     1.0000 0.77468  0.96824  0.00249  Biso   1.000  C
  H406     1.0000 0.74688  0.90994  0.87320  Biso   1.000  H
  H407     1.0000 0.69468  0.96633  0.15547  Biso   1.000  H
  H408     1.0000 0.74217  0.05081  0.98250  Biso   1.000  H
  C353     1.0000 0.75289  0.87984  0.15577  Biso   1.000  C
  C354     1.0000 0.78619  0.99121  0.05448  Biso   1.000  C
  N59      1.0000 0.76817  0.93502  0.16737  Biso   1.000  N
  H409     1.0000 0.76937  0.84320  0.14930  Biso   1.000  H
  N60      1.0000 0.81188  0.96291  0.07990  Biso   1.000  N
  H410     1.0000 0.77329  0.02839  0.06818  Biso   1.000  H
  C355     1.0000 0.81058  0.94080  0.17149  Biso   1.000  C
  C356     1.0000 0.82219  0.99090  0.13069  Biso   1.000  C
  H411     1.0000 0.82250  0.89592  0.16577  Biso   1.000  H
  C357     1.0000 0.82309  0.96603  0.22277  Biso   1.000  C
  C358     1.0000 0.86539  0.00518  0.13560  Biso   1.000  C
  H412     1.0000 0.80790  0.03402  0.13470  Biso   1.000  H
  H413     1.0000 0.81688  0.93200  0.24808  Biso   1.000  H
  C359     1.0000 0.86688  0.98040  0.22689  Biso   1.000  C
  H414     1.0000 0.80888  0.00769  0.22989  Biso   1.000  H
  H415     1.0000 0.87958  0.96351  0.12860  Biso   1.000  H
  C360     1.0000 0.87817  0.03030  0.18646  Biso   1.000  C
  H416     1.0000 0.87169  0.03920  0.11037  Biso   1.000  H
  H417     1.0000 0.87418  0.99910  0.26039  Biso   1.000  H
  H418     1.0000 0.88119  0.93783  0.22319  Biso   1.000  H
  H419     1.0000 0.86618  0.07448  0.19238  Biso   1.000  H
  H420     1.0000 0.90649  0.03639  0.18856  Biso   1.000  H
  C361     1.0000 0.53721  0.67479  0.19970  Biso   1.000  C
  C362     1.0000 0.49349  0.66152  0.18600  Biso   1.000  C
  C363     1.0000 0.54628  0.74580  0.21448  Biso   1.000  C
  H421     1.0000 0.54588  0.64469  0.22758  Biso   1.000  H
  H422     1.0000 0.55209  0.66313  0.17050  Biso   1.000  H
  C364     1.0000 0.48140  0.71022  0.14400  Biso   1.000  C
  H423     1.0000 0.48949  0.61453  0.17469  Biso   1.000  H
  H424     1.0000 0.47819  0.66941  0.21549  Biso   1.000  H
  C365     1.0000 0.53190  0.79204  0.17020  Biso   1.000  C
  H425     1.0000 0.57428  0.75143  0.22148  Biso   1.000  H
  H426     1.0000 0.53310  0.75771  0.24510  Biso   1.000  H
  N61      1.0000 0.43961  0.70304  0.13389  Biso   1.000  N
  C366     1.0000 0.49000  0.78214  0.15770  Biso   1.000  C
  H427     1.0000 0.49478  0.69821  0.11331  Biso   1.000  H
  H428     1.0000 0.53678  0.83963  0.17941  Biso   1.000  H
  H429     1.0000 0.54639  0.78174  0.14048  Biso   1.000  H
  C367     1.0000 0.42798  0.67821  0.08950  Biso   1.000  C
  N62      1.0000 0.47811  0.82601  0.11379  Biso   1.000  N
  H430     1.0000 0.47509  0.79521  0.18708  Biso   1.000  H
  C368     1.0000 0.38651  0.66992  0.07580  Biso   1.000  C
  H431     1.0000 0.44640  0.66570  0.06640  Biso   1.000  H
  C369     1.0000 0.45199  0.86903  0.11881  Biso   1.000  C
  C370     1.0000 0.35860  0.68660  0.10732  Biso   1.000  C
  C371     1.0000 0.37731  0.64660  0.02721  Biso   1.000  C
  C372     1.0000 0.43939  0.91954  0.08201  Biso   1.000  C
  H432     1.0000 0.43949  0.86843  0.14939  Biso   1.000  H
  C373     1.0000 0.31989  0.67630  0.09118  Biso   1.000  C
  H433     1.0000 0.36521  0.70479  0.13951  Biso   1.000  H
  C374     1.0000 0.33780  0.63831  0.01059  Biso   1.000  C
  H434     1.0000 0.39711  0.63640  0.00539  Biso   1.000  H
  C375     1.0000 0.45179  0.91793  0.03331  Biso   1.000  C
  C376     1.0000 0.41649  0.97351  0.09579  Biso   1.000  C
  C377     1.0000 0.28961  0.69042  0.12861  Biso   1.000  C
  C378     1.0000 0.30989  0.65303  0.04290  Biso   1.000  C
  C379     1.0000 0.32797  0.61182  0.96100  Biso   1.000  C
  H435     1.0000 0.46689  0.88129  0.02291  Biso   1.000  H
  C380     1.0000 0.44179  0.97090  0.99899  Biso   1.000  C
  C381     1.0000 0.40681  0.02422  0.06348  Biso   1.000  C
  H436     1.0000 0.40749  0.97472  0.12861  Biso   1.000  H
  N63      1.0000 0.25480  0.67364  0.11989  Biso   1.000  N
  H437     1.0000 0.29700  0.71233  0.15920  Biso   1.000  H
  H438     1.0000 0.28349  0.64740  0.03242  Biso   1.000  H
  N64      1.0000 0.35228  0.58780  0.93289  Biso   1.000  N
  H439     1.0000 0.30170  0.61272  0.94902  Biso   1.000  H
  C382     1.0000 0.41980  0.02272  0.01389  Biso   1.000  C
  C383     1.0000 0.45699  0.96864  0.94879  Biso   1.000  C
  C384     1.0000 0.38281  0.08408  0.07891  Biso   1.000  C
  C385     1.0000 0.22901  0.68741  0.15811  Biso   1.000  C
  C386     1.0000 0.33828  0.55880  0.88430  Biso   1.000  C
  H440     1.0000 0.41309  0.05820  0.99132  Biso   1.000  H
  H441     1.0000 0.46729  0.92773  0.93712  Biso   1.000  H
  N65      1.0000 0.45640  0.02030  0.92102  Biso   1.000  N
  N66      1.0000 0.37190  0.08649  0.12150  Biso   1.000  N
  H442     1.0000 0.37650  0.11911  0.05570  Biso   1.000  H
  C387     1.0000 0.21010  0.62202  0.17731  Biso   1.000  C
  H443     1.0000 0.24370  0.70952  0.18678  Biso   1.000  H
  C388     1.0000 0.19699  0.73369  0.13939  Biso   1.000  C
  C389     1.0000 0.35259  0.60323  0.84339  Biso   1.000  C
  C390     1.0000 0.35269  0.48759  0.88029  Biso   1.000  C
  H444     1.0000 0.30949  0.55870  0.88202  Biso   1.000  H
  C391     1.0000 0.47290  0.01181  0.87270  Biso   1.000  C
  C392     1.0000 0.34969  0.14690  0.13400  Biso   1.000  C
  H445     1.0000 0.19760  0.59790  0.14830  Biso   1.000  H
  H446     1.0000 0.23059  0.59252  0.19229  Biso   1.000  H
  C393     1.0000 0.18119  0.63353  0.21471  Biso   1.000  C
  N67      1.0000 0.21480  0.79872  0.12491  Biso   1.000  N
  C394     1.0000 0.16790  0.74922  0.17829  Biso   1.000  C
  H447     1.0000 0.18330  0.71334  0.10930  Biso   1.000  H
  N68      1.0000 0.33440  0.67012  0.84522  Biso   1.000  N
  H448     1.0000 0.38118  0.60790  0.84769  Biso   1.000  H
  C395     1.0000 0.34099  0.57242  0.79091  Biso   1.000  C
  C396     1.0000 0.34228  0.45683  0.82931  Biso   1.000  C
  H449     1.0000 0.34149  0.45990  0.90650  Biso   1.000  H
  H450     1.0000 0.38100  0.48713  0.88651  Biso   1.000  H
  C397     1.0000 0.44109  0.01412  0.83070  Biso   1.000  C
  H451     1.0000 0.48740  0.96844  0.87172  Biso   1.000  H
  C398     1.0000 0.50058  0.07252  0.86469  Biso   1.000  C
  C399     1.0000 0.31041  0.12368  0.15081  Biso   1.000  C
  C400     1.0000 0.37199  0.18369  0.17750  Biso   1.000  C
  H452     1.0000 0.34630  0.17710  0.10421  Biso   1.000  H
  H453     1.0000 0.19388  0.65293  0.24551  Biso   1.000  H
  H454     1.0000 0.16918  0.59031  0.22339  Biso   1.000  H
  C401     1.0000 0.15069  0.68122  0.19341  Biso   1.000  C
  C402     1.0000 0.20741  0.82209  0.08201  Biso   1.000  C
  H455     1.0000 0.14740  0.77922  0.16391  Biso   1.000  H
  H456     1.0000 0.18079  0.77153  0.20778  Biso   1.000  H
  C403     1.0000 0.35678  0.71902  0.85252  Biso   1.000  C
  H457     1.0000 0.31260  0.57282  0.78541  Biso   1.000  H
  H458     1.0000 0.35179  0.60031  0.76459  Biso   1.000  H
  C404     1.0000 0.35580  0.49950  0.78660  Biso   1.000  C
  H459     1.0000 0.31398  0.45130  0.82512  Biso   1.000  H
  H460     1.0000 0.35408  0.41160  0.82770  Biso   1.000  H
  N69      1.0000 0.41580  0.95492  0.83609  Biso   1.000  N
  C405     1.0000 0.45860  0.00859  0.78039  Biso   1.000  C
  H461     1.0000 0.42589  0.05659  0.83261  Biso   1.000  H
  H462     1.0000 0.48609  0.11509  0.86659  Biso   1.000  H
  H463     1.0000 0.52139  0.07272  0.89160  Biso   1.000  H
  C406     1.0000 0.51789  0.06770  0.81471  Biso   1.000  C
  N70      1.0000 0.28819  0.09011  0.10990  Biso   1.000  N
  H464     1.0000 0.31490  0.09091  0.17888  Biso   1.000  H
  C407     1.0000 0.28751  0.18449  0.17020  Biso   1.000  C
  C408     1.0000 0.34979  0.24520  0.19521  Biso   1.000  C
  H465     1.0000 0.37658  0.15223  0.20591  Biso   1.000  H
  H466     1.0000 0.39729  0.19831  0.16650  Biso   1.000  H
  H467     1.0000 0.13148  0.68901  0.21860  Biso   1.000  H
  H468     1.0000 0.13719  0.66042  0.16369  Biso   1.000  H
  C409     1.0000 0.22191  0.88441  0.06300  Biso   1.000  C
  H469     1.0000 0.19081  0.79651  0.05989  Biso   1.000  H
  C410     1.0000 0.34108  0.78852  0.85301  Biso   1.000  C
  H470     1.0000 0.38369  0.71163  0.85769  Biso   1.000  H
  H471     1.0000 0.34619  0.48000  0.75419  Biso   1.000  H
  H472     1.0000 0.38430  0.49950  0.78761  Biso   1.000  H
  C411     1.0000 0.38080  0.96472  0.84241  Biso   1.000  C
  H473     1.0000 0.47269  0.96562  0.77871  Biso   1.000  H
  C412     1.0000 0.48648  0.06749  0.77189  Biso   1.000  C
  H474     1.0000 0.43780  0.00859  0.75340  Biso   1.000  H
  H475     1.0000 0.53329  0.02598  0.81329  Biso   1.000  H
  H476     1.0000 0.53540  0.10629  0.81052  Biso   1.000  H
  C413     1.0000 0.28160  0.02870  0.11462  Biso   1.000  C
  H477     1.0000 0.28080  0.21540  0.14201  Biso   1.000  H
  H478     1.0000 0.26320  0.16821  0.18341  Biso   1.000  H
  C414     1.0000 0.31089  0.22299  0.21160  Biso   1.000  C
  H479     1.0000 0.36460  0.26711  0.22339  Biso   1.000  H
  H480     1.0000 0.34630  0.27812  0.16758  Biso   1.000  H
  C415     1.0000 0.21271  0.90682  0.01460  Biso   1.000  C
  C416     1.0000 0.24570  0.92492  0.09399  Biso   1.000  C
  C417     1.0000 0.36738  0.84199  0.85192  Biso   1.000  C
  C418     1.0000 0.30188  0.80194  0.85301  Biso   1.000  C
  C419     1.0000 0.35329  0.90873  0.84672  Biso   1.000  C
  H481     1.0000 0.37170  0.00960  0.84451  Biso   1.000  H
  H482     1.0000 0.49828  0.06202  0.73940  Biso   1.000  H
  H483     1.0000 0.47229  0.11061  0.77129  Biso   1.000  H
  C420     1.0000 0.25890  0.98713  0.07801  Biso   1.000  C
  H484     1.0000 0.29199  0.00719  0.14411  Biso   1.000  H
  H485     1.0000 0.29620  0.26299  0.22129  Biso   1.000  H
  H486     1.0000 0.31469  0.19379  0.24151  Biso   1.000  H
  H487     1.0000 0.19729  0.87913  0.99251  Biso   1.000  H
  C421     1.0000 0.22528  0.96824  0.99749  Biso   1.000  C
  H488     1.0000 0.25311  0.90994  0.12678  Biso   1.000  H
  H489     1.0000 0.39438  0.83370  0.85462  Biso   1.000  H
  C422     1.0000 0.28768  0.86833  0.84851  Biso   1.000  C
  H490     1.0000 0.28429  0.76581  0.85600  Biso   1.000  H
  C423     1.0000 0.31430  0.92120  0.84631  Biso   1.000  C
  C424     1.0000 0.24881  0.00890  0.02901  Biso   1.000  C
  C425     1.0000 0.21380  0.99121  0.94550  Biso   1.000  C
  C426     1.0000 0.24710  0.87984  0.84421  Biso   1.000  C
  H491     1.0000 0.30528  0.96633  0.84451  Biso   1.000  H
  H492     1.0000 0.25779  0.05081  0.01752  Biso   1.000  H
  N71      1.0000 0.18808  0.96291  0.92012  Biso   1.000  N
  H493     1.0000 0.22670  0.02839  0.93180  Biso   1.000  H
  N72      1.0000 0.23182  0.93502  0.83261  Biso   1.000  N
  H494     1.0000 0.23059  0.84320  0.85069  Biso   1.000  H
  C427     1.0000 0.17779  0.99090  0.86929  Biso   1.000  C
  C428     1.0000 0.18938  0.94080  0.82849  Biso   1.000  C
  C429     1.0000 0.13460  0.00518  0.86439  Biso   1.000  C
  H495     1.0000 0.19209  0.03402  0.86532  Biso   1.000  H
  H496     1.0000 0.17749  0.89592  0.83422  Biso   1.000  H
  C430     1.0000 0.17689  0.96603  0.77721  Biso   1.000  C
  H497     1.0000 0.12038  0.96351  0.87139  Biso   1.000  H
  C431     1.0000 0.12179  0.03030  0.81352  Biso   1.000  C
  H498     1.0000 0.12830  0.03920  0.88961  Biso   1.000  H
  H499     1.0000 0.18308  0.93200  0.75190  Biso   1.000  H
  C432     1.0000 0.13308  0.98040  0.77309  Biso   1.000  C
  H500     1.0000 0.19111  0.00769  0.77010  Biso   1.000  H
  H501     1.0000 0.13378  0.07448  0.80760  Biso   1.000  H
  H502     1.0000 0.09350  0.03639  0.81142  Biso   1.000  H
  H503     1.0000 0.12578  0.99910  0.73959  Biso   1.000  H
  H504     1.0000 0.11879  0.93783  0.77680  Biso   1.000  H
  C433     1.0000 0.33209  0.24922  0.82170  Biso   1.000  C
  C434     1.0000 0.34927  0.18122  0.80657  Biso   1.000  C
  C435     1.0000 0.30297  0.23369  0.86059  Biso   1.000  C
  H505     1.0000 0.35259  0.27922  0.83607  Biso   1.000  H
  H506     1.0000 0.31917  0.27148  0.79220  Biso   1.000  H
  C436     1.0000 0.31877  0.13348  0.78527  Biso   1.000  C
  H507     1.0000 0.36848  0.18901  0.78138  Biso   1.000  H
  H508     1.0000 0.36277  0.16042  0.83629  Biso   1.000  H
  C437     1.0000 0.27098  0.18741  0.84187  Biso   1.000  C
  N73      1.0000 0.28519  0.29872  0.87507  Biso   1.000  N
  H509     1.0000 0.31669  0.21329  0.89068  Biso   1.000  H
  C438     1.0000 0.28989  0.12202  0.82267  Biso   1.000  C
  H510     1.0000 0.30607  0.15288  0.75447  Biso   1.000  H
  H511     1.0000 0.33078  0.09031  0.77659  Biso   1.000  H
  N74      1.0000 0.24519  0.17359  0.88009  Biso   1.000  N
  H512     1.0000 0.25629  0.20952  0.81320  Biso   1.000  H
  C439     1.0000 0.29258  0.32209  0.91797  Biso   1.000  C
  H513     1.0000 0.30238  0.09790  0.85168  Biso   1.000  H
  H514     1.0000 0.26937  0.09252  0.80770  Biso   1.000  H
  C440     1.0000 0.21038  0.19042  0.87137  Biso   1.000  C
  C441     1.0000 0.27808  0.38441  0.93698  Biso   1.000  C
  H515     1.0000 0.30918  0.29651  0.94009  Biso   1.000  H
  C442     1.0000 0.18007  0.17630  0.90880  Biso   1.000  C
  H516     1.0000 0.20299  0.21228  0.84079  Biso   1.000  H
  C443     1.0000 0.28728  0.40682  0.98538  Biso   1.000  C
  C444     1.0000 0.25429  0.42492  0.90599  Biso   1.000  C
  C445     1.0000 0.19006  0.15298  0.95709  Biso   1.000  C
  C446     1.0000 0.14139  0.18660  0.89270  Biso   1.000  C
  H517     1.0000 0.30270  0.37908  0.00747  Biso   1.000  H
  C447     1.0000 0.27468  0.46819  0.00249  Biso   1.000  C
  C448     1.0000 0.24109  0.48713  0.92197  Biso   1.000  C
  H518     1.0000 0.24688  0.40989  0.87320  Biso   1.000  H
  C449     1.0000 0.16216  0.13831  0.98939  Biso   1.000  C
  H519     1.0000 0.21647  0.14740  0.96757  Biso   1.000  H
  C450     1.0000 0.11348  0.16992  0.92418  Biso   1.000  C
  H520     1.0000 0.13478  0.20479  0.86047  Biso   1.000  H
  C451     1.0000 0.25117  0.50890  0.97097  Biso   1.000  C
  C452     1.0000 0.28619  0.49121  0.05448  Biso   1.000  C
  C453     1.0000 0.21839  0.52870  0.88537  Biso   1.000  C
  C454     1.0000 0.12268  0.14660  0.97277  Biso   1.000  C
  C455     1.0000 0.17198  0.11182  0.03899  Biso   1.000  C
  C456     1.0000 0.07197  0.17821  0.91048  Biso   1.000  C
  H521     1.0000 0.24217  0.55081  0.98250  Biso   1.000  H
  N75      1.0000 0.31188  0.46291  0.07990  Biso   1.000  N
  H522     1.0000 0.27329  0.52839  0.06818  Biso   1.000  H
  N76      1.0000 0.21176  0.59011  0.89008  Biso   1.000  N
  H523     1.0000 0.20797  0.50719  0.85587  Biso   1.000  H
  H524     1.0000 0.10288  0.13640  0.99459  Biso   1.000  H
  N77      1.0000 0.14768  0.08780  0.06710  Biso   1.000  N
  H525     1.0000 0.19829  0.11272  0.05096  Biso   1.000  H
  N78      1.0000 0.06038  0.20299  0.86609  Biso   1.000  N
  H526     1.0000 0.05359  0.16570  0.93358  Biso   1.000  H
  C457     1.0000 0.32219  0.49090  0.13069  Biso   1.000  C
  C458     1.0000 0.18958  0.62373  0.84917  Biso   1.000  C
  C459     1.0000 0.16168  0.05880  0.11568  Biso   1.000  C
  C460     1.0000 0.01858  0.21022  0.85598  Biso   1.000  C
  C461     1.0000 0.31058  0.44080  0.17149  Biso   1.000  C
  C462     1.0000 0.36539  0.50523  0.13560  Biso   1.000  C
  H527     1.0000 0.30790  0.53402  0.13470  Biso   1.000  H
  H528     1.0000 0.18509  0.59091  0.82110  Biso   1.000  H
  C463     1.0000 0.21248  0.68449  0.82978  Biso   1.000  C
  C464     1.0000 0.15027  0.64690  0.86598  Biso   1.000  C
  C465     1.0000 0.14730  0.98764  0.11969  Biso   1.000  C
  C466     1.0000 0.14740  0.10323  0.15659  Biso   1.000  C
  H529     1.0000 0.19047  0.05870  0.11797  Biso   1.000  H
  C467     1.0000 0.00999  0.28209  0.84228  Biso   1.000  C
  C468     1.0000 0.00647  0.16152  0.81398  Biso   1.000  C
  H530     1.0000 0.00518  0.19821  0.88668  Biso   1.000  H
  N79      1.0000 0.26817  0.43502  0.16737  Biso   1.000  N
  H531     1.0000 0.32250  0.39592  0.16577  Biso   1.000  H
  C469     1.0000 0.32309  0.46603  0.22277  Biso   1.000  C
  C470     1.0000 0.37817  0.53030  0.18646  Biso   1.000  C
  H532     1.0000 0.37958  0.46351  0.12860  Biso   1.000  H
  H533     1.0000 0.37169  0.53920  0.11037  Biso   1.000  H
  H534     1.0000 0.21919  0.71540  0.85800  Biso   1.000  H
  H535     1.0000 0.23679  0.66821  0.81660  Biso   1.000  H
  C471     1.0000 0.18907  0.72304  0.78838  Biso   1.000  C
  N80      1.0000 0.12809  0.58649  0.87848  Biso   1.000  N
  C472     1.0000 0.12797  0.68374  0.82248  Biso   1.000  C
  H536     1.0000 0.15369  0.67710  0.89577  Biso   1.000  H
  C473     1.0000 0.15768  0.95683  0.17067  Biso   1.000  C
  H537     1.0000 0.15847  0.95990  0.09349  Biso   1.000  H
  H538     1.0000 0.11899  0.98713  0.11347  Biso   1.000  H
  N81      1.0000 0.16559  0.17012  0.15476  Biso   1.000  N
  H539     1.0000 0.11877  0.10790  0.15229  Biso   1.000  H
  C474     1.0000 0.15899  0.07242  0.20907  Biso   1.000  C
  N82      1.0000 0.02188  0.32601  0.88619  Biso   1.000  N
  H540     1.0000 0.02487  0.29521  0.81290  Biso   1.000  H
  C475     1.0000 0.96808  0.29199  0.82978  Biso   1.000  C
  H541     1.0000 0.01047  0.11448  0.82529  Biso   1.000  H
  H542     1.0000 0.02177  0.16941  0.78449  Biso   1.000  H
  C476     1.0000 0.96278  0.17479  0.80028  Biso   1.000  C
  C477     1.0000 0.25289  0.37979  0.15577  Biso   1.000  C
  H543     1.0000 0.31688  0.43200  0.24808  Biso   1.000  H
  H544     1.0000 0.30888  0.50769  0.22989  Biso   1.000  H
  C478     1.0000 0.36688  0.48040  0.22689  Biso   1.000  C
  H545     1.0000 0.36618  0.57453  0.19238  Biso   1.000  H
  H546     1.0000 0.40649  0.53644  0.18856  Biso   1.000  H
  H547     1.0000 0.20379  0.76299  0.77869  Biso   1.000  H
  H548     1.0000 0.18527  0.69384  0.75847  Biso   1.000  H
  C479     1.0000 0.15017  0.74520  0.80478  Biso   1.000  C
  C480     1.0000 0.11718  0.58413  0.92108  Biso   1.000  C
  H549     1.0000 0.12337  0.65223  0.79407  Biso   1.000  H
  H550     1.0000 0.10267  0.69831  0.83349  Biso   1.000  H
  C481     1.0000 0.14419  0.99950  0.21338  Biso   1.000  C
  H551     1.0000 0.18598  0.95130  0.17486  Biso   1.000  H
  H552     1.0000 0.14588  0.91160  0.17228  Biso   1.000  H
  C482     1.0000 0.14318  0.21902  0.14746  Biso   1.000  C
  H553     1.0000 0.18738  0.07282  0.21458  Biso   1.000  H
  H554     1.0000 0.14817  0.10031  0.23539  Biso   1.000  H
  C483     1.0000 0.04797  0.36903  0.88117  Biso   1.000  C
  H555     1.0000 0.96317  0.33958  0.82057  Biso   1.000  H
  H556     1.0000 0.95357  0.28169  0.85950  Biso   1.000  H
  C484     1.0000 0.95368  0.24580  0.78550  Biso   1.000  C
  H557     1.0000 0.95408  0.14469  0.77240  Biso   1.000  H
  H558     1.0000 0.94787  0.16308  0.82948  Biso   1.000  H
  C485     1.0000 0.21228  0.36833  0.15147  Biso   1.000  C
  H559     1.0000 0.26937  0.34320  0.14930  Biso   1.000  H
  H560     1.0000 0.37418  0.49910  0.26039  Biso   1.000  H
  H561     1.0000 0.38119  0.43783  0.22319  Biso   1.000  H
  H562     1.0000 0.13538  0.76711  0.77659  Biso   1.000  H
  H563     1.0000 0.15369  0.77812  0.83240  Biso   1.000  H
  C486     1.0000 0.09318  0.52422  0.93650  Biso   1.000  C
  H564     1.0000 0.12349  0.61911  0.94428  Biso   1.000  H
  H565     1.0000 0.15380  0.98000  0.24579  Biso   1.000  H
  H566     1.0000 0.11569  0.99950  0.21237  Biso   1.000  H
  C487     1.0000 0.15888  0.28852  0.14697  Biso   1.000  C
  H567     1.0000 0.11627  0.21163  0.14230  Biso   1.000  H
  C488     1.0000 0.06057  0.41949  0.91797  Biso   1.000  C
  H568     1.0000 0.06047  0.36843  0.85059  Biso   1.000  H
  H569     1.0000 0.92568  0.25138  0.77850  Biso   1.000  H
  H570     1.0000 0.96689  0.25771  0.75488  Biso   1.000  H
  C489     1.0000 0.19808  0.30189  0.14697  Biso   1.000  C
  C490     1.0000 0.18569  0.42120  0.15368  Biso   1.000  C
  C491     1.0000 0.08347  0.47351  0.90419  Biso   1.000  C
  C492     1.0000 0.08019  0.52272  0.98609  Biso   1.000  C
  C493     1.0000 0.13257  0.34199  0.14806  Biso   1.000  C
  C494     1.0000 0.04816  0.41793  0.96667  Biso   1.000  C
  H571     1.0000 0.21567  0.26581  0.14398  Biso   1.000  H
  C495     1.0000 0.14670  0.40868  0.15326  Biso   1.000  C
  H572     1.0000 0.19468  0.46633  0.15547  Biso   1.000  H
  H573     1.0000 0.09247  0.47472  0.87137  Biso   1.000  H
  C496     1.0000 0.05820  0.47090  0.00099  Biso   1.000  C
  H574     1.0000 0.08689  0.55820  0.00867  Biso   1.000  H
  H575     1.0000 0.10558  0.33370  0.14537  Biso   1.000  H
  H576     1.0000 0.03307  0.38129  0.97707  Biso   1.000  H
  C497     1.0000 0.11919  0.46472  0.15757  Biso   1.000  C
  C498     1.0000 0.04299  0.46859  0.05119  Biso   1.000  C
  N83      1.0000 0.08419  0.45492  0.16389  Biso   1.000  N
  H577     1.0000 0.12829  0.50960  0.15547  Biso   1.000  H
  N84      1.0000 0.04359  0.52030  0.07896  Biso   1.000  N
  H578     1.0000 0.03267  0.42773  0.06287  Biso   1.000  H
  C499     1.0000 0.05889  0.51412  0.16928  Biso   1.000  C
  C500     1.0000 0.02709  0.51181  0.12729  Biso   1.000  C
  C501     1.0000 0.04139  0.50859  0.21959  Biso   1.000  C
  H579     1.0000 0.07409  0.55659  0.16737  Biso   1.000  H
  C502     1.0000 0.99938  0.57252  0.13530  Biso   1.000  C
  H580     1.0000 0.01259  0.46839  0.12830  Biso   1.000  H
  C503     1.0000 0.01348  0.56749  0.22809  Biso   1.000  C
  H581     1.0000 0.06218  0.50859  0.24658  Biso   1.000  H
  H582     1.0000 0.02727  0.46562  0.22128  Biso   1.000  H
  H583     1.0000 0.97859  0.57272  0.10838  Biso   1.000  H
  C504     1.0000 0.98210  0.56770  0.18527  Biso   1.000  C
  H584     1.0000 0.01389  0.61514  0.13339  Biso   1.000  H
  H585     1.0000 0.00167  0.56202  0.26058  Biso   1.000  H
  H586     1.0000 0.02767  0.61061  0.22869  Biso   1.000  H
  H587     1.0000 0.96667  0.52603  0.18669  Biso   1.000  H
  H588     1.0000 0.96459  0.60629  0.18950  Biso   1.000  H
  C505     1.0000 0.66790  0.24922  0.17829  Biso   1.000  C
  C506     1.0000 0.65069  0.18122  0.19341  Biso   1.000  C
  H589     1.0000 0.64740  0.27922  0.16391  Biso   1.000  H
  H590     1.0000 0.68079  0.27148  0.20778  Biso   1.000  H
  C507     1.0000 0.69699  0.23369  0.13939  Biso   1.000  C
  C508     1.0000 0.68119  0.13348  0.21471  Biso   1.000  C
  H591     1.0000 0.63148  0.18901  0.21860  Biso   1.000  H
  H592     1.0000 0.63719  0.16042  0.16369  Biso   1.000  H
  C509     1.0000 0.72901  0.18741  0.15811  Biso   1.000  C
  N85      1.0000 0.71480  0.29872  0.12491  Biso   1.000  N
  H593     1.0000 0.68330  0.21329  0.10930  Biso   1.000  H
  C510     1.0000 0.71010  0.12202  0.17731  Biso   1.000  C
  H594     1.0000 0.69388  0.15288  0.24551  Biso   1.000  H
  H595     1.0000 0.66918  0.09031  0.22339  Biso   1.000  H
  N86      1.0000 0.75480  0.17359  0.11989  Biso   1.000  N
  H596     1.0000 0.74370  0.20952  0.18678  Biso   1.000  H
  C511     1.0000 0.70741  0.32209  0.08201  Biso   1.000  C
  H597     1.0000 0.69760  0.09790  0.14830  Biso   1.000  H
  H598     1.0000 0.73059  0.09252  0.19229  Biso   1.000  H
  C512     1.0000 0.78961  0.19042  0.12861  Biso   1.000  C
  C513     1.0000 0.72191  0.38441  0.06300  Biso   1.000  C
  H599     1.0000 0.69081  0.29651  0.05989  Biso   1.000  H
  C514     1.0000 0.81989  0.17630  0.09118  Biso   1.000  C
  H600     1.0000 0.79700  0.21228  0.15920  Biso   1.000  H
  C515     1.0000 0.71271  0.40682  0.01460  Biso   1.000  C
  C516     1.0000 0.74570  0.42492  0.09399  Biso   1.000  C
  C517     1.0000 0.80989  0.15298  0.04290  Biso   1.000  C
  C518     1.0000 0.85860  0.18660  0.10732  Biso   1.000  C
  H601     1.0000 0.69729  0.37908  0.99251  Biso   1.000  H
  C519     1.0000 0.72528  0.46819  0.99749  Biso   1.000  C
  C520     1.0000 0.75890  0.48713  0.07801  Biso   1.000  C
  H602     1.0000 0.75311  0.40989  0.12678  Biso   1.000  H
  C521     1.0000 0.83780  0.13831  0.01059  Biso   1.000  C
  H603     1.0000 0.78349  0.14740  0.03242  Biso   1.000  H
  C522     1.0000 0.88651  0.16992  0.07580  Biso   1.000  C
  H604     1.0000 0.86521  0.20479  0.13951  Biso   1.000  H
  C523     1.0000 0.74881  0.50890  0.02901  Biso   1.000  C
  C524     1.0000 0.71380  0.49121  0.94550  Biso   1.000  C
  C525     1.0000 0.78160  0.52870  0.11462  Biso   1.000  C
  C526     1.0000 0.87731  0.14660  0.02721  Biso   1.000  C
  C527     1.0000 0.82797  0.11182  0.96100  Biso   1.000  C
  C528     1.0000 0.92798  0.17821  0.08950  Biso   1.000  C
  H605     1.0000 0.75779  0.55081  0.01752  Biso   1.000  H
  N87      1.0000 0.68808  0.46291  0.92012  Biso   1.000  N
  H606     1.0000 0.72670  0.52839  0.93180  Biso   1.000  H
  N88      1.0000 0.78819  0.59011  0.10990  Biso   1.000  N
  H607     1.0000 0.79199  0.50719  0.14411  Biso   1.000  H
  H608     1.0000 0.89711  0.13640  0.00539  Biso   1.000  H
  N89      1.0000 0.85228  0.08780  0.93289  Biso   1.000  N
  H609     1.0000 0.80170  0.11272  0.94902  Biso   1.000  H
  N90      1.0000 0.93961  0.20299  0.13389  Biso   1.000  N
  H610     1.0000 0.94640  0.16570  0.06640  Biso   1.000  H
  C529     1.0000 0.67779  0.49090  0.86929  Biso   1.000  C
  C530     1.0000 0.81041  0.62373  0.15081  Biso   1.000  C
  C531     1.0000 0.83828  0.05880  0.88430  Biso   1.000  C
  C532     1.0000 0.98140  0.21022  0.14400  Biso   1.000  C
  C533     1.0000 0.68938  0.44080  0.82849  Biso   1.000  C
  C534     1.0000 0.63460  0.50523  0.86439  Biso   1.000  C
  H611     1.0000 0.69209  0.53402  0.86532  Biso   1.000  H
  H612     1.0000 0.81490  0.59091  0.17888  Biso   1.000  H
  C535     1.0000 0.78751  0.68449  0.17020  Biso   1.000  C
  C536     1.0000 0.84969  0.64690  0.13400  Biso   1.000  C
  C537     1.0000 0.85269  0.98764  0.88029  Biso   1.000  C
  C538     1.0000 0.85259  0.10323  0.84339  Biso   1.000  C
  H613     1.0000 0.80949  0.05870  0.88202  Biso   1.000  H
  C539     1.0000 0.99000  0.28209  0.15770  Biso   1.000  C
  C540     1.0000 0.99349  0.16152  0.18600  Biso   1.000  C
  H614     1.0000 0.99478  0.19821  0.11331  Biso   1.000  H
  N91      1.0000 0.73182  0.43502  0.83261  Biso   1.000  N
  H615     1.0000 0.67749  0.39592  0.83422  Biso   1.000  H
  C541     1.0000 0.67689  0.46603  0.77721  Biso   1.000  C
  C542     1.0000 0.62179  0.53030  0.81352  Biso   1.000  C
  H616     1.0000 0.62038  0.46351  0.87139  Biso   1.000  H
  H617     1.0000 0.62830  0.53920  0.88961  Biso   1.000  H
  H618     1.0000 0.78080  0.71540  0.14201  Biso   1.000  H
  H619     1.0000 0.76320  0.66821  0.18341  Biso   1.000  H
  C543     1.0000 0.81089  0.72304  0.21160  Biso   1.000  C
  N92      1.0000 0.87190  0.58649  0.12150  Biso   1.000  N
  C544     1.0000 0.87199  0.68374  0.17750  Biso   1.000  C
  H620     1.0000 0.84630  0.67710  0.10421  Biso   1.000  H
  C545     1.0000 0.84228  0.95683  0.82931  Biso   1.000  C
  H621     1.0000 0.84149  0.95990  0.90650  Biso   1.000  H
  H622     1.0000 0.88100  0.98713  0.88651  Biso   1.000  H
  N93      1.0000 0.83440  0.17012  0.84522  Biso   1.000  N
  H623     1.0000 0.88118  0.10790  0.84769  Biso   1.000  H
  C546     1.0000 0.84099  0.07242  0.79091  Biso   1.000  C
  N94      1.0000 0.97811  0.32601  0.11379  Biso   1.000  N
  H624     1.0000 0.97509  0.29521  0.18708  Biso   1.000  H
  C547     1.0000 0.03190  0.29199  0.17020  Biso   1.000  C
  H625     1.0000 0.98949  0.11448  0.17469  Biso   1.000  H
  H626     1.0000 0.97819  0.16941  0.21549  Biso   1.000  H
  C548     1.0000 0.03721  0.17479  0.19970  Biso   1.000  C
  C549     1.0000 0.74710  0.37979  0.84421  Biso   1.000  C
  H627     1.0000 0.68308  0.43200  0.75190  Biso   1.000  H
  H628     1.0000 0.69111  0.50769  0.77010  Biso   1.000  H
  C550     1.0000 0.63308  0.48040  0.77309  Biso   1.000  C
  H629     1.0000 0.63378  0.57453  0.80760  Biso   1.000  H
  H630     1.0000 0.59350  0.53644  0.81142  Biso   1.000  H
  H631     1.0000 0.79620  0.76299  0.22129  Biso   1.000  H
  H632     1.0000 0.81469  0.69384  0.24151  Biso   1.000  H
  C551     1.0000 0.84979  0.74520  0.19521  Biso   1.000  C
  C552     1.0000 0.88281  0.58413  0.07891  Biso   1.000  C
  H633     1.0000 0.87658  0.65223  0.20591  Biso   1.000  H
  H634     1.0000 0.89729  0.69831  0.16650  Biso   1.000  H
  C553     1.0000 0.85580  0.99950  0.78660  Biso   1.000  C
  H635     1.0000 0.81398  0.95130  0.82512  Biso   1.000  H
  H636     1.0000 0.85408  0.91160  0.82770  Biso   1.000  H
  C554     1.0000 0.85678  0.21902  0.85252  Biso   1.000  C
  H637     1.0000 0.81260  0.07282  0.78541  Biso   1.000  H
  H638     1.0000 0.85179  0.10031  0.76459  Biso   1.000  H
  C555     1.0000 0.95199  0.36903  0.11881  Biso   1.000  C
  H639     1.0000 0.03678  0.33958  0.17941  Biso   1.000  H
  H640     1.0000 0.04639  0.28169  0.14048  Biso   1.000  H
  C556     1.0000 0.04628  0.24580  0.21448  Biso   1.000  C
  H641     1.0000 0.04588  0.14469  0.22758  Biso   1.000  H
  H642     1.0000 0.05209  0.16308  0.17050  Biso   1.000  H
  C557     1.0000 0.78768  0.36833  0.84851  Biso   1.000  C
  H643     1.0000 0.73059  0.34320  0.85069  Biso   1.000  H
  H644     1.0000 0.62578  0.49910  0.73959  Biso   1.000  H
  H645     1.0000 0.61879  0.43783  0.77680  Biso   1.000  H
  H646     1.0000 0.86460  0.76711  0.22339  Biso   1.000  H
  H647     1.0000 0.84630  0.77812  0.16758  Biso   1.000  H
  C558     1.0000 0.90681  0.52422  0.06348  Biso   1.000  C
  H648     1.0000 0.87650  0.61911  0.05570  Biso   1.000  H
  H649     1.0000 0.84619  0.98000  0.75419  Biso   1.000  H
  H650     1.0000 0.88430  0.99950  0.78761  Biso   1.000  H
  C559     1.0000 0.84108  0.28852  0.85301  Biso   1.000  C
  H651     1.0000 0.88369  0.21163  0.85769  Biso   1.000  H
  C560     1.0000 0.93939  0.41949  0.08201  Biso   1.000  C
  H652     1.0000 0.93949  0.36843  0.14939  Biso   1.000  H
  H653     1.0000 0.07428  0.25138  0.22148  Biso   1.000  H
  H654     1.0000 0.03310  0.25771  0.24510  Biso   1.000  H
  C561     1.0000 0.81430  0.42120  0.84631  Biso   1.000  C
  C562     1.0000 0.80188  0.30189  0.85301  Biso   1.000  C
  C563     1.0000 0.91649  0.47351  0.09579  Biso   1.000  C
  C564     1.0000 0.91980  0.52272  0.01389  Biso   1.000  C
  C565     1.0000 0.86738  0.34199  0.85192  Biso   1.000  C
  C566     1.0000 0.95179  0.41793  0.03331  Biso   1.000  C
  C567     1.0000 0.85329  0.40868  0.84672  Biso   1.000  C
  H655     1.0000 0.80528  0.46633  0.84451  Biso   1.000  H
  H656     1.0000 0.78429  0.26581  0.85600  Biso   1.000  H
  H657     1.0000 0.90749  0.47472  0.12861  Biso   1.000  H
  H658     1.0000 0.91309  0.55820  0.99132  Biso   1.000  H
  C568     1.0000 0.94179  0.47090  0.99899  Biso   1.000  C
  H659     1.0000 0.89438  0.33370  0.85462  Biso   1.000  H
  H660     1.0000 0.96689  0.38129  0.02291  Biso   1.000  H
  C569     1.0000 0.88080  0.46472  0.84241  Biso   1.000  C
  C570     1.0000 0.95699  0.46859  0.94879  Biso   1.000  C
  N95      1.0000 0.91580  0.45492  0.83609  Biso   1.000  N
  H661     1.0000 0.87170  0.50960  0.84451  Biso   1.000  H
  N96      1.0000 0.95640  0.52030  0.92102  Biso   1.000  N
  H662     1.0000 0.96729  0.42773  0.93712  Biso   1.000  H
  C571     1.0000 0.94109  0.51412  0.83070  Biso   1.000  C
  C572     1.0000 0.97290  0.51181  0.87270  Biso   1.000  C
  C573     1.0000 0.95860  0.50859  0.78039  Biso   1.000  C
  H663     1.0000 0.92589  0.55659  0.83261  Biso   1.000  H
  H664     1.0000 0.98740  0.46839  0.87172  Biso   1.000  H
  C574     1.0000 0.00058  0.57252  0.86469  Biso   1.000  C
  C575     1.0000 0.98648  0.56749  0.77189  Biso   1.000  C
  H665     1.0000 0.93780  0.50859  0.75340  Biso   1.000  H
  H666     1.0000 0.97269  0.46562  0.77871  Biso   1.000  H
  H667     1.0000 0.98609  0.61514  0.86659  Biso   1.000  H
  H668     1.0000 0.02139  0.57272  0.89160  Biso   1.000  H
  C576     1.0000 0.01789  0.56770  0.81471  Biso   1.000  C
  H669     1.0000 0.99828  0.56202  0.73940  Biso   1.000  H
  H670     1.0000 0.97229  0.61061  0.77129  Biso   1.000  H
  H671     1.0000 0.03329  0.52603  0.81329  Biso   1.000  H
  H672     1.0000 0.03540  0.60629  0.81052  Biso   1.000  H
