data_image0
_cell_length_a       23.688
_cell_length_b       23.688
_cell_length_c       13.353
_cell_angle_alpha    90
_cell_angle_beta     90
_cell_angle_gamma    90

_symmetry_space_group_name_H-M    "P 1"
_symmetry_int_tables_number       1

loop_
  _symmetry_equiv_pos_as_xyz
  'x, y, z'

loop_
  _atom_site_label
  _atom_site_occupancy
  _atom_site_fract_x
  _atom_site_fract_y
  _atom_site_fract_z
  _atom_site_thermal_displace_type
  _atom_site_B_iso_or_equiv
  _atom_site_type_symbol
  O1       1.0000 0.49726  0.43870  0.42208  Biso   1.000  O
  C1       1.0000 0.53090  0.42722  0.34352  Biso   1.000  C
  H1       1.0000 0.49721  0.41240  0.46604  Biso   1.000  H
  C2       1.0000 0.56011  0.37732  0.32749  Biso   1.000  C
  C3       1.0000 0.53711  0.46787  0.26870  Biso   1.000  C
  O2       1.0000 0.55648  0.33502  0.40216  Biso   1.000  O
  C4       1.0000 0.59359  0.36829  0.24519  Biso   1.000  C
  O3       1.0000 0.51123  0.52102  0.28376  Biso   1.000  O
  C5       1.0000 0.56966  0.45964  0.18520  Biso   1.000  C
  C6       1.0000 0.51309  0.29813  0.39459  Biso   1.000  C
  C7       1.0000 0.59933  0.40911  0.17120  Biso   1.000  C
  H2       1.0000 0.61318  0.33350  0.23867  Biso   1.000  H
  C8       1.0000 0.45512  0.52461  0.26968  Biso   1.000  C
  H3       1.0000 0.57210  0.48860  0.13607  Biso   1.000  H
  N1       1.0000 0.47889  0.30167  0.31701  Biso   1.000  N
  N2       1.0000 0.51034  0.26216  0.47210  Biso   1.000  N
  C9       1.0000 0.63543  0.39986  0.07833  Biso   1.000  C
  N3       1.0000 0.42828  0.48138  0.22834  Biso   1.000  N
  N4       1.0000 0.43317  0.57417  0.29664  Biso   1.000  N
  C10      1.0000 0.43955  0.26195  0.31851  Biso   1.000  C
  C11      1.0000 0.46948  0.22332  0.46319  Biso   1.000  C
  C12      1.0000 0.66021  0.34119  0.07092  Biso   1.000  C
  C13      1.0000 0.68009  0.44449  0.06920  Biso   1.000  C
  C14      1.0000 0.69778  0.38880  0.12192  Biso   1.000  C
  C15      1.0000 0.61778  0.34591  0.02704  Biso   1.000  C
  C16      1.0000 0.64079  0.44909  0.00809  Biso   1.000  C
  C17      1.0000 0.59410  0.40708  0.98517  Biso   1.000  C
  C18      1.0000 0.37369  0.49092  0.21838  Biso   1.000  C
  C19      1.0000 0.37711  0.57844  0.28203  Biso   1.000  C
  O4       1.0000 0.40062  0.26085  0.24616  Biso   1.000  O
  N5       1.0000 0.43355  0.22041  0.38538  Biso   1.000  N
  C20      1.0000 0.46201  0.18051  0.54722  Biso   1.000  C
  H4       1.0000 0.68368  0.33371  0.12993  Biso   1.000  H
  H5       1.0000 0.68338  0.33840  0.01033  Biso   1.000  H
  H6       1.0000 0.62960  0.31341  0.06763  Biso   1.000  H
  H7       1.0000 0.61808  0.31489  0.07556  Biso   1.000  H
  H8       1.0000 0.70740  0.44031  0.12357  Biso   1.000  H
  H9       1.0000 0.66249  0.48189  0.07332  Biso   1.000  H
  H10      1.0000 0.69938  0.44060  0.00472  Biso   1.000  H
  H11      1.0000 0.65628  0.48159  0.04418  Biso   1.000  H
  H12      1.0000 0.69761  0.35448  0.16303  Biso   1.000  H
  H13      1.0000 0.70947  0.42101  0.16303  Biso   1.000  H
  H14      1.0000 0.72438  0.38399  0.06620  Biso   1.000  H
  H15      1.0000 0.64429  0.33751  0.97274  Biso   1.000  H
  H16      1.0000 0.57970  0.35039  0.99963  Biso   1.000  H
  H17      1.0000 0.60339  0.45888  0.98150  Biso   1.000  H
  H18      1.0000 0.66599  0.43900  0.95267  Biso   1.000  H
  H19      1.0000 0.56370  0.37918  0.98952  Biso   1.000  H
  H20      1.0000 0.61521  0.40138  0.92294  Biso   1.000  H
  H21      1.0000 0.57789  0.44520  0.98577  Biso   1.000  H
  O5       1.0000 0.34110  0.45095  0.17599  Biso   1.000  O
  N6       1.0000 0.34482  0.53728  0.24429  Biso   1.000  N
  C21      1.0000 0.34862  0.63370  0.31139  Biso   1.000  C
  C22      1.0000 0.39691  0.30708  0.18048  Biso   1.000  C
  C23      1.0000 0.47446  0.12158  0.50453  Biso   1.000  C
  C24      1.0000 0.40029  0.18305  0.58159  Biso   1.000  C
  C25      1.0000 0.50122  0.19250  0.63424  Biso   1.000  C
  C26      1.0000 0.36694  0.39948  0.14633  Biso   1.000  C
  C27      1.0000 0.34047  0.63289  0.42522  Biso   1.000  C
  C28      1.0000 0.38555  0.68376  0.28151  Biso   1.000  C
  C29      1.0000 0.29120  0.63906  0.26092  Biso   1.000  C
  C30      1.0000 0.37572  0.35761  0.21718  Biso   1.000  C
  C31      1.0000 0.40852  0.29791  0.08103  Biso   1.000  C
  H22      1.0000 0.51389  0.11981  0.48259  Biso   1.000  H
  H23      1.0000 0.44959  0.11440  0.44724  Biso   1.000  H
  H24      1.0000 0.46779  0.09309  0.55628  Biso   1.000  H
  H25      1.0000 0.39180  0.22100  0.60683  Biso   1.000  H
  H26      1.0000 0.39408  0.15531  0.63499  Biso   1.000  H
  H27      1.0000 0.37551  0.17439  0.52490  Biso   1.000  H
  H28      1.0000 0.54048  0.19098  0.61110  Biso   1.000  H
  H29      1.0000 0.49540  0.16409  0.68659  Biso   1.000  H
  H30      1.0000 0.49308  0.23012  0.66127  Biso   1.000  H
  C32      1.0000 0.37758  0.39146  0.04538  Biso   1.000  C
  H31      1.0000 0.37698  0.62660  0.45787  Biso   1.000  H
  H32      1.0000 0.31438  0.60237  0.44327  Biso   1.000  H
  H33      1.0000 0.32481  0.66907  0.44709  Biso   1.000  H
  H34      1.0000 0.39298  0.68229  0.20932  Biso   1.000  H
  H35      1.0000 0.42139  0.68199  0.31798  Biso   1.000  H
  H36      1.0000 0.36601  0.71910  0.29784  Biso   1.000  H
  H37      1.0000 0.29610  0.63880  0.18797  Biso   1.000  H
  H38      1.0000 0.27330  0.67448  0.28129  Biso   1.000  H
  H39      1.0000 0.26718  0.60719  0.28069  Biso   1.000  H
  O6       1.0000 0.36673  0.36297  0.31708  Biso   1.000  O
  C33      1.0000 0.39898  0.34030  0.01004  Biso   1.000  C
  H40      1.0000 0.42321  0.26250  0.06021  Biso   1.000  H
  H41      1.0000 0.37019  0.42118  0.99948  Biso   1.000  H
  H42      1.0000 0.33878  0.38589  0.32899  Biso   1.000  H
  C34      1.0000 0.41071  0.32958  0.89912  Biso   1.000  C
  C35      1.0000 0.45660  0.28538  0.88594  Biso   1.000  C
  C36      1.0000 0.42730  0.38370  0.84460  Biso   1.000  C
  C37      1.0000 0.35550  0.30750  0.85112  Biso   1.000  C
  C38      1.0000 0.47378  0.31860  0.88400  Biso   1.000  C
  C39      1.0000 0.39341  0.37981  0.83292  Biso   1.000  C
  C40      1.0000 0.37728  0.27761  0.86467  Biso   1.000  C
  H43      1.0000 0.48970  0.29589  0.92571  Biso   1.000  H
  H44      1.0000 0.46720  0.28310  0.81510  Biso   1.000  H
  H45      1.0000 0.44250  0.24861  0.90841  Biso   1.000  H
  H46      1.0000 0.48058  0.30640  0.81487  Biso   1.000  H
  H47      1.0000 0.48641  0.28901  0.93028  Biso   1.000  H
  H48      1.0000 0.46230  0.39860  0.87344  Biso   1.000  H
  H49      1.0000 0.39708  0.41169  0.85194  Biso   1.000  H
  H50      1.0000 0.43309  0.37551  0.77338  Biso   1.000  H
  H51      1.0000 0.41278  0.41388  0.85614  Biso   1.000  H
  H52      1.0000 0.40400  0.37209  0.76327  Biso   1.000  H
  H53      1.0000 0.34211  0.27440  0.88834  Biso   1.000  H
  H54      1.0000 0.36272  0.29690  0.78132  Biso   1.000  H
  H55      1.0000 0.32671  0.33717  0.85322  Biso   1.000  H
  H56      1.0000 0.33680  0.28470  0.87314  Biso   1.000  H
  H57      1.0000 0.49498  0.35339  0.89710  Biso   1.000  H
  H58      1.0000 0.35250  0.38530  0.83719  Biso   1.000  H
  H59      1.0000 0.38830  0.24489  0.90511  Biso   1.000  H
  H60      1.0000 0.38551  0.27009  0.79398  Biso   1.000  H
  O7       1.0000 0.50274  0.56130  0.57800  Biso   1.000  O
  C41      1.0000 0.46910  0.57278  0.65648  Biso   1.000  C
  H61      1.0000 0.50279  0.58760  0.53404  Biso   1.000  H
  C42      1.0000 0.46289  0.53208  0.73130  Biso   1.000  C
  C43      1.0000 0.43984  0.62268  0.67251  Biso   1.000  C
  O8       1.0000 0.48877  0.47893  0.71624  Biso   1.000  O
  C44      1.0000 0.43034  0.54036  0.81480  Biso   1.000  C
  O9       1.0000 0.44347  0.66498  0.59784  Biso   1.000  O
  C45      1.0000 0.40641  0.63171  0.75481  Biso   1.000  C
  C46      1.0000 0.54488  0.47535  0.73032  Biso   1.000  C
  H62      1.0000 0.42790  0.51140  0.86393  Biso   1.000  H
  C47      1.0000 0.40067  0.59085  0.82880  Biso   1.000  C
  C48      1.0000 0.48691  0.70183  0.60541  Biso   1.000  C
  H63      1.0000 0.38678  0.66650  0.76133  Biso   1.000  H
  N7       1.0000 0.57168  0.51857  0.77166  Biso   1.000  N
  N8       1.0000 0.56683  0.42583  0.70336  Biso   1.000  N
  C49      1.0000 0.36457  0.60009  0.92174  Biso   1.000  C
  N9       1.0000 0.52111  0.69833  0.68299  Biso   1.000  N
  N10      1.0000 0.48966  0.73780  0.52790  Biso   1.000  N
  C50      1.0000 0.62627  0.50908  0.78162  Biso   1.000  C
  C51      1.0000 0.62289  0.42156  0.71804  Biso   1.000  C
  C52      1.0000 0.33979  0.65877  0.92908  Biso   1.000  C
  C53      1.0000 0.31991  0.55551  0.93080  Biso   1.000  C
  C54      1.0000 0.30218  0.61120  0.87808  Biso   1.000  C
  C55      1.0000 0.38218  0.65409  0.97304  Biso   1.000  C
  C56      1.0000 0.35921  0.55091  0.99191  Biso   1.000  C
  C57      1.0000 0.40590  0.59287  0.01483  Biso   1.000  C
  C58      1.0000 0.56041  0.73805  0.68149  Biso   1.000  C
  C59      1.0000 0.53048  0.77668  0.53681  Biso   1.000  C
  N11      1.0000 0.65518  0.46272  0.75571  Biso   1.000  N
  O10      1.0000 0.65890  0.54905  0.82401  Biso   1.000  O
  C60      1.0000 0.65138  0.36630  0.68861  Biso   1.000  C
  H64      1.0000 0.31628  0.66629  0.87014  Biso   1.000  H
  H65      1.0000 0.31662  0.66160  0.98974  Biso   1.000  H
  H66      1.0000 0.37040  0.68659  0.93237  Biso   1.000  H
  H67      1.0000 0.38188  0.68507  0.92444  Biso   1.000  H
  H68      1.0000 0.29260  0.55969  0.87643  Biso   1.000  H
  H69      1.0000 0.33751  0.51811  0.92668  Biso   1.000  H
  H70      1.0000 0.30062  0.55940  0.99528  Biso   1.000  H
  H71      1.0000 0.34368  0.51841  0.95582  Biso   1.000  H
  H72      1.0000 0.30239  0.64547  0.83704  Biso   1.000  H
  H73      1.0000 0.29048  0.57899  0.83704  Biso   1.000  H
  H74      1.0000 0.27558  0.61601  0.93380  Biso   1.000  H
  H75      1.0000 0.35571  0.66249  0.02733  Biso   1.000  H
  H76      1.0000 0.42030  0.64961  0.00037  Biso   1.000  H
  H77      1.0000 0.39661  0.54108  0.01850  Biso   1.000  H
  H78      1.0000 0.33401  0.56100  0.04733  Biso   1.000  H
  H79      1.0000 0.43630  0.62078  0.01048  Biso   1.000  H
  H80      1.0000 0.38479  0.59857  0.07714  Biso   1.000  H
  H81      1.0000 0.42211  0.55480  0.01423  Biso   1.000  H
  N12      1.0000 0.56645  0.77955  0.61462  Biso   1.000  N
  O11      1.0000 0.59933  0.73915  0.75391  Biso   1.000  O
  C61      1.0000 0.53795  0.81949  0.45278  Biso   1.000  C
  C62      1.0000 0.63302  0.60047  0.85367  Biso   1.000  C
  C63      1.0000 0.65949  0.36711  0.57478  Biso   1.000  C
  C64      1.0000 0.61440  0.31624  0.71849  Biso   1.000  C
  C65      1.0000 0.70880  0.36094  0.73908  Biso   1.000  C
  C66      1.0000 0.60309  0.69288  0.81952  Biso   1.000  C
  C67      1.0000 0.52554  0.87842  0.49547  Biso   1.000  C
  C68      1.0000 0.59971  0.81695  0.41841  Biso   1.000  C
  C69      1.0000 0.49878  0.80750  0.36584  Biso   1.000  C
  C70      1.0000 0.62424  0.64239  0.78282  Biso   1.000  C
  C71      1.0000 0.62242  0.60854  0.95462  Biso   1.000  C
  H82      1.0000 0.62297  0.37340  0.54213  Biso   1.000  H
  H83      1.0000 0.68558  0.39759  0.55673  Biso   1.000  H
  H84      1.0000 0.67519  0.33088  0.55291  Biso   1.000  H
  H85      1.0000 0.60697  0.31771  0.79068  Biso   1.000  H
  H86      1.0000 0.57861  0.31801  0.68202  Biso   1.000  H
  H87      1.0000 0.63399  0.28090  0.70224  Biso   1.000  H
  H88      1.0000 0.70390  0.36120  0.81203  Biso   1.000  H
  H89      1.0000 0.72670  0.32548  0.71871  Biso   1.000  H
  H90      1.0000 0.73278  0.39281  0.71931  Biso   1.000  H
  C72      1.0000 0.59144  0.70204  0.91897  Biso   1.000  C
  H91      1.0000 0.48611  0.88019  0.51741  Biso   1.000  H
  H92      1.0000 0.55041  0.88560  0.55283  Biso   1.000  H
  H93      1.0000 0.53221  0.90687  0.44372  Biso   1.000  H
  H94      1.0000 0.60820  0.77900  0.39317  Biso   1.000  H
  H95      1.0000 0.60588  0.84469  0.36501  Biso   1.000  H
  H96      1.0000 0.62449  0.82561  0.47510  Biso   1.000  H
  H97      1.0000 0.45947  0.80898  0.38890  Biso   1.000  H
  H98      1.0000 0.50460  0.83591  0.31341  Biso   1.000  H
  H99      1.0000 0.50688  0.76988  0.33873  Biso   1.000  H
  O12      1.0000 0.63327  0.63703  0.68292  Biso   1.000  O
  C73      1.0000 0.60102  0.65970  0.99004  Biso   1.000  C
  H100     1.0000 0.62981  0.57877  0.00052  Biso   1.000  H
  H101     1.0000 0.57679  0.73750  0.93979  Biso   1.000  H
  H102     1.0000 0.66118  0.61411  0.67101  Biso   1.000  H
  C74      1.0000 0.58929  0.67042  0.10088  Biso   1.000  C
  C75      1.0000 0.54340  0.71458  0.11413  Biso   1.000  C
  C76      1.0000 0.57270  0.61630  0.15540  Biso   1.000  C
  C77      1.0000 0.64450  0.69250  0.14888  Biso   1.000  C
  C78      1.0000 0.52617  0.68140  0.11600  Biso   1.000  C
  C79      1.0000 0.60659  0.62019  0.16708  Biso   1.000  C
  C80      1.0000 0.62268  0.72239  0.13533  Biso   1.000  C
  H103     1.0000 0.51030  0.70411  0.07429  Biso   1.000  H
  H104     1.0000 0.53280  0.71690  0.18490  Biso   1.000  H
  H105     1.0000 0.55750  0.75139  0.09159  Biso   1.000  H
  H106     1.0000 0.51938  0.69360  0.18513  Biso   1.000  H
  H107     1.0000 0.51359  0.71099  0.06972  Biso   1.000  H
  H108     1.0000 0.53770  0.60140  0.12664  Biso   1.000  H
  H109     1.0000 0.60288  0.58827  0.14813  Biso   1.000  H
  H110     1.0000 0.56691  0.62449  0.22662  Biso   1.000  H
  H111     1.0000 0.58717  0.58608  0.14394  Biso   1.000  H
  H112     1.0000 0.59600  0.62791  0.23673  Biso   1.000  H
  H113     1.0000 0.65789  0.72560  0.11174  Biso   1.000  H
  H114     1.0000 0.63728  0.70310  0.21868  Biso   1.000  H
  H115     1.0000 0.67329  0.66278  0.14678  Biso   1.000  H
  H116     1.0000 0.66320  0.71530  0.12694  Biso   1.000  H
  H117     1.0000 0.50498  0.64657  0.10290  Biso   1.000  H
  H118     1.0000 0.64750  0.61470  0.16281  Biso   1.000  H
  H119     1.0000 0.61170  0.75511  0.09489  Biso   1.000  H
  H120     1.0000 0.61449  0.72991  0.20602  Biso   1.000  H
  C81      1.0000 0.62158  0.52554  0.49547  Biso   1.000  C
  C82      1.0000 0.68051  0.53795  0.45278  Biso   1.000  C
  H121     1.0000 0.61981  0.48611  0.51741  Biso   1.000  H
  H122     1.0000 0.61440  0.55041  0.55283  Biso   1.000  H
  H123     1.0000 0.59309  0.53221  0.44372  Biso   1.000  H
  C83      1.0000 0.72332  0.53048  0.53681  Biso   1.000  C
  C84      1.0000 0.68305  0.59971  0.41841  Biso   1.000  C
  C85      1.0000 0.69246  0.49878  0.36584  Biso   1.000  C
  N13      1.0000 0.72041  0.56645  0.61462  Biso   1.000  N
  N14      1.0000 0.76216  0.48966  0.52790  Biso   1.000  N
  H124     1.0000 0.72100  0.60820  0.39317  Biso   1.000  H
  H125     1.0000 0.65531  0.60588  0.36501  Biso   1.000  H
  H126     1.0000 0.67439  0.62449  0.47510  Biso   1.000  H
  H127     1.0000 0.69098  0.45947  0.38890  Biso   1.000  H
  H128     1.0000 0.66409  0.50460  0.31341  Biso   1.000  H
  H129     1.0000 0.73007  0.50688  0.33873  Biso   1.000  H
  C86      1.0000 0.76195  0.56041  0.68149  Biso   1.000  C
  C87      1.0000 0.79813  0.48691  0.60541  Biso   1.000  C
  N15      1.0000 0.80167  0.52111  0.68299  Biso   1.000  N
  O13      1.0000 0.76085  0.59933  0.75391  Biso   1.000  O
  O14      1.0000 0.83502  0.44347  0.59784  Biso   1.000  O
  C88      1.0000 0.80708  0.60309  0.81952  Biso   1.000  C
  C89      1.0000 0.87732  0.43984  0.67251  Biso   1.000  C
  C90      1.0000 0.85761  0.62424  0.78282  Biso   1.000  C
  C91      1.0000 0.79791  0.59144  0.91897  Biso   1.000  C
  C92      1.0000 0.92722  0.46910  0.65648  Biso   1.000  C
  C93      1.0000 0.86829  0.40641  0.75481  Biso   1.000  C
  O15      1.0000 0.86297  0.63327  0.68292  Biso   1.000  O
  C94      1.0000 0.89948  0.63302  0.85367  Biso   1.000  C
  C95      1.0000 0.84030  0.60102  0.99004  Biso   1.000  C
  H130     1.0000 0.76250  0.57679  0.93979  Biso   1.000  H
  O16      1.0000 0.93870  0.50274  0.57800  Biso   1.000  O
  C96      1.0000 0.96787  0.46289  0.73130  Biso   1.000  C
  C97      1.0000 0.90911  0.40067  0.82880  Biso   1.000  C
  H131     1.0000 0.83350  0.38678  0.76133  Biso   1.000  H
  H132     1.0000 0.88589  0.66118  0.67101  Biso   1.000  H
  O17      1.0000 0.95095  0.65890  0.82401  Biso   1.000  O
  C98      1.0000 0.89146  0.62242  0.95462  Biso   1.000  C
  C99      1.0000 0.82958  0.58929  0.10088  Biso   1.000  C
  H133     1.0000 0.91240  0.50279  0.53404  Biso   1.000  H
  C100     1.0000 0.95964  0.43034  0.81480  Biso   1.000  C
  O18      1.0000 0.02107  0.48877  0.71624  Biso   1.000  O
  C101     1.0000 0.89986  0.36457  0.92174  Biso   1.000  C
  C102     1.0000 0.99088  0.62627  0.78162  Biso   1.000  C
  H134     1.0000 0.92118  0.62981  0.00052  Biso   1.000  H
  C103     1.0000 0.78538  0.54340  0.11413  Biso   1.000  C
  C104     1.0000 0.88370  0.57270  0.15540  Biso   1.000  C
  C105     1.0000 0.80750  0.64450  0.14888  Biso   1.000  C
  C106     1.0000 0.81860  0.52617  0.11600  Biso   1.000  C
  C107     1.0000 0.87977  0.60659  0.16708  Biso   1.000  C
  C108     1.0000 0.77761  0.62268  0.13533  Biso   1.000  C
  H135     1.0000 0.98860  0.42790  0.86393  Biso   1.000  H
  C109     1.0000 0.02461  0.54488  0.73032  Biso   1.000  C
  C110     1.0000 0.84119  0.33979  0.92908  Biso   1.000  C
  C111     1.0000 0.94449  0.31991  0.93080  Biso   1.000  C
  C112     1.0000 0.88880  0.30218  0.87808  Biso   1.000  C
  C113     1.0000 0.84587  0.38218  0.97304  Biso   1.000  C
  C114     1.0000 0.94909  0.35921  0.99191  Biso   1.000  C
  C115     1.0000 0.90708  0.40590  0.01483  Biso   1.000  C
  N16      1.0000 0.98138  0.57168  0.77166  Biso   1.000  N
  N17      1.0000 0.03728  0.65518  0.75571  Biso   1.000  N
  H136     1.0000 0.79589  0.51030  0.07429  Biso   1.000  H
  H137     1.0000 0.78310  0.53280  0.18490  Biso   1.000  H
  H138     1.0000 0.74861  0.55750  0.09159  Biso   1.000  H
  H139     1.0000 0.80640  0.51938  0.18513  Biso   1.000  H
  H140     1.0000 0.78901  0.51359  0.06972  Biso   1.000  H
  H141     1.0000 0.89860  0.53770  0.12664  Biso   1.000  H
  H142     1.0000 0.91169  0.60288  0.14813  Biso   1.000  H
  H143     1.0000 0.87551  0.56691  0.22662  Biso   1.000  H
  H144     1.0000 0.91388  0.58717  0.14394  Biso   1.000  H
  H145     1.0000 0.87209  0.59600  0.23673  Biso   1.000  H
  H146     1.0000 0.77440  0.65789  0.11174  Biso   1.000  H
  H147     1.0000 0.79690  0.63728  0.21868  Biso   1.000  H
  H148     1.0000 0.83717  0.67329  0.14678  Biso   1.000  H
  H149     1.0000 0.78470  0.66320  0.12694  Biso   1.000  H
  H150     1.0000 0.85339  0.50498  0.10290  Biso   1.000  H
  H151     1.0000 0.88530  0.64750  0.16281  Biso   1.000  H
  H152     1.0000 0.74489  0.61170  0.09489  Biso   1.000  H
  H153     1.0000 0.77009  0.61449  0.20602  Biso   1.000  H
  N18      1.0000 0.07417  0.56683  0.70336  Biso   1.000  N
  H154     1.0000 0.83367  0.31628  0.87014  Biso   1.000  H
  H155     1.0000 0.83840  0.31662  0.98974  Biso   1.000  H
  H156     1.0000 0.81341  0.37040  0.93237  Biso   1.000  H
  H157     1.0000 0.81489  0.38188  0.92444  Biso   1.000  H
  H158     1.0000 0.94031  0.29260  0.87643  Biso   1.000  H
  H159     1.0000 0.98189  0.33751  0.92668  Biso   1.000  H
  H160     1.0000 0.94060  0.30062  0.99528  Biso   1.000  H
  H161     1.0000 0.98159  0.34368  0.95582  Biso   1.000  H
  H162     1.0000 0.85448  0.30239  0.83704  Biso   1.000  H
  H163     1.0000 0.92097  0.29048  0.83704  Biso   1.000  H
  H164     1.0000 0.88399  0.27558  0.93380  Biso   1.000  H
  H165     1.0000 0.83747  0.35571  0.02733  Biso   1.000  H
  H166     1.0000 0.85039  0.42030  0.00037  Biso   1.000  H
  H167     1.0000 0.95888  0.39661  0.01850  Biso   1.000  H
  H168     1.0000 0.93900  0.33401  0.04733  Biso   1.000  H
  H169     1.0000 0.87918  0.43630  0.01048  Biso   1.000  H
  H170     1.0000 0.90138  0.38479  0.07714  Biso   1.000  H
  H171     1.0000 0.94520  0.42211  0.01423  Biso   1.000  H
  C116     1.0000 0.07844  0.62289  0.71804  Biso   1.000  C
  C117     1.0000 0.13370  0.65138  0.68861  Biso   1.000  C
  C118     1.0000 0.13289  0.65949  0.57478  Biso   1.000  C
  C119     1.0000 0.18376  0.61440  0.71849  Biso   1.000  C
  C120     1.0000 0.13906  0.70880  0.73908  Biso   1.000  C
  H172     1.0000 0.12660  0.62297  0.54213  Biso   1.000  H
  H173     1.0000 0.10241  0.68558  0.55673  Biso   1.000  H
  H174     1.0000 0.16912  0.67519  0.55291  Biso   1.000  H
  H175     1.0000 0.18229  0.60697  0.79068  Biso   1.000  H
  H176     1.0000 0.18199  0.57861  0.68202  Biso   1.000  H
  H177     1.0000 0.21910  0.63399  0.70224  Biso   1.000  H
  H178     1.0000 0.13880  0.70390  0.81203  Biso   1.000  H
  H179     1.0000 0.17452  0.72670  0.71871  Biso   1.000  H
  H180     1.0000 0.10719  0.73278  0.71931  Biso   1.000  H
  C121     1.0000 0.37842  0.47446  0.50453  Biso   1.000  C
  C122     1.0000 0.31949  0.46201  0.54722  Biso   1.000  C
  H181     1.0000 0.38019  0.51389  0.48259  Biso   1.000  H
  H182     1.0000 0.38560  0.44959  0.44724  Biso   1.000  H
  H183     1.0000 0.40691  0.46779  0.55628  Biso   1.000  H
  C123     1.0000 0.27668  0.46948  0.46319  Biso   1.000  C
  C124     1.0000 0.31695  0.40029  0.58159  Biso   1.000  C
  C125     1.0000 0.30750  0.50122  0.63424  Biso   1.000  C
  N19      1.0000 0.27955  0.43355  0.38538  Biso   1.000  N
  N20      1.0000 0.23780  0.51034  0.47210  Biso   1.000  N
  H184     1.0000 0.27900  0.39180  0.60683  Biso   1.000  H
  H185     1.0000 0.34469  0.39408  0.63499  Biso   1.000  H
  H186     1.0000 0.32561  0.37551  0.52490  Biso   1.000  H
  H187     1.0000 0.30898  0.54048  0.61110  Biso   1.000  H
  H188     1.0000 0.33591  0.49540  0.68659  Biso   1.000  H
  H189     1.0000 0.26988  0.49308  0.66127  Biso   1.000  H
  C126     1.0000 0.23805  0.43955  0.31851  Biso   1.000  C
  C127     1.0000 0.20183  0.51309  0.39459  Biso   1.000  C
  O19      1.0000 0.23915  0.40062  0.24616  Biso   1.000  O
  N21      1.0000 0.19833  0.47889  0.31701  Biso   1.000  N
  O20      1.0000 0.16498  0.55648  0.40216  Biso   1.000  O
  C128     1.0000 0.19292  0.39691  0.18048  Biso   1.000  C
  C129     1.0000 0.12268  0.56011  0.32749  Biso   1.000  C
  C130     1.0000 0.14239  0.37572  0.21718  Biso   1.000  C
  C131     1.0000 0.20209  0.40852  0.08103  Biso   1.000  C
  C132     1.0000 0.07278  0.53090  0.34352  Biso   1.000  C
  C133     1.0000 0.13171  0.59359  0.24519  Biso   1.000  C
  O21      1.0000 0.13703  0.36673  0.31708  Biso   1.000  O
  C134     1.0000 0.10052  0.36694  0.14633  Biso   1.000  C
  C135     1.0000 0.15970  0.39898  0.01004  Biso   1.000  C
  H190     1.0000 0.23750  0.42321  0.06021  Biso   1.000  H
  O22      1.0000 0.06130  0.49726  0.42208  Biso   1.000  O
  C136     1.0000 0.03208  0.53711  0.26870  Biso   1.000  C
  C137     1.0000 0.09089  0.59933  0.17120  Biso   1.000  C
  H191     1.0000 0.16650  0.61318  0.23867  Biso   1.000  H
  H192     1.0000 0.11411  0.33878  0.32899  Biso   1.000  H
  O23      1.0000 0.04905  0.34110  0.17599  Biso   1.000  O
  C138     1.0000 0.10854  0.37758  0.04538  Biso   1.000  C
  C139     1.0000 0.17042  0.41071  0.89912  Biso   1.000  C
  H193     1.0000 0.08760  0.49721  0.46604  Biso   1.000  H
  O24      1.0000 0.97893  0.51123  0.28376  Biso   1.000  O
  C140     1.0000 0.04036  0.56966  0.18520  Biso   1.000  C
  C141     1.0000 0.10014  0.63543  0.07833  Biso   1.000  C
  C142     1.0000 0.00908  0.37369  0.21838  Biso   1.000  C
  H194     1.0000 0.07882  0.37019  0.99948  Biso   1.000  H
  C143     1.0000 0.21458  0.45660  0.88594  Biso   1.000  C
  C144     1.0000 0.11630  0.42730  0.84460  Biso   1.000  C
  C145     1.0000 0.19250  0.35550  0.85112  Biso   1.000  C
  C146     1.0000 0.18140  0.47378  0.88400  Biso   1.000  C
  C147     1.0000 0.12019  0.39341  0.83292  Biso   1.000  C
  C148     1.0000 0.22239  0.37728  0.86467  Biso   1.000  C
  C149     1.0000 0.97535  0.45512  0.26968  Biso   1.000  C
  H195     1.0000 0.01140  0.57210  0.13607  Biso   1.000  H
  C150     1.0000 0.15881  0.66021  0.07092  Biso   1.000  C
  C151     1.0000 0.05551  0.68009  0.06920  Biso   1.000  C
  C152     1.0000 0.11120  0.69778  0.12192  Biso   1.000  C
  C153     1.0000 0.15409  0.61778  0.02704  Biso   1.000  C
  C154     1.0000 0.05091  0.64079  0.00809  Biso   1.000  C
  C155     1.0000 0.09292  0.59410  0.98517  Biso   1.000  C
  N22      1.0000 0.01862  0.42828  0.22834  Biso   1.000  N
  N23      1.0000 0.96268  0.34482  0.24429  Biso   1.000  N
  H196     1.0000 0.20411  0.48970  0.92571  Biso   1.000  H
  H197     1.0000 0.21690  0.46720  0.81510  Biso   1.000  H
  H198     1.0000 0.25139  0.44250  0.90841  Biso   1.000  H
  H199     1.0000 0.19360  0.48058  0.81487  Biso   1.000  H
  H200     1.0000 0.21099  0.48641  0.93028  Biso   1.000  H
  H201     1.0000 0.10140  0.46230  0.87344  Biso   1.000  H
  H202     1.0000 0.08831  0.39708  0.85194  Biso   1.000  H
  H203     1.0000 0.12449  0.43309  0.77338  Biso   1.000  H
  H204     1.0000 0.08612  0.41278  0.85614  Biso   1.000  H
  H205     1.0000 0.12791  0.40400  0.76327  Biso   1.000  H
  H206     1.0000 0.22560  0.34211  0.88834  Biso   1.000  H
  H207     1.0000 0.20310  0.36272  0.78132  Biso   1.000  H
  H208     1.0000 0.16278  0.32671  0.85322  Biso   1.000  H
  H209     1.0000 0.21530  0.33680  0.87314  Biso   1.000  H
  H210     1.0000 0.14661  0.49498  0.89710  Biso   1.000  H
  H211     1.0000 0.11470  0.35250  0.83719  Biso   1.000  H
  H212     1.0000 0.25511  0.38830  0.90511  Biso   1.000  H
  H213     1.0000 0.22991  0.38551  0.79398  Biso   1.000  H
  N24      1.0000 0.92583  0.43317  0.29664  Biso   1.000  N
  H214     1.0000 0.16629  0.68368  0.12993  Biso   1.000  H
  H215     1.0000 0.16160  0.68338  0.01033  Biso   1.000  H
  H216     1.0000 0.18659  0.62960  0.06763  Biso   1.000  H
  H217     1.0000 0.18511  0.61808  0.07556  Biso   1.000  H
  H218     1.0000 0.05969  0.70740  0.12357  Biso   1.000  H
  H219     1.0000 0.01811  0.66249  0.07332  Biso   1.000  H
  H220     1.0000 0.05940  0.69938  0.00472  Biso   1.000  H
  H221     1.0000 0.01841  0.65628  0.04418  Biso   1.000  H
  H222     1.0000 0.14552  0.69761  0.16303  Biso   1.000  H
  H223     1.0000 0.07899  0.70947  0.16303  Biso   1.000  H
  H224     1.0000 0.11601  0.72438  0.06620  Biso   1.000  H
  H225     1.0000 0.16249  0.64429  0.97274  Biso   1.000  H
  H226     1.0000 0.14961  0.57970  0.99963  Biso   1.000  H
  H227     1.0000 0.04112  0.60339  0.98150  Biso   1.000  H
  H228     1.0000 0.06100  0.66599  0.95267  Biso   1.000  H
  H229     1.0000 0.12078  0.56370  0.98952  Biso   1.000  H
  H230     1.0000 0.09862  0.61521  0.92294  Biso   1.000  H
  H231     1.0000 0.05480  0.57789  0.98577  Biso   1.000  H
  C156     1.0000 0.92156  0.37711  0.28203  Biso   1.000  C
  C157     1.0000 0.86630  0.34862  0.31139  Biso   1.000  C
  C158     1.0000 0.86711  0.34047  0.42522  Biso   1.000  C
  C159     1.0000 0.81624  0.38555  0.28151  Biso   1.000  C
  C160     1.0000 0.86094  0.29120  0.26092  Biso   1.000  C
  H232     1.0000 0.87340  0.37698  0.45787  Biso   1.000  H
  H233     1.0000 0.89759  0.31438  0.44327  Biso   1.000  H
  H234     1.0000 0.83088  0.32481  0.44709  Biso   1.000  H
  H235     1.0000 0.81767  0.39298  0.20932  Biso   1.000  H
  H236     1.0000 0.81801  0.42139  0.31798  Biso   1.000  H
  H237     1.0000 0.78090  0.36601  0.29784  Biso   1.000  H
  H238     1.0000 0.86120  0.29610  0.18797  Biso   1.000  H
  H239     1.0000 0.82548  0.27330  0.28129  Biso   1.000  H
  H240     1.0000 0.89277  0.26718  0.28069  Biso   1.000  H
  C161     1.0000 0.63906  0.20880  0.26092  Biso   1.000  C
  C162     1.0000 0.63370  0.15138  0.31139  Biso   1.000  C
  H241     1.0000 0.63880  0.20390  0.18797  Biso   1.000  H
  H242     1.0000 0.67448  0.22670  0.28129  Biso   1.000  H
  H243     1.0000 0.60719  0.23278  0.28069  Biso   1.000  H
  C163     1.0000 0.57844  0.12289  0.28203  Biso   1.000  C
  C164     1.0000 0.63289  0.15949  0.42522  Biso   1.000  C
  C165     1.0000 0.68376  0.11445  0.28151  Biso   1.000  C
  N25      1.0000 0.53728  0.15518  0.24429  Biso   1.000  N
  N26      1.0000 0.57417  0.06683  0.29664  Biso   1.000  N
  H244     1.0000 0.62660  0.12302  0.45787  Biso   1.000  H
  H245     1.0000 0.60237  0.18558  0.44327  Biso   1.000  H
  H246     1.0000 0.66907  0.17519  0.44709  Biso   1.000  H
  H247     1.0000 0.68229  0.10702  0.20932  Biso   1.000  H
  H248     1.0000 0.68199  0.07861  0.31798  Biso   1.000  H
  H249     1.0000 0.71910  0.13399  0.29784  Biso   1.000  H
  C166     1.0000 0.49092  0.12631  0.21838  Biso   1.000  C
  C167     1.0000 0.52461  0.04488  0.26968  Biso   1.000  C
  O25      1.0000 0.45095  0.15890  0.17599  Biso   1.000  O
  N27      1.0000 0.48138  0.07172  0.22834  Biso   1.000  N
  O26      1.0000 0.52102  0.98877  0.28376  Biso   1.000  O
  C168     1.0000 0.39948  0.13302  0.14633  Biso   1.000  C
  C169     1.0000 0.46787  0.96289  0.26870  Biso   1.000  C
  C170     1.0000 0.35761  0.12424  0.21718  Biso   1.000  C
  C171     1.0000 0.39146  0.12242  0.04538  Biso   1.000  C
  C172     1.0000 0.42722  0.96910  0.34352  Biso   1.000  C
  C173     1.0000 0.45964  0.93034  0.18520  Biso   1.000  C
  C174     1.0000 0.30708  0.10309  0.18048  Biso   1.000  C
  O27      1.0000 0.36297  0.13327  0.31708  Biso   1.000  O
  C175     1.0000 0.34030  0.10102  0.01004  Biso   1.000  C
  H250     1.0000 0.42118  0.12981  0.99948  Biso   1.000  H
  C176     1.0000 0.37732  0.93984  0.32749  Biso   1.000  C
  O28      1.0000 0.43870  0.00274  0.42208  Biso   1.000  O
  C177     1.0000 0.40911  0.90067  0.17120  Biso   1.000  C
  H251     1.0000 0.48860  0.92790  0.13607  Biso   1.000  H
  O29      1.0000 0.26085  0.09933  0.24616  Biso   1.000  O
  C178     1.0000 0.29791  0.09144  0.08103  Biso   1.000  C
  H252     1.0000 0.38589  0.16118  0.32899  Biso   1.000  H
  C179     1.0000 0.32958  0.08929  0.89912  Biso   1.000  C
  O30      1.0000 0.33502  0.94347  0.40216  Biso   1.000  O
  C180     1.0000 0.36829  0.90641  0.24519  Biso   1.000  C
  H253     1.0000 0.41240  0.00279  0.46604  Biso   1.000  H
  C181     1.0000 0.39986  0.86457  0.07833  Biso   1.000  C
  C182     1.0000 0.26195  0.06041  0.31851  Biso   1.000  C
  H254     1.0000 0.26250  0.07679  0.06021  Biso   1.000  H
  C183     1.0000 0.28538  0.04340  0.88594  Biso   1.000  C
  C184     1.0000 0.38370  0.07270  0.84460  Biso   1.000  C
  C185     1.0000 0.30750  0.14450  0.85112  Biso   1.000  C
  C186     1.0000 0.31860  0.02622  0.88400  Biso   1.000  C
  C187     1.0000 0.37981  0.10659  0.83292  Biso   1.000  C
  C188     1.0000 0.27761  0.12268  0.86467  Biso   1.000  C
  C189     1.0000 0.29813  0.98691  0.39459  Biso   1.000  C
  H255     1.0000 0.33350  0.88678  0.23867  Biso   1.000  H
  C190     1.0000 0.40708  0.90590  0.98517  Biso   1.000  C
  C191     1.0000 0.34119  0.83979  0.07092  Biso   1.000  C
  C192     1.0000 0.44449  0.81991  0.06920  Biso   1.000  C
  C193     1.0000 0.38880  0.80218  0.12192  Biso   1.000  C
  C194     1.0000 0.34591  0.88218  0.02704  Biso   1.000  C
  C195     1.0000 0.44909  0.85917  0.00809  Biso   1.000  C
  N28      1.0000 0.30167  0.02111  0.31701  Biso   1.000  N
  N29      1.0000 0.22041  0.06645  0.38538  Biso   1.000  N
  H256     1.0000 0.29589  0.01030  0.92571  Biso   1.000  H
  H257     1.0000 0.28310  0.03280  0.81510  Biso   1.000  H
  H258     1.0000 0.24861  0.05750  0.90841  Biso   1.000  H
  H259     1.0000 0.30640  0.01942  0.81487  Biso   1.000  H
  H260     1.0000 0.28901  0.01359  0.93028  Biso   1.000  H
  H261     1.0000 0.39860  0.03770  0.87344  Biso   1.000  H
  H262     1.0000 0.41169  0.10288  0.85194  Biso   1.000  H
  H263     1.0000 0.37551  0.06691  0.77338  Biso   1.000  H
  H264     1.0000 0.41388  0.08722  0.85614  Biso   1.000  H
  H265     1.0000 0.37209  0.09600  0.76327  Biso   1.000  H
  H266     1.0000 0.27440  0.15789  0.88834  Biso   1.000  H
  H267     1.0000 0.29690  0.13728  0.78132  Biso   1.000  H
  H268     1.0000 0.33717  0.17329  0.85322  Biso   1.000  H
  H269     1.0000 0.28470  0.16320  0.87314  Biso   1.000  H
  H270     1.0000 0.35339  0.00498  0.89710  Biso   1.000  H
  H271     1.0000 0.38530  0.14750  0.83719  Biso   1.000  H
  H272     1.0000 0.24489  0.11170  0.90511  Biso   1.000  H
  H273     1.0000 0.27009  0.11449  0.79398  Biso   1.000  H
  N30      1.0000 0.26216  0.98966  0.47210  Biso   1.000  N
  H274     1.0000 0.37918  0.93630  0.98952  Biso   1.000  H
  H275     1.0000 0.40138  0.88479  0.92294  Biso   1.000  H
  H276     1.0000 0.44520  0.92207  0.98577  Biso   1.000  H
  H277     1.0000 0.45888  0.89657  0.98150  Biso   1.000  H
  H278     1.0000 0.33371  0.81628  0.12993  Biso   1.000  H
  H279     1.0000 0.33840  0.81657  0.01033  Biso   1.000  H
  H280     1.0000 0.31341  0.87040  0.06763  Biso   1.000  H
  H281     1.0000 0.31489  0.88188  0.07556  Biso   1.000  H
  H282     1.0000 0.44031  0.79260  0.12357  Biso   1.000  H
  H283     1.0000 0.48189  0.83747  0.07332  Biso   1.000  H
  H284     1.0000 0.44060  0.80057  0.00472  Biso   1.000  H
  H285     1.0000 0.48159  0.84368  0.04418  Biso   1.000  H
  H286     1.0000 0.35448  0.80239  0.16303  Biso   1.000  H
  H287     1.0000 0.42101  0.79048  0.16303  Biso   1.000  H
  H288     1.0000 0.38399  0.77558  0.06620  Biso   1.000  H
  H289     1.0000 0.33751  0.85571  0.97274  Biso   1.000  H
  H290     1.0000 0.35039  0.92030  0.99963  Biso   1.000  H
  H291     1.0000 0.43900  0.83401  0.95267  Biso   1.000  H
  C196     1.0000 0.22332  0.03048  0.46319  Biso   1.000  C
  C197     1.0000 0.18051  0.03795  0.54722  Biso   1.000  C
  C198     1.0000 0.12158  0.02554  0.50453  Biso   1.000  C
  C199     1.0000 0.18305  0.09971  0.58159  Biso   1.000  C
  C200     1.0000 0.19250  0.99878  0.63424  Biso   1.000  C
  H292     1.0000 0.11440  0.05041  0.44724  Biso   1.000  H
  H293     1.0000 0.09309  0.03221  0.55628  Biso   1.000  H
  H294     1.0000 0.11981  0.98607  0.48259  Biso   1.000  H
  H295     1.0000 0.22100  0.10820  0.60683  Biso   1.000  H
  H296     1.0000 0.15531  0.10592  0.63499  Biso   1.000  H
  H297     1.0000 0.17439  0.12449  0.52490  Biso   1.000  H
  H298     1.0000 0.16409  0.00460  0.68659  Biso   1.000  H
  H299     1.0000 0.23012  0.00688  0.66127  Biso   1.000  H
  H300     1.0000 0.19098  0.95947  0.61110  Biso   1.000  H
  C201     1.0000 0.36094  0.79120  0.73908  Biso   1.000  C
  C202     1.0000 0.36630  0.84862  0.68861  Biso   1.000  C
  H301     1.0000 0.36120  0.79610  0.81203  Biso   1.000  H
  H302     1.0000 0.32548  0.77330  0.71871  Biso   1.000  H
  H303     1.0000 0.39281  0.76718  0.71931  Biso   1.000  H
  C203     1.0000 0.42156  0.87711  0.71804  Biso   1.000  C
  C204     1.0000 0.36711  0.84047  0.57478  Biso   1.000  C
  C205     1.0000 0.31624  0.88555  0.71849  Biso   1.000  C
  N31      1.0000 0.42583  0.93313  0.70336  Biso   1.000  N
  N32      1.0000 0.46272  0.84482  0.75571  Biso   1.000  N
  H304     1.0000 0.37340  0.87698  0.54213  Biso   1.000  H
  H305     1.0000 0.39759  0.81438  0.55673  Biso   1.000  H
  H306     1.0000 0.33088  0.82481  0.55291  Biso   1.000  H
  H307     1.0000 0.31771  0.89298  0.79068  Biso   1.000  H
  H308     1.0000 0.31801  0.92139  0.68202  Biso   1.000  H
  H309     1.0000 0.28090  0.86601  0.70224  Biso   1.000  H
  C206     1.0000 0.47535  0.95512  0.73032  Biso   1.000  C
  C207     1.0000 0.50908  0.87369  0.78162  Biso   1.000  C
  N33      1.0000 0.51857  0.92828  0.77166  Biso   1.000  N
  O31      1.0000 0.47893  0.01123  0.71624  Biso   1.000  O
  O32      1.0000 0.54905  0.84110  0.82401  Biso   1.000  O
  C208     1.0000 0.53208  0.03711  0.73130  Biso   1.000  C
  C209     1.0000 0.60047  0.86694  0.85367  Biso   1.000  C
  C210     1.0000 0.57278  0.03090  0.65648  Biso   1.000  C
  C211     1.0000 0.54036  0.06966  0.81480  Biso   1.000  C
  C212     1.0000 0.64239  0.87572  0.78282  Biso   1.000  C
  C213     1.0000 0.60854  0.87758  0.95462  Biso   1.000  C
  O33      1.0000 0.56130  0.99726  0.57800  Biso   1.000  O
  C214     1.0000 0.62268  0.06016  0.67251  Biso   1.000  C
  H310     1.0000 0.51140  0.07210  0.86393  Biso   1.000  H
  C215     1.0000 0.59085  0.09933  0.82880  Biso   1.000  C
  O34      1.0000 0.63703  0.86673  0.68292  Biso   1.000  O
  C216     1.0000 0.69288  0.89691  0.81952  Biso   1.000  C
  C217     1.0000 0.65970  0.89898  0.99004  Biso   1.000  C
  H311     1.0000 0.57877  0.87019  0.00052  Biso   1.000  H
  H312     1.0000 0.58760  0.99717  0.53404  Biso   1.000  H
  O35      1.0000 0.66498  0.05648  0.59784  Biso   1.000  O
  C218     1.0000 0.63171  0.09359  0.75481  Biso   1.000  C
  C219     1.0000 0.60009  0.13543  0.92174  Biso   1.000  C
  H313     1.0000 0.61411  0.83878  0.67101  Biso   1.000  H
  O36      1.0000 0.73915  0.90062  0.75391  Biso   1.000  O
  C220     1.0000 0.70204  0.90852  0.91897  Biso   1.000  C
  C221     1.0000 0.67042  0.91071  0.10088  Biso   1.000  C
  C222     1.0000 0.70183  0.01309  0.60541  Biso   1.000  C
  H314     1.0000 0.66650  0.11318  0.76133  Biso   1.000  H
  C223     1.0000 0.65877  0.16021  0.92908  Biso   1.000  C
  C224     1.0000 0.55551  0.18009  0.93080  Biso   1.000  C
  C225     1.0000 0.61120  0.19778  0.87808  Biso   1.000  C
  C226     1.0000 0.65409  0.11778  0.97304  Biso   1.000  C
  C227     1.0000 0.55091  0.14079  0.99191  Biso   1.000  C
  C228     1.0000 0.59287  0.09410  0.01483  Biso   1.000  C
  C229     1.0000 0.73805  0.93955  0.68149  Biso   1.000  C
  H315     1.0000 0.73750  0.92317  0.93979  Biso   1.000  H
  C230     1.0000 0.71458  0.95660  0.11413  Biso   1.000  C
  C231     1.0000 0.61630  0.92730  0.15540  Biso   1.000  C
  C232     1.0000 0.69250  0.85550  0.14888  Biso   1.000  C
  C233     1.0000 0.68140  0.97378  0.11600  Biso   1.000  C
  C234     1.0000 0.62019  0.89341  0.16708  Biso   1.000  C
  C235     1.0000 0.72239  0.87728  0.13533  Biso   1.000  C
  N34      1.0000 0.69833  0.97889  0.68299  Biso   1.000  N
  N35      1.0000 0.73780  0.01034  0.52790  Biso   1.000  N
  H316     1.0000 0.66629  0.18368  0.87014  Biso   1.000  H
  H317     1.0000 0.66160  0.18338  0.98974  Biso   1.000  H
  H318     1.0000 0.68659  0.12960  0.93237  Biso   1.000  H
  H319     1.0000 0.68507  0.11812  0.92444  Biso   1.000  H
  H320     1.0000 0.55969  0.20740  0.87643  Biso   1.000  H
  H321     1.0000 0.51811  0.16249  0.92668  Biso   1.000  H
  H322     1.0000 0.55940  0.19938  0.99528  Biso   1.000  H
  H323     1.0000 0.51841  0.15628  0.95582  Biso   1.000  H
  H324     1.0000 0.64547  0.19761  0.83704  Biso   1.000  H
  H325     1.0000 0.57899  0.20952  0.83704  Biso   1.000  H
  H326     1.0000 0.61601  0.22442  0.93380  Biso   1.000  H
  H327     1.0000 0.66249  0.14429  0.02733  Biso   1.000  H
  H328     1.0000 0.64961  0.07970  0.00037  Biso   1.000  H
  H329     1.0000 0.54108  0.10339  0.01850  Biso   1.000  H
  H330     1.0000 0.56100  0.16599  0.04733  Biso   1.000  H
  H331     1.0000 0.62078  0.06370  0.01048  Biso   1.000  H
  H332     1.0000 0.59857  0.11521  0.07714  Biso   1.000  H
  H333     1.0000 0.55480  0.07789  0.01423  Biso   1.000  H
  N36      1.0000 0.77955  0.93355  0.61462  Biso   1.000  N
  H334     1.0000 0.70411  0.98970  0.07429  Biso   1.000  H
  H335     1.0000 0.71690  0.96720  0.18490  Biso   1.000  H
  H336     1.0000 0.75139  0.94250  0.09159  Biso   1.000  H
  H337     1.0000 0.69360  0.98058  0.18513  Biso   1.000  H
  H338     1.0000 0.71099  0.98641  0.06972  Biso   1.000  H
  H339     1.0000 0.60140  0.96230  0.12664  Biso   1.000  H
  H340     1.0000 0.58827  0.89708  0.14813  Biso   1.000  H
  H341     1.0000 0.62449  0.93309  0.22662  Biso   1.000  H
  H342     1.0000 0.58608  0.91278  0.14394  Biso   1.000  H
  H343     1.0000 0.62791  0.90400  0.23673  Biso   1.000  H
  H344     1.0000 0.72560  0.84207  0.11174  Biso   1.000  H
  H345     1.0000 0.70310  0.86267  0.21868  Biso   1.000  H
  H346     1.0000 0.66278  0.82671  0.14678  Biso   1.000  H
  H347     1.0000 0.71530  0.83680  0.12694  Biso   1.000  H
  H348     1.0000 0.64657  0.99498  0.10290  Biso   1.000  H
  H349     1.0000 0.61470  0.85250  0.16281  Biso   1.000  H
  H350     1.0000 0.75511  0.88830  0.09489  Biso   1.000  H
  H351     1.0000 0.72991  0.88547  0.20602  Biso   1.000  H
  C236     1.0000 0.77668  0.96948  0.53681  Biso   1.000  C
  C237     1.0000 0.81949  0.96201  0.45278  Biso   1.000  C
  C238     1.0000 0.87842  0.97446  0.49547  Biso   1.000  C
  C239     1.0000 0.81695  0.90029  0.41841  Biso   1.000  C
  C240     1.0000 0.80750  0.00122  0.36584  Biso   1.000  C
  H352     1.0000 0.88560  0.94959  0.55283  Biso   1.000  H
  H353     1.0000 0.90687  0.96779  0.44372  Biso   1.000  H
  H354     1.0000 0.88019  0.01389  0.51741  Biso   1.000  H
  H355     1.0000 0.77900  0.89180  0.39317  Biso   1.000  H
  H356     1.0000 0.84469  0.89408  0.36501  Biso   1.000  H
  H357     1.0000 0.82561  0.87551  0.47510  Biso   1.000  H
  H358     1.0000 0.83591  0.99540  0.31341  Biso   1.000  H
  H359     1.0000 0.76988  0.99308  0.33873  Biso   1.000  H
  H360     1.0000 0.80898  0.04048  0.38890  Biso   1.000  H
  C241     1.0000 0.90029  0.68305  0.41841  Biso   1.000  C
  C242     1.0000 0.96201  0.68051  0.45278  Biso   1.000  C
  H361     1.0000 0.89180  0.72100  0.39317  Biso   1.000  H
  H362     1.0000 0.89408  0.65531  0.36501  Biso   1.000  H
  H363     1.0000 0.87551  0.67439  0.47510  Biso   1.000  H
  C243     1.0000 0.96948  0.72332  0.53681  Biso   1.000  C
  C244     1.0000 0.97446  0.62158  0.49547  Biso   1.000  C
  C245     1.0000 0.00122  0.69246  0.36584  Biso   1.000  C
  N37      1.0000 0.93355  0.72041  0.61462  Biso   1.000  N
  N38      1.0000 0.01034  0.76216  0.52790  Biso   1.000  N
  H364     1.0000 0.94959  0.61440  0.55283  Biso   1.000  H
  H365     1.0000 0.96779  0.59309  0.44372  Biso   1.000  H
  H366     1.0000 0.01389  0.61981  0.51741  Biso   1.000  H
  H367     1.0000 0.99540  0.66409  0.31341  Biso   1.000  H
  H368     1.0000 0.99308  0.73007  0.33873  Biso   1.000  H
  H369     1.0000 0.04048  0.69098  0.38890  Biso   1.000  H
  C246     1.0000 0.93955  0.76195  0.68149  Biso   1.000  C
  C247     1.0000 0.01309  0.79813  0.60541  Biso   1.000  C
  N39      1.0000 0.97889  0.80167  0.68299  Biso   1.000  N
  O37      1.0000 0.90062  0.76085  0.75391  Biso   1.000  O
  O38      1.0000 0.05648  0.83502  0.59784  Biso   1.000  O
  C248     1.0000 0.89691  0.80708  0.81952  Biso   1.000  C
  C249     1.0000 0.06016  0.87732  0.67251  Biso   1.000  C
  C250     1.0000 0.87572  0.85761  0.78282  Biso   1.000  C
  C251     1.0000 0.90852  0.79791  0.91897  Biso   1.000  C
  C252     1.0000 0.03090  0.92722  0.65648  Biso   1.000  C
  C253     1.0000 0.09359  0.86829  0.75481  Biso   1.000  C
  O39      1.0000 0.86673  0.86297  0.68292  Biso   1.000  O
  C254     1.0000 0.86694  0.89948  0.85367  Biso   1.000  C
  C255     1.0000 0.89898  0.84030  0.99004  Biso   1.000  C
  H370     1.0000 0.92317  0.76250  0.93979  Biso   1.000  H
  O40      1.0000 0.99726  0.93870  0.57800  Biso   1.000  O
  C256     1.0000 0.03711  0.96787  0.73130  Biso   1.000  C
  C257     1.0000 0.09933  0.90911  0.82880  Biso   1.000  C
  H371     1.0000 0.11318  0.83350  0.76133  Biso   1.000  H
  H372     1.0000 0.83878  0.88589  0.67101  Biso   1.000  H
  O41      1.0000 0.84110  0.95095  0.82401  Biso   1.000  O
  C258     1.0000 0.87758  0.89146  0.95462  Biso   1.000  C
  C259     1.0000 0.91071  0.82958  0.10088  Biso   1.000  C
  H373     1.0000 0.99717  0.91240  0.53404  Biso   1.000  H
  C260     1.0000 0.06966  0.95964  0.81480  Biso   1.000  C
  O42      1.0000 0.01123  0.02107  0.71624  Biso   1.000  O
  C261     1.0000 0.13543  0.89986  0.92174  Biso   1.000  C
  C262     1.0000 0.87369  0.99088  0.78162  Biso   1.000  C
  H374     1.0000 0.87019  0.92118  0.00052  Biso   1.000  H
  C263     1.0000 0.95660  0.78538  0.11413  Biso   1.000  C
  C264     1.0000 0.92730  0.88370  0.15540  Biso   1.000  C
  C265     1.0000 0.85550  0.80750  0.14888  Biso   1.000  C
  C266     1.0000 0.97378  0.81860  0.11600  Biso   1.000  C
  C267     1.0000 0.89341  0.87977  0.16708  Biso   1.000  C
  C268     1.0000 0.87728  0.77761  0.13533  Biso   1.000  C
  H375     1.0000 0.07210  0.98860  0.86393  Biso   1.000  H
  C269     1.0000 0.95512  0.02461  0.73032  Biso   1.000  C
  C270     1.0000 0.16021  0.84119  0.92908  Biso   1.000  C
  C271     1.0000 0.18009  0.94449  0.93080  Biso   1.000  C
  C272     1.0000 0.19778  0.88880  0.87808  Biso   1.000  C
  C273     1.0000 0.11778  0.84587  0.97304  Biso   1.000  C
  C274     1.0000 0.14079  0.94909  0.99191  Biso   1.000  C
  C275     1.0000 0.09410  0.90708  0.01483  Biso   1.000  C
  N40      1.0000 0.92828  0.98138  0.77166  Biso   1.000  N
  N41      1.0000 0.84482  0.03728  0.75571  Biso   1.000  N
  H376     1.0000 0.98970  0.79589  0.07429  Biso   1.000  H
  H377     1.0000 0.96720  0.78310  0.18490  Biso   1.000  H
  H378     1.0000 0.94250  0.74861  0.09159  Biso   1.000  H
  H379     1.0000 0.98058  0.80640  0.18513  Biso   1.000  H
  H380     1.0000 0.98641  0.78901  0.06972  Biso   1.000  H
  H381     1.0000 0.96230  0.89860  0.12664  Biso   1.000  H
  H382     1.0000 0.89708  0.91169  0.14813  Biso   1.000  H
  H383     1.0000 0.93309  0.87551  0.22662  Biso   1.000  H
  H384     1.0000 0.91278  0.91388  0.14394  Biso   1.000  H
  H385     1.0000 0.90400  0.87209  0.23673  Biso   1.000  H
  H386     1.0000 0.84207  0.77440  0.11174  Biso   1.000  H
  H387     1.0000 0.86267  0.79690  0.21868  Biso   1.000  H
  H388     1.0000 0.82671  0.83717  0.14678  Biso   1.000  H
  H389     1.0000 0.83680  0.78470  0.12694  Biso   1.000  H
  H390     1.0000 0.99498  0.85339  0.10290  Biso   1.000  H
  H391     1.0000 0.85250  0.88530  0.16281  Biso   1.000  H
  H392     1.0000 0.88830  0.74489  0.09489  Biso   1.000  H
  H393     1.0000 0.88547  0.77009  0.20602  Biso   1.000  H
  N42      1.0000 0.93313  0.07417  0.70336  Biso   1.000  N
  H394     1.0000 0.18368  0.83367  0.87014  Biso   1.000  H
  H395     1.0000 0.18338  0.83840  0.98974  Biso   1.000  H
  H396     1.0000 0.12960  0.81341  0.93237  Biso   1.000  H
  H397     1.0000 0.11812  0.81489  0.92444  Biso   1.000  H
  H398     1.0000 0.20740  0.94031  0.87643  Biso   1.000  H
  H399     1.0000 0.16249  0.98189  0.92668  Biso   1.000  H
  H400     1.0000 0.19938  0.94060  0.99528  Biso   1.000  H
  H401     1.0000 0.15628  0.98159  0.95582  Biso   1.000  H
  H402     1.0000 0.19761  0.85448  0.83704  Biso   1.000  H
  H403     1.0000 0.20952  0.92097  0.83704  Biso   1.000  H
  H404     1.0000 0.22442  0.88399  0.93380  Biso   1.000  H
  H405     1.0000 0.14429  0.83747  0.02733  Biso   1.000  H
  H406     1.0000 0.07970  0.85039  0.00037  Biso   1.000  H
  H407     1.0000 0.10339  0.95888  0.01850  Biso   1.000  H
  H408     1.0000 0.16599  0.93900  0.04733  Biso   1.000  H
  H409     1.0000 0.06370  0.87918  0.01048  Biso   1.000  H
  H410     1.0000 0.11521  0.90138  0.07714  Biso   1.000  H
  H411     1.0000 0.07789  0.94520  0.01423  Biso   1.000  H
  C276     1.0000 0.87711  0.07844  0.71804  Biso   1.000  C
  C277     1.0000 0.84862  0.13370  0.68861  Biso   1.000  C
  C278     1.0000 0.84047  0.13289  0.57478  Biso   1.000  C
  C279     1.0000 0.88555  0.18376  0.71849  Biso   1.000  C
  C280     1.0000 0.79120  0.13906  0.73908  Biso   1.000  C
  H412     1.0000 0.87698  0.12660  0.54213  Biso   1.000  H
  H413     1.0000 0.81438  0.10241  0.55673  Biso   1.000  H
  H414     1.0000 0.82481  0.16912  0.55291  Biso   1.000  H
  H415     1.0000 0.89298  0.18229  0.79068  Biso   1.000  H
  H416     1.0000 0.92139  0.18199  0.68202  Biso   1.000  H
  H417     1.0000 0.86601  0.21910  0.70224  Biso   1.000  H
  H418     1.0000 0.79610  0.13880  0.81203  Biso   1.000  H
  H419     1.0000 0.77330  0.17452  0.71871  Biso   1.000  H
  H420     1.0000 0.76718  0.10719  0.71931  Biso   1.000  H
  C281     1.0000 0.09971  0.31695  0.58159  Biso   1.000  C
  C282     1.0000 0.03795  0.31949  0.54722  Biso   1.000  C
  H421     1.0000 0.10820  0.27900  0.60683  Biso   1.000  H
  H422     1.0000 0.10592  0.34469  0.63499  Biso   1.000  H
  H423     1.0000 0.12449  0.32561  0.52490  Biso   1.000  H
  C283     1.0000 0.03048  0.27668  0.46319  Biso   1.000  C
  C284     1.0000 0.02554  0.37842  0.50453  Biso   1.000  C
  C285     1.0000 0.99878  0.30750  0.63424  Biso   1.000  C
  N43      1.0000 0.06645  0.27955  0.38538  Biso   1.000  N
  N44      1.0000 0.98966  0.23780  0.47210  Biso   1.000  N
  H424     1.0000 0.05041  0.38560  0.44724  Biso   1.000  H
  H425     1.0000 0.03221  0.40691  0.55628  Biso   1.000  H
  H426     1.0000 0.98607  0.38019  0.48259  Biso   1.000  H
  H427     1.0000 0.00460  0.33591  0.68659  Biso   1.000  H
  H428     1.0000 0.00688  0.26988  0.66127  Biso   1.000  H
  H429     1.0000 0.95947  0.30898  0.61110  Biso   1.000  H
  C286     1.0000 0.06041  0.23805  0.31851  Biso   1.000  C
  C287     1.0000 0.98691  0.20183  0.39459  Biso   1.000  C
  O43      1.0000 0.09933  0.23915  0.24616  Biso   1.000  O
  N45      1.0000 0.02111  0.19833  0.31701  Biso   1.000  N
  O44      1.0000 0.94347  0.16498  0.40216  Biso   1.000  O
  C288     1.0000 0.10309  0.19292  0.18048  Biso   1.000  C
  C289     1.0000 0.93984  0.12268  0.32749  Biso   1.000  C
  C290     1.0000 0.12424  0.14239  0.21718  Biso   1.000  C
  C291     1.0000 0.09144  0.20209  0.08103  Biso   1.000  C
  C292     1.0000 0.96910  0.07278  0.34352  Biso   1.000  C
  C293     1.0000 0.90641  0.13171  0.24519  Biso   1.000  C
  O45      1.0000 0.13327  0.13703  0.31708  Biso   1.000  O
  C294     1.0000 0.13302  0.10052  0.14633  Biso   1.000  C
  C295     1.0000 0.10102  0.15970  0.01004  Biso   1.000  C
  H430     1.0000 0.07679  0.23750  0.06021  Biso   1.000  H
  O46      1.0000 0.00274  0.06130  0.42208  Biso   1.000  O
  C296     1.0000 0.96289  0.03208  0.26870  Biso   1.000  C
  C297     1.0000 0.90067  0.09089  0.17120  Biso   1.000  C
  H431     1.0000 0.88678  0.16650  0.23867  Biso   1.000  H
  H432     1.0000 0.16118  0.11411  0.32899  Biso   1.000  H
  O47      1.0000 0.15890  0.04905  0.17599  Biso   1.000  O
  C298     1.0000 0.12242  0.10854  0.04538  Biso   1.000  C
  C299     1.0000 0.08929  0.17042  0.89912  Biso   1.000  C
  H433     1.0000 0.00279  0.08760  0.46604  Biso   1.000  H
  O48      1.0000 0.98877  0.97893  0.28376  Biso   1.000  O
  C300     1.0000 0.93034  0.04036  0.18520  Biso   1.000  C
  C301     1.0000 0.86457  0.10014  0.07833  Biso   1.000  C
  C302     1.0000 0.12631  0.00908  0.21838  Biso   1.000  C
  H434     1.0000 0.12981  0.07882  0.99948  Biso   1.000  H
  C303     1.0000 0.04340  0.21458  0.88594  Biso   1.000  C
  C304     1.0000 0.07270  0.11630  0.84460  Biso   1.000  C
  C305     1.0000 0.14450  0.19250  0.85112  Biso   1.000  C
  C306     1.0000 0.02622  0.18140  0.88400  Biso   1.000  C
  C307     1.0000 0.10659  0.12019  0.83292  Biso   1.000  C
  C308     1.0000 0.12268  0.22239  0.86467  Biso   1.000  C
  C309     1.0000 0.04488  0.97535  0.26968  Biso   1.000  C
  H435     1.0000 0.92790  0.01140  0.13607  Biso   1.000  H
  C310     1.0000 0.90590  0.09292  0.98517  Biso   1.000  C
  C311     1.0000 0.83979  0.15881  0.07092  Biso   1.000  C
  C312     1.0000 0.81991  0.05551  0.06920  Biso   1.000  C
  C313     1.0000 0.80218  0.11120  0.12192  Biso   1.000  C
  C314     1.0000 0.88218  0.15409  0.02704  Biso   1.000  C
  C315     1.0000 0.85917  0.05091  0.00809  Biso   1.000  C
  N46      1.0000 0.07172  0.01862  0.22834  Biso   1.000  N
  N47      1.0000 0.15518  0.96268  0.24429  Biso   1.000  N
  H436     1.0000 0.01030  0.20411  0.92571  Biso   1.000  H
  H437     1.0000 0.03280  0.21690  0.81510  Biso   1.000  H
  H438     1.0000 0.05750  0.25139  0.90841  Biso   1.000  H
  H439     1.0000 0.01942  0.19360  0.81487  Biso   1.000  H
  H440     1.0000 0.01359  0.21099  0.93028  Biso   1.000  H
  H441     1.0000 0.03770  0.10140  0.87344  Biso   1.000  H
  H442     1.0000 0.10288  0.08831  0.85194  Biso   1.000  H
  H443     1.0000 0.06691  0.12449  0.77338  Biso   1.000  H
  H444     1.0000 0.08722  0.08612  0.85614  Biso   1.000  H
  H445     1.0000 0.09600  0.12791  0.76327  Biso   1.000  H
  H446     1.0000 0.15789  0.22560  0.88834  Biso   1.000  H
  H447     1.0000 0.13728  0.20310  0.78132  Biso   1.000  H
  H448     1.0000 0.17329  0.16278  0.85322  Biso   1.000  H
  H449     1.0000 0.16320  0.21530  0.87314  Biso   1.000  H
  H450     1.0000 0.00498  0.14661  0.89710  Biso   1.000  H
  H451     1.0000 0.14750  0.11470  0.83719  Biso   1.000  H
  H452     1.0000 0.11170  0.25511  0.90511  Biso   1.000  H
  H453     1.0000 0.11449  0.22991  0.79398  Biso   1.000  H
  N48      1.0000 0.06683  0.92583  0.29664  Biso   1.000  N
  H454     1.0000 0.93630  0.12078  0.98952  Biso   1.000  H
  H455     1.0000 0.88479  0.09862  0.92294  Biso   1.000  H
  H456     1.0000 0.92207  0.05480  0.98577  Biso   1.000  H
  H457     1.0000 0.89657  0.04112  0.98150  Biso   1.000  H
  H458     1.0000 0.81628  0.16629  0.12993  Biso   1.000  H
  H459     1.0000 0.81657  0.16160  0.01033  Biso   1.000  H
  H460     1.0000 0.87040  0.18659  0.06763  Biso   1.000  H
  H461     1.0000 0.88188  0.18511  0.07556  Biso   1.000  H
  H462     1.0000 0.79260  0.05969  0.12357  Biso   1.000  H
  H463     1.0000 0.83747  0.01811  0.07332  Biso   1.000  H
  H464     1.0000 0.80057  0.05940  0.00472  Biso   1.000  H
  H465     1.0000 0.84368  0.01841  0.04418  Biso   1.000  H
  H466     1.0000 0.80239  0.14552  0.16303  Biso   1.000  H
  H467     1.0000 0.79048  0.07899  0.16303  Biso   1.000  H
  H468     1.0000 0.77558  0.11601  0.06620  Biso   1.000  H
  H469     1.0000 0.85571  0.16249  0.97274  Biso   1.000  H
  H470     1.0000 0.92030  0.14961  0.99963  Biso   1.000  H
  H471     1.0000 0.83401  0.06100  0.95267  Biso   1.000  H
  C316     1.0000 0.12289  0.92156  0.28203  Biso   1.000  C
  C317     1.0000 0.15138  0.86630  0.31139  Biso   1.000  C
  C318     1.0000 0.15949  0.86711  0.42522  Biso   1.000  C
  C319     1.0000 0.11445  0.81624  0.28151  Biso   1.000  C
  C320     1.0000 0.20880  0.86094  0.26092  Biso   1.000  C
  H472     1.0000 0.12302  0.87340  0.45787  Biso   1.000  H
  H473     1.0000 0.18558  0.89759  0.44327  Biso   1.000  H
  H474     1.0000 0.17519  0.83088  0.44709  Biso   1.000  H
  H475     1.0000 0.10702  0.81767  0.20932  Biso   1.000  H
  H476     1.0000 0.07861  0.81801  0.31798  Biso   1.000  H
  H477     1.0000 0.13399  0.78090  0.29784  Biso   1.000  H
  H478     1.0000 0.20390  0.86120  0.18797  Biso   1.000  H
  H479     1.0000 0.22670  0.82548  0.28129  Biso   1.000  H
  H480     1.0000 0.23278  0.89277  0.28069  Biso   1.000  H
