data_image0
_cell_length_a       10.315
_cell_length_b       14.551
_cell_length_c       19.242
_cell_angle_alpha    86.19
_cell_angle_beta     89.21
_cell_angle_gamma    73.91

_symmetry_space_group_name_H-M    "P 1"
_symmetry_int_tables_number       1

loop_
  _symmetry_equiv_pos_as_xyz
  'x, y, z'

loop_
  _atom_site_label
  _atom_site_occupancy
  _atom_site_fract_x
  _atom_site_fract_y
  _atom_site_fract_z
  _atom_site_thermal_displace_type
  _atom_site_B_iso_or_equiv
  _atom_site_type_symbol
  C1       1.0000 0.66588  0.03748  0.46481  Biso   1.000  C
  C2       1.0000 0.68720  0.02811  0.39621  Biso   1.000  C
  C3       1.0000 0.68730  0.02811  0.39621  Biso   1.000  C
  C4       1.0000 0.68267  0.94283  0.49700  Biso   1.000  C
  C5       1.0000 0.68269  0.94276  0.49700  Biso   1.000  C
  H1       1.0000 0.64378  0.09572  0.48773  Biso   1.000  H
  H2       1.0000 0.64381  0.09565  0.48773  Biso   1.000  H
  C6       1.0000 0.71426  0.92530  0.38699  Biso   1.000  C
  H3       1.0000 0.68521  0.07767  0.36121  Biso   1.000  H
  H4       1.0000 0.68531  0.07767  0.36121  Biso   1.000  H
  N1       1.0000 0.71166  0.87595  0.44679  Biso   1.000  N
  N2       1.0000 0.71168  0.87588  0.44679  Biso   1.000  N
  C7       1.0000 0.67300  0.91562  0.56669  Biso   1.000  C
  C8       1.0000 0.75392  0.87304  0.32533  Biso   1.000  C
  C9       1.0000 0.75395  0.87297  0.32533  Biso   1.000  C
  C10      1.0000 0.68095  0.81922  0.59200  Biso   1.000  C
  C11      1.0000 0.65961  0.98751  0.62002  Biso   1.000  C
  C12      1.0000 0.68105  0.81922  0.59200  Biso   1.000  C
  C13      1.0000 0.73656  0.91190  0.25892  Biso   1.000  C
  C14      1.0000 0.80804  0.76850  0.33772  Biso   1.000  C
  C15      1.0000 0.73082  0.73062  0.56153  Biso   1.000  C
  N3       1.0000 0.64348  0.79765  0.65784  Biso   1.000  N
  C16      1.0000 0.73092  0.73062  0.56153  Biso   1.000  C
  N4       1.0000 0.64351  0.79758  0.65784  Biso   1.000  N
  N5       1.0000 0.74129  0.04704  0.62133  Biso   1.000  N
  N6       1.0000 0.74132  0.04697  0.62133  Biso   1.000  N
  N7       1.0000 0.57163  0.99684  0.67232  Biso   1.000  N
  N8       1.0000 0.57176  0.99677  0.67232  Biso   1.000  N
  N9       1.0000 0.67084  0.00397  0.23480  Biso   1.000  N
  C17      1.0000 0.79635  0.86480  0.19553  Biso   1.000  C
  C18      1.0000 0.74183  0.70370  0.31621  Biso   1.000  C
  C19      1.0000 0.92287  0.72323  0.37590  Biso   1.000  C
  C20      1.0000 0.92290  0.72316  0.37590  Biso   1.000  C
  H5       1.0000 0.76198  0.72241  0.51502  Biso   1.000  H
  C21      1.0000 0.72693  0.65925  0.60992  Biso   1.000  C
  C22      1.0000 0.72706  0.65918  0.60992  Biso   1.000  C
  C23      1.0000 0.66883  0.70070  0.67091  Biso   1.000  C
  H6       1.0000 0.60775  0.84043  0.68800  Biso   1.000  H
  H7       1.0000 0.60788  0.84036  0.68800  Biso   1.000  H
  C24      1.0000 0.70212  0.09820  0.68102  Biso   1.000  C
  C25      1.0000 0.87902  0.03500  0.59450  Biso   1.000  C
  C26      1.0000 0.87912  0.03500  0.59450  Biso   1.000  C
  C27      1.0000 0.87206  0.02702  0.58700  Biso   1.000  C
  C28      1.0000 0.59869  0.06879  0.70904  Biso   1.000  C
  C29      1.0000 0.68519  0.02011  0.16251  Biso   1.000  C
  H8       1.0000 0.62474  0.04819  0.26173  Biso   1.000  H
  C30      1.0000 0.76479  0.92654  0.14120  Biso   1.000  C
  C31      1.0000 0.76482  0.92646  0.14120  Biso   1.000  C
  H9       1.0000 0.84930  0.80011  0.19433  Biso   1.000  H
  H10      1.0000 0.84940  0.80011  0.19433  Biso   1.000  H
  F1       1.0000 0.62654  0.73852  0.27808  Biso   1.000  F
  C32      1.0000 0.78541  0.60869  0.33001  Biso   1.000  C
  C33      1.0000 0.78551  0.60869  0.33001  Biso   1.000  C
  F2       1.0000 0.99664  0.77983  0.39804  Biso   1.000  F
  C34      1.0000 0.96883  0.62904  0.39022  Biso   1.000  C
  F3       1.0000 0.99666  0.77976  0.39804  Biso   1.000  F
  C35      1.0000 0.96886  0.62897  0.39022  Biso   1.000  C
  H11      1.0000 0.75823  0.59251  0.60362  Biso   1.000  H
  H12      1.0000 0.75833  0.59251  0.60362  Biso   1.000  H
  C36      1.0000 0.64168  0.65720  0.73331  Biso   1.000  C
  C37      1.0000 0.64177  0.65720  0.73331  Biso   1.000  C
  H13      1.0000 0.74075  0.14429  0.69820  Biso   1.000  H
  H14      1.0000 0.74085  0.14429  0.69820  Biso   1.000  H
  H15      1.0000 0.91373  0.08803  0.61013  Biso   1.000  H
  H16      1.0000 0.87708  0.04063  0.54299  Biso   1.000  H
  H17      1.0000 0.91385  0.08796  0.61013  Biso   1.000  H
  H18      1.0000 0.89992  0.08696  0.57903  Biso   1.000  H
  H19      1.0000 0.86750  0.00027  0.54153  Biso   1.000  H
  C38      1.0000 0.97777  0.93721  0.62023  Biso   1.000  C
  C39      1.0000 0.96956  0.95648  0.63502  Biso   1.000  C
  H20      1.0000 0.54996  0.09411  0.74894  Biso   1.000  H
  H21      1.0000 0.55005  0.09411  0.74894  Biso   1.000  H
  C40      1.0000 0.63267  0.10143  0.12433  Biso   1.000  C
  C41      1.0000 0.63279  0.10136  0.12433  Biso   1.000  C
  H22      1.0000 0.79006  0.91234  0.09459  Biso   1.000  H
  H23      1.0000 0.79018  0.91226  0.09459  Biso   1.000  H
  F4       1.0000 0.71616  0.54908  0.30642  Biso   1.000  F
  C42      1.0000 0.89977  0.56732  0.36861  Biso   1.000  C
  F5       1.0000 0.08352  0.58989  0.42720  Biso   1.000  F
  C43      1.0000 0.56642  0.69994  0.78951  Biso   1.000  C
  C44      1.0000 0.70296  0.55069  0.74211  Biso   1.000  C
  C45      1.0000 0.70306  0.55069  0.74211  Biso   1.000  C
  C46      1.0000 0.01365  0.85852  0.57971  Biso   1.000  C
  C47      1.0000 0.02391  0.92901  0.68852  Biso   1.000  C
  C48      1.0000 0.01355  0.85852  0.57971  Biso   1.000  C
  C49      1.0000 0.02381  0.92901  0.68852  Biso   1.000  C
  C50      1.0000 0.00643  0.86219  0.61612  Biso   1.000  C
  C51      1.0000 0.00858  0.97818  0.69930  Biso   1.000  C
  C52      1.0000 0.55133  0.18996  0.14683  Biso   1.000  C
  C53      1.0000 0.67075  0.10099  0.04870  Biso   1.000  C
  C54      1.0000 0.67085  0.10099  0.04870  Biso   1.000  C
  F6       1.0000 0.94627  0.47391  0.38371  Biso   1.000  F
  N10      1.0000 0.50161  0.79935  0.78800  Biso   1.000  N
  N11      1.0000 0.50164  0.79928  0.78800  Biso   1.000  N
  C55      1.0000 0.55271  0.65230  0.85571  Biso   1.000  C
  C56      1.0000 0.55280  0.65230  0.85571  Biso   1.000  C
  C57      1.0000 0.83161  0.50961  0.76711  Biso   1.000  C
  C58      1.0000 0.63654  0.48646  0.72383  Biso   1.000  C
  C59      1.0000 0.63667  0.48639  0.72383  Biso   1.000  C
  H24      1.0000 0.98218  0.86421  0.53299  Biso   1.000  H
  C60      1.0000 0.09541  0.77155  0.60752  Biso   1.000  C
  C61      1.0000 0.09543  0.77148  0.60752  Biso   1.000  C
  H25      1.0000 0.99935  0.98281  0.71623  Biso   1.000  H
  H26      1.0000 0.99945  0.98281  0.71623  Biso   1.000  H
  C62      1.0000 0.10572  0.84190  0.71633  Biso   1.000  C
  C63      1.0000 0.10563  0.84190  0.71633  Biso   1.000  C
  C64      1.0000 0.08450  0.90572  0.74482  Biso   1.000  C
  H27      1.0000 0.97973  0.84732  0.57221  Biso   1.000  H
  C65      1.0000 0.08241  0.78958  0.66164  Biso   1.000  C
  H28      1.0000 0.98332  0.04268  0.71222  Biso   1.000  H
  N12      1.0000 0.49843  0.20071  0.21199  Biso   1.000  N
  C66      1.0000 0.52291  0.27860  0.10438  Biso   1.000  C
  C67      1.0000 0.79545  0.10270  0.02568  Biso   1.000  C
  C68      1.0000 0.79554  0.10270  0.02568  Biso   1.000  C
  C69      1.0000 0.58550  0.10127  0.99693  Biso   1.000  C
  C70      1.0000 0.58540  0.10127  0.99693  Biso   1.000  C
  C71      1.0000 0.44874  0.81002  0.85321  Biso   1.000  C
  C72      1.0000 0.47714  0.72146  0.89561  Biso   1.000  C
  C73      1.0000 0.47717  0.72139  0.89561  Biso   1.000  C
  H29      1.0000 0.58886  0.58623  0.86904  Biso   1.000  H
  H30      1.0000 0.58896  0.58623  0.86904  Biso   1.000  H
  F7       1.0000 0.90609  0.56664  0.78524  Biso   1.000  F
  C74      1.0000 0.88790  0.41313  0.77263  Biso   1.000  C
  F8       1.0000 0.50952  0.52043  0.69831  Biso   1.000  F
  C75      1.0000 0.68844  0.38962  0.72852  Biso   1.000  C
  H31      1.0000 0.11987  0.71774  0.57992  Biso   1.000  H
  C76      1.0000 0.14151  0.76321  0.67581  Biso   1.000  C
  H32      1.0000 0.11980  0.71766  0.57992  Biso   1.000  H
  C77      1.0000 0.14141  0.76321  0.67581  Biso   1.000  C
  H33      1.0000 0.10771  0.72523  0.64872  Biso   1.000  H
  H34      1.0000 0.13704  0.83635  0.76300  Biso   1.000  H
  H35      1.0000 0.13706  0.83628  0.76300  Biso   1.000  H
  O1       1.0000 0.19611  0.74991  0.77539  Biso   1.000  O
  C78      1.0000 0.12156  0.81142  0.72602  Biso   1.000  C
  H36      1.0000 0.11129  0.92058  0.78883  Biso   1.000  H
  C79      1.0000 0.43362  0.30012  0.21053  Biso   1.000  C
  C80      1.0000 0.43365  0.30005  0.21053  Biso   1.000  C
  C81      1.0000 0.44727  0.34768  0.14433  Biso   1.000  C
  C82      1.0000 0.44737  0.34768  0.14433  Biso   1.000  C
  H37      1.0000 0.55115  0.28727  0.05792  Biso   1.000  H
  H38      1.0000 0.55125  0.28727  0.05792  Biso   1.000  H
  F9       1.0000 0.89125  0.09972  0.07401  Biso   1.000  F
  F10      1.0000 0.89137  0.09965  0.07401  Biso   1.000  F
  C83      1.0000 0.83315  0.10569  0.95797  Biso   1.000  C
  C84      1.0000 0.83308  0.10562  0.95797  Biso   1.000  C
  F11      1.0000 0.45551  0.10339  0.01313  Biso   1.000  F
  C85      1.0000 0.61614  0.10508  0.92734  Biso   1.000  C
  C86      1.0000 0.61607  0.10501  0.92734  Biso   1.000  C
  C87      1.0000 0.36728  0.89863  0.87571  Biso   1.000  C
  C88      1.0000 0.36738  0.89863  0.87571  Biso   1.000  C
  H39      1.0000 0.44882  0.71271  0.94212  Biso   1.000  H
  C89      1.0000 0.81646  0.35233  0.75430  Biso   1.000  C
  C90      1.0000 0.81656  0.35233  0.75430  Biso   1.000  C
  F12      1.0000 0.01388  0.37611  0.79862  Biso   1.000  F
  F13      1.0000 0.61920  0.32979  0.71133  Biso   1.000  F
  O2       1.0000 0.21160  0.67134  0.70003  Biso   1.000  O
  O3       1.0000 0.21153  0.67127  0.70003  Biso   1.000  O
  C91      1.0000 0.24604  0.65704  0.77331  Biso   1.000  C
  H40      1.0000 0.30128  0.69976  0.78430  Biso   1.000  H
  C92      1.0000 0.24607  0.65697  0.77331  Biso   1.000  C
  H41      1.0000 0.30121  0.69969  0.78430  Biso   1.000  H
  C93      1.0000 0.22501  0.65103  0.75904  Biso   1.000  C
  C94      1.0000 0.35830  0.34278  0.26673  Biso   1.000  C
  C95      1.0000 0.35840  0.34278  0.26673  Biso   1.000  C
  H42      1.0000 0.41109  0.41383  0.13099  Biso   1.000  H
  H43      1.0000 0.41112  0.41375  0.13099  Biso   1.000  H
  F14      1.0000 0.95784  0.10686  0.93937  Biso   1.000  F
  C96      1.0000 0.74328  0.10898  0.90776  Biso   1.000  C
  F15      1.0000 0.95774  0.10686  0.93937  Biso   1.000  F
  C97      1.0000 0.74331  0.10891  0.90776  Biso   1.000  C
  F16      1.0000 0.52480  0.10985  0.87817  Biso   1.000  F
  C98      1.0000 0.31475  0.97994  0.83753  Biso   1.000  C
  C99      1.0000 0.31488  0.97987  0.83753  Biso   1.000  C
  C100     1.0000 0.32922  0.89899  0.95134  Biso   1.000  C
  F17      1.0000 0.87420  0.25652  0.76107  Biso   1.000  F
  H44      1.0000 0.27444  0.64180  0.71524  Biso   1.000  H
  H45      1.0000 0.29742  0.59062  0.78420  Biso   1.000  H
  H46      1.0000 0.16361  0.67264  0.80113  Biso   1.000  H
  H47      1.0000 0.29732  0.59062  0.78420  Biso   1.000  H
  H48      1.0000 0.16354  0.67257  0.80113  Biso   1.000  H
  H49      1.0000 0.28016  0.60989  0.79659  Biso   1.000  H
  H50      1.0000 0.14032  0.63359  0.75493  Biso   1.000  H
  C101     1.0000 0.33124  0.29928  0.32913  Biso   1.000  C
  C102     1.0000 0.29701  0.44929  0.25793  Biso   1.000  C
  F18      1.0000 0.77853  0.11028  0.84072  Biso   1.000  F
  F19      1.0000 0.77846  0.11020  0.84072  Biso   1.000  F
  N13      1.0000 0.32924  0.99601  0.76524  Biso   1.000  N
  C103     1.0000 0.23516  0.07352  0.85884  Biso   1.000  C
  C104     1.0000 0.23526  0.07352  0.85884  Biso   1.000  C
  C105     1.0000 0.20453  0.89729  0.97431  Biso   1.000  C
  C106     1.0000 0.41474  0.89879  0.00306  Biso   1.000  C
  C107     1.0000 0.41467  0.89872  0.00306  Biso   1.000  C
  C108     1.0000 0.27301  0.34080  0.39012  Biso   1.000  C
  N14      1.0000 0.35656  0.20240  0.34220  Biso   1.000  N
  C109     1.0000 0.27311  0.34080  0.39012  Biso   1.000  C
  C110     1.0000 0.16846  0.49037  0.23293  Biso   1.000  C
  C111     1.0000 0.36340  0.51360  0.27621  Biso   1.000  C
  C112     1.0000 0.36350  0.51360  0.27621  Biso   1.000  C
  C113     1.0000 0.26352  0.08808  0.74112  Biso   1.000  C
  H51      1.0000 0.37533  0.95179  0.73831  Biso   1.000  H
  C114     1.0000 0.20372  0.13518  0.80451  Biso   1.000  C
  H52      1.0000 0.20989  0.08772  0.90540  Biso   1.000  H
  H53      1.0000 0.20999  0.08772  0.90540  Biso   1.000  H
  F20      1.0000 0.10870  0.90033  0.92603  Biso   1.000  F
  F21      1.0000 0.10880  0.90033  0.92603  Biso   1.000  F
  C115     1.0000 0.16709  0.89436  0.04207  Biso   1.000  C
  C116     1.0000 0.16700  0.89436  0.04207  Biso   1.000  C
  F22      1.0000 0.54457  0.89659  0.98691  Biso   1.000  F
  C117     1.0000 0.38410  0.89497  0.07270  Biso   1.000  C
  C118     1.0000 0.38403  0.89490  0.07270  Biso   1.000  C
  C119     1.0000 0.26913  0.26944  0.43851  Biso   1.000  C
  H54      1.0000 0.24175  0.40747  0.39642  Biso   1.000  H
  C120     1.0000 0.26916  0.26937  0.43851  Biso   1.000  C
  C121     1.0000 0.31900  0.18084  0.40798  Biso   1.000  C
  H55      1.0000 0.39220  0.15962  0.31199  Biso   1.000  H
  C122     1.0000 0.31912  0.18077  0.40798  Biso   1.000  C
  H56      1.0000 0.39232  0.15955  0.31199  Biso   1.000  H
  F23      1.0000 0.09386  0.43342  0.21480  Biso   1.000  F
  C123     1.0000 0.11214  0.58692  0.22740  Biso   1.000  C
  F24      1.0000 0.09398  0.43335  0.21480  Biso   1.000  F
  C124     1.0000 0.11217  0.58685  0.22740  Biso   1.000  C
  F25      1.0000 0.49052  0.47962  0.30173  Biso   1.000  F
  C125     1.0000 0.31164  0.61036  0.27152  Biso   1.000  C
  F26      1.0000 0.49055  0.47955  0.30173  Biso   1.000  F
  C126     1.0000 0.24603  0.12701  0.67471  Biso   1.000  C
  C127     1.0000 0.24613  0.12701  0.67471  Biso   1.000  C
  H57      1.0000 0.15064  0.19995  0.80571  Biso   1.000  H
  H58      1.0000 0.15077  0.19988  0.80571  Biso   1.000  H
  F27      1.0000 0.04230  0.89319  0.06067  Biso   1.000  F
  C128     1.0000 0.25686  0.89107  0.09228  Biso   1.000  C
  F28      1.0000 0.04233  0.89312  0.06067  Biso   1.000  F
  C129     1.0000 0.25676  0.89107  0.09228  Biso   1.000  C
  F29      1.0000 0.47537  0.89013  0.12187  Biso   1.000  F
  F30      1.0000 0.47527  0.89013  0.12187  Biso   1.000  F
  H59      1.0000 0.23810  0.27757  0.48502  Biso   1.000  H
  C130     1.0000 0.32705  0.08444  0.43330  Biso   1.000  C
  C131     1.0000 0.32708  0.08437  0.43330  Biso   1.000  C
  C132     1.0000 0.18349  0.64773  0.24569  Biso   1.000  C
  C133     1.0000 0.18352  0.64765  0.24569  Biso   1.000  C
  F31      1.0000 0.98620  0.62387  0.20141  Biso   1.000  F
  F32      1.0000 0.38077  0.67019  0.28871  Biso   1.000  F
  F33      1.0000 0.38087  0.67019  0.28871  Biso   1.000  F
  C134     1.0000 0.28581  0.07469  0.61299  Biso   1.000  C
  C135     1.0000 0.19203  0.23148  0.66232  Biso   1.000  C
  F34      1.0000 0.22171  0.88978  0.15932  Biso   1.000  F
  F35      1.0000 0.22164  0.88971  0.15932  Biso   1.000  F
  C136     1.0000 0.31738  0.05723  0.50299  Biso   1.000  C
  C137     1.0000 0.34046  0.01247  0.38001  Biso   1.000  C
  C138     1.0000 0.31741  0.05716  0.50299  Biso   1.000  C
  F36      1.0000 0.12578  0.74346  0.23897  Biso   1.000  F
  F37      1.0000 0.12588  0.74346  0.23897  Biso   1.000  F
  N15      1.0000 0.28839  0.12411  0.55320  Biso   1.000  N
  C139     1.0000 0.31275  0.97194  0.60383  Biso   1.000  C
  C140     1.0000 0.31287  0.97187  0.60383  Biso   1.000  C
  C141     1.0000 0.25814  0.29628  0.68383  Biso   1.000  C
  C142     1.0000 0.07718  0.27682  0.62414  Biso   1.000  C
  C143     1.0000 0.25824  0.29628  0.68383  Biso   1.000  C
  C144     1.0000 0.07720  0.27675  0.62414  Biso   1.000  C
  C145     1.0000 0.33420  0.96250  0.53523  Biso   1.000  C
  N16      1.0000 0.42832  0.00322  0.32772  Biso   1.000  N
  N17      1.0000 0.42841  0.00322  0.32772  Biso   1.000  N
  N18      1.0000 0.25875  0.95301  0.37871  Biso   1.000  N
  H60      1.0000 0.31477  0.92231  0.63883  Biso   1.000  H
  H61      1.0000 0.31486  0.92231  0.63883  Biso   1.000  H
  F38      1.0000 0.37351  0.26154  0.72190  Biso   1.000  F
  C146     1.0000 0.21457  0.39129  0.67003  Biso   1.000  C
  F39      1.0000 0.37354  0.26147  0.72190  Biso   1.000  F
  F40      1.0000 0.00331  0.22023  0.60200  Biso   1.000  F
  C147     1.0000 0.03112  0.37102  0.60982  Biso   1.000  C
  F41      1.0000 0.00344  0.22015  0.60200  Biso   1.000  F
  C148     1.0000 0.03122  0.37102  0.60982  Biso   1.000  C
  H62      1.0000 0.35627  0.90433  0.51231  Biso   1.000  H
  H63      1.0000 0.35629  0.90426  0.51231  Biso   1.000  H
  C149     1.0000 0.40138  0.93119  0.29100  Biso   1.000  C
  C150     1.0000 0.29796  0.90179  0.31902  Biso   1.000  C
  C151     1.0000 0.12095  0.96498  0.40548  Biso   1.000  C
  C152     1.0000 0.12799  0.97304  0.41298  Biso   1.000  C
  F42      1.0000 0.28392  0.45090  0.69362  Biso   1.000  F
  C153     1.0000 0.10028  0.43273  0.63143  Biso   1.000  C
  C154     1.0000 0.10031  0.43266  0.63143  Biso   1.000  C
  F43      1.0000 0.91655  0.41010  0.57283  Biso   1.000  F
  H64      1.0000 0.45002  0.90588  0.25110  Biso   1.000  H
  H65      1.0000 0.45012  0.90588  0.25110  Biso   1.000  H
  H66      1.0000 0.25922  0.85570  0.30178  Biso   1.000  H
  H67      1.0000 0.25932  0.85570  0.30178  Biso   1.000  H
  C155     1.0000 0.02221  0.06277  0.37981  Biso   1.000  C
  C156     1.0000 0.02231  0.06277  0.37981  Biso   1.000  C
  C157     1.0000 0.03051  0.04350  0.36501  Biso   1.000  C
  H68      1.0000 0.08622  0.91202  0.38991  Biso   1.000  H
  H69      1.0000 0.12296  0.95943  0.45700  Biso   1.000  H
  H70      1.0000 0.08632  0.91202  0.38991  Biso   1.000  H
  H71      1.0000 0.12299  0.95936  0.45700  Biso   1.000  H
  H72      1.0000 0.10015  0.91302  0.42101  Biso   1.000  H
  H73      1.0000 0.13258  0.99971  0.45851  Biso   1.000  H
  F44      1.0000 0.05380  0.52607  0.61633  Biso   1.000  F
  C158     1.0000 0.98640  0.14154  0.42033  Biso   1.000  C
  C159     1.0000 0.97626  0.07097  0.31152  Biso   1.000  C
  C160     1.0000 0.98643  0.14147  0.42033  Biso   1.000  C
  C161     1.0000 0.97616  0.07097  0.31152  Biso   1.000  C
  C162     1.0000 0.99365  0.13779  0.38392  Biso   1.000  C
  C163     1.0000 0.99150  0.02181  0.30069  Biso   1.000  C
  H74      1.0000 0.01789  0.13578  0.46700  Biso   1.000  H
  C164     1.0000 0.90464  0.22850  0.39252  Biso   1.000  C
  C165     1.0000 0.90454  0.22850  0.39252  Biso   1.000  C
  H75      1.0000 0.00060  0.01724  0.28381  Biso   1.000  H
  H76      1.0000 0.00072  0.01717  0.28381  Biso   1.000  H
  C166     1.0000 0.89445  0.15808  0.28371  Biso   1.000  C
  C167     1.0000 0.89435  0.15808  0.28371  Biso   1.000  C
  C168     1.0000 0.91555  0.09434  0.25522  Biso   1.000  C
  H77      1.0000 0.02031  0.15274  0.42783  Biso   1.000  H
  C169     1.0000 0.91767  0.21040  0.33840  Biso   1.000  C
  H78      1.0000 0.01676  0.95730  0.28782  Biso   1.000  H
  H79      1.0000 0.88027  0.28232  0.42012  Biso   1.000  H
  C170     1.0000 0.85866  0.23677  0.32423  Biso   1.000  C
  H80      1.0000 0.88020  0.28225  0.42012  Biso   1.000  H
  C171     1.0000 0.85857  0.23677  0.32423  Biso   1.000  C
  H81      1.0000 0.89234  0.27483  0.35132  Biso   1.000  H
  H82      1.0000 0.86301  0.16371  0.23699  Biso   1.000  H
  O4       1.0000 0.80387  0.25008  0.22459  Biso   1.000  O
  C172     1.0000 0.87849  0.18864  0.27402  Biso   1.000  C
  H83      1.0000 0.88878  0.07940  0.21121  Biso   1.000  H
  O5       1.0000 0.78854  0.32871  0.30001  Biso   1.000  O
  O6       1.0000 0.78844  0.32871  0.30001  Biso   1.000  O
  C173     1.0000 0.75401  0.34301  0.22673  Biso   1.000  C
  H84      1.0000 0.69886  0.30030  0.21569  Biso   1.000  H
  C174     1.0000 0.75403  0.34294  0.22673  Biso   1.000  C
  H85      1.0000 0.69876  0.30030  0.21569  Biso   1.000  H
  C175     1.0000 0.77504  0.34903  0.24100  Biso   1.000  C
  H86      1.0000 0.72564  0.35819  0.28480  Biso   1.000  H
  H87      1.0000 0.70275  0.40937  0.21579  Biso   1.000  H
  H88      1.0000 0.83654  0.32741  0.19891  Biso   1.000  H
  H89      1.0000 0.70265  0.40937  0.21579  Biso   1.000  H
  H90      1.0000 0.83647  0.32734  0.19891  Biso   1.000  H
  H91      1.0000 0.71991  0.39009  0.20339  Biso   1.000  H
  H92      1.0000 0.85966  0.36640  0.24511  Biso   1.000  H
  C176     1.0000 0.66588  0.03748  0.46481  Biso   1.000  C
  C177     1.0000 0.68720  0.02811  0.39621  Biso   1.000  C
  C178     1.0000 0.68730  0.02811  0.39621  Biso   1.000  C
  C179     1.0000 0.68267  0.94283  0.49700  Biso   1.000  C
  C180     1.0000 0.68269  0.94276  0.49700  Biso   1.000  C
  H93      1.0000 0.64378  0.09572  0.48773  Biso   1.000  H
  H94      1.0000 0.64381  0.09565  0.48773  Biso   1.000  H
  C181     1.0000 0.71426  0.92530  0.38699  Biso   1.000  C
  H95      1.0000 0.68521  0.07767  0.36121  Biso   1.000  H
  H96      1.0000 0.68531  0.07767  0.36121  Biso   1.000  H
  N19      1.0000 0.71166  0.87595  0.44679  Biso   1.000  N
  N20      1.0000 0.71168  0.87588  0.44679  Biso   1.000  N
  C182     1.0000 0.67300  0.91562  0.56669  Biso   1.000  C
  C183     1.0000 0.75392  0.87304  0.32533  Biso   1.000  C
  C184     1.0000 0.75395  0.87297  0.32533  Biso   1.000  C
  C185     1.0000 0.68095  0.81922  0.59200  Biso   1.000  C
  C186     1.0000 0.65961  0.98751  0.62002  Biso   1.000  C
  C187     1.0000 0.68105  0.81922  0.59200  Biso   1.000  C
  C188     1.0000 0.73656  0.91190  0.25892  Biso   1.000  C
  C189     1.0000 0.80804  0.76850  0.33772  Biso   1.000  C
  C190     1.0000 0.73082  0.73062  0.56153  Biso   1.000  C
  N21      1.0000 0.64348  0.79765  0.65784  Biso   1.000  N
  C191     1.0000 0.73092  0.73062  0.56153  Biso   1.000  C
  N22      1.0000 0.64351  0.79758  0.65784  Biso   1.000  N
  N23      1.0000 0.57163  0.99684  0.67232  Biso   1.000  N
  N24      1.0000 0.57176  0.99677  0.67232  Biso   1.000  N
  N25      1.0000 0.74129  0.04704  0.62133  Biso   1.000  N
  N26      1.0000 0.74132  0.04697  0.62133  Biso   1.000  N
  N27      1.0000 0.67084  0.00397  0.23480  Biso   1.000  N
  C192     1.0000 0.79635  0.86480  0.19553  Biso   1.000  C
  C193     1.0000 0.74183  0.70370  0.31621  Biso   1.000  C
  C194     1.0000 0.92287  0.72323  0.37590  Biso   1.000  C
  C195     1.0000 0.92290  0.72316  0.37590  Biso   1.000  C
  H97      1.0000 0.76198  0.72241  0.51502  Biso   1.000  H
  C196     1.0000 0.72693  0.65925  0.60992  Biso   1.000  C
  C197     1.0000 0.72706  0.65918  0.60992  Biso   1.000  C
  C198     1.0000 0.66883  0.70070  0.67091  Biso   1.000  C
  H98      1.0000 0.60775  0.84043  0.68800  Biso   1.000  H
  H99      1.0000 0.60788  0.84036  0.68800  Biso   1.000  H
  C199     1.0000 0.59869  0.06879  0.70904  Biso   1.000  C
  C200     1.0000 0.70212  0.09820  0.68102  Biso   1.000  C
  C201     1.0000 0.87902  0.03500  0.59450  Biso   1.000  C
  C202     1.0000 0.87912  0.03500  0.59450  Biso   1.000  C
  C203     1.0000 0.87206  0.02702  0.58700  Biso   1.000  C
  C204     1.0000 0.68519  0.02011  0.16251  Biso   1.000  C
  H100     1.0000 0.62474  0.04819  0.26173  Biso   1.000  H
  C205     1.0000 0.76479  0.92654  0.14120  Biso   1.000  C
  C206     1.0000 0.76482  0.92646  0.14120  Biso   1.000  C
  H101     1.0000 0.84930  0.80011  0.19433  Biso   1.000  H
  H102     1.0000 0.84940  0.80011  0.19433  Biso   1.000  H
  F45      1.0000 0.62654  0.73852  0.27808  Biso   1.000  F
  C207     1.0000 0.78541  0.60869  0.33001  Biso   1.000  C
  C208     1.0000 0.78551  0.60869  0.33001  Biso   1.000  C
  F46      1.0000 0.99664  0.77983  0.39804  Biso   1.000  F
  C209     1.0000 0.96883  0.62904  0.39022  Biso   1.000  C
  F47      1.0000 0.99666  0.77976  0.39804  Biso   1.000  F
  C210     1.0000 0.96886  0.62897  0.39022  Biso   1.000  C
  H103     1.0000 0.75823  0.59251  0.60362  Biso   1.000  H
  H104     1.0000 0.75833  0.59251  0.60362  Biso   1.000  H
  C211     1.0000 0.64168  0.65720  0.73331  Biso   1.000  C
  C212     1.0000 0.64177  0.65720  0.73331  Biso   1.000  C
  H105     1.0000 0.54996  0.09411  0.74894  Biso   1.000  H
  H106     1.0000 0.55005  0.09411  0.74894  Biso   1.000  H
  H107     1.0000 0.74075  0.14429  0.69820  Biso   1.000  H
  H108     1.0000 0.74085  0.14429  0.69820  Biso   1.000  H
  H109     1.0000 0.87708  0.04063  0.54299  Biso   1.000  H
  C213     1.0000 0.97777  0.93721  0.62023  Biso   1.000  C
  C214     1.0000 0.96956  0.95648  0.63502  Biso   1.000  C
  H110     1.0000 0.91373  0.08803  0.61013  Biso   1.000  H
  H111     1.0000 0.91385  0.08796  0.61013  Biso   1.000  H
  H112     1.0000 0.89992  0.08696  0.57903  Biso   1.000  H
  H113     1.0000 0.86750  0.00027  0.54153  Biso   1.000  H
  C215     1.0000 0.63267  0.10143  0.12433  Biso   1.000  C
  C216     1.0000 0.63279  0.10136  0.12433  Biso   1.000  C
  H114     1.0000 0.79006  0.91234  0.09459  Biso   1.000  H
  H115     1.0000 0.79018  0.91226  0.09459  Biso   1.000  H
  F48      1.0000 0.71616  0.54908  0.30642  Biso   1.000  F
  C217     1.0000 0.89977  0.56732  0.36861  Biso   1.000  C
  F49      1.0000 0.08352  0.58989  0.42720  Biso   1.000  F
  C218     1.0000 0.56642  0.69994  0.78951  Biso   1.000  C
  C219     1.0000 0.70296  0.55069  0.74211  Biso   1.000  C
  C220     1.0000 0.70306  0.55069  0.74211  Biso   1.000  C
  C221     1.0000 0.01365  0.85852  0.57971  Biso   1.000  C
  C222     1.0000 0.02391  0.92901  0.68852  Biso   1.000  C
  C223     1.0000 0.01355  0.85852  0.57971  Biso   1.000  C
  C224     1.0000 0.02381  0.92901  0.68852  Biso   1.000  C
  C225     1.0000 0.00643  0.86219  0.61612  Biso   1.000  C
  C226     1.0000 0.00858  0.97818  0.69930  Biso   1.000  C
  C227     1.0000 0.55133  0.18996  0.14683  Biso   1.000  C
  C228     1.0000 0.67075  0.10099  0.04870  Biso   1.000  C
  C229     1.0000 0.67085  0.10099  0.04870  Biso   1.000  C
  F50      1.0000 0.94627  0.47391  0.38371  Biso   1.000  F
  N28      1.0000 0.50161  0.79935  0.78800  Biso   1.000  N
  N29      1.0000 0.50164  0.79928  0.78800  Biso   1.000  N
  C230     1.0000 0.55271  0.65230  0.85571  Biso   1.000  C
  C231     1.0000 0.55280  0.65230  0.85571  Biso   1.000  C
  C232     1.0000 0.83161  0.50961  0.76711  Biso   1.000  C
  C233     1.0000 0.63654  0.48646  0.72383  Biso   1.000  C
  C234     1.0000 0.63667  0.48639  0.72383  Biso   1.000  C
  H116     1.0000 0.98218  0.86421  0.53299  Biso   1.000  H
  C235     1.0000 0.09541  0.77155  0.60752  Biso   1.000  C
  C236     1.0000 0.09543  0.77148  0.60752  Biso   1.000  C
  H117     1.0000 0.99935  0.98281  0.71623  Biso   1.000  H
  H118     1.0000 0.99945  0.98281  0.71623  Biso   1.000  H
  C237     1.0000 0.10572  0.84190  0.71633  Biso   1.000  C
  C238     1.0000 0.10563  0.84190  0.71633  Biso   1.000  C
  C239     1.0000 0.08450  0.90572  0.74482  Biso   1.000  C
  H119     1.0000 0.97973  0.84732  0.57221  Biso   1.000  H
  C240     1.0000 0.08241  0.78958  0.66164  Biso   1.000  C
  H120     1.0000 0.98332  0.04268  0.71222  Biso   1.000  H
  N30      1.0000 0.49843  0.20071  0.21199  Biso   1.000  N
  C241     1.0000 0.52291  0.27860  0.10438  Biso   1.000  C
  C242     1.0000 0.58550  0.10127  0.99693  Biso   1.000  C
  C243     1.0000 0.58540  0.10127  0.99693  Biso   1.000  C
  C244     1.0000 0.79545  0.10270  0.02568  Biso   1.000  C
  C245     1.0000 0.79554  0.10270  0.02568  Biso   1.000  C
  C246     1.0000 0.44874  0.81002  0.85321  Biso   1.000  C
  C247     1.0000 0.47714  0.72146  0.89561  Biso   1.000  C
  C248     1.0000 0.47717  0.72139  0.89561  Biso   1.000  C
  H121     1.0000 0.58886  0.58623  0.86904  Biso   1.000  H
  H122     1.0000 0.58896  0.58623  0.86904  Biso   1.000  H
  F51      1.0000 0.90609  0.56664  0.78524  Biso   1.000  F
  C249     1.0000 0.88790  0.41313  0.77263  Biso   1.000  C
  F52      1.0000 0.50952  0.52043  0.69831  Biso   1.000  F
  C250     1.0000 0.68844  0.38962  0.72852  Biso   1.000  C
  H123     1.0000 0.11987  0.71774  0.57992  Biso   1.000  H
  C251     1.0000 0.14151  0.76321  0.67581  Biso   1.000  C
  H124     1.0000 0.11980  0.71766  0.57992  Biso   1.000  H
  C252     1.0000 0.14141  0.76321  0.67581  Biso   1.000  C
  H125     1.0000 0.10771  0.72523  0.64872  Biso   1.000  H
  H126     1.0000 0.13704  0.83635  0.76300  Biso   1.000  H
  H127     1.0000 0.13706  0.83628  0.76300  Biso   1.000  H
  O7       1.0000 0.19611  0.74991  0.77539  Biso   1.000  O
  C253     1.0000 0.12156  0.81142  0.72602  Biso   1.000  C
  H128     1.0000 0.11129  0.92058  0.78883  Biso   1.000  H
  C254     1.0000 0.43362  0.30012  0.21053  Biso   1.000  C
  C255     1.0000 0.43365  0.30005  0.21053  Biso   1.000  C
  C256     1.0000 0.44727  0.34768  0.14433  Biso   1.000  C
  C257     1.0000 0.44737  0.34768  0.14433  Biso   1.000  C
  H129     1.0000 0.55115  0.28727  0.05792  Biso   1.000  H
  H130     1.0000 0.55125  0.28727  0.05792  Biso   1.000  H
  F53      1.0000 0.45551  0.10339  0.01313  Biso   1.000  F
  C258     1.0000 0.61614  0.10508  0.92734  Biso   1.000  C
  C259     1.0000 0.61607  0.10501  0.92734  Biso   1.000  C
  C260     1.0000 0.83315  0.10569  0.95797  Biso   1.000  C
  C261     1.0000 0.83308  0.10562  0.95797  Biso   1.000  C
  F54      1.0000 0.89125  0.09972  0.07401  Biso   1.000  F
  F55      1.0000 0.89137  0.09965  0.07401  Biso   1.000  F
  C262     1.0000 0.36728  0.89863  0.87571  Biso   1.000  C
  C263     1.0000 0.36738  0.89863  0.87571  Biso   1.000  C
  H131     1.0000 0.44882  0.71271  0.94212  Biso   1.000  H
  C264     1.0000 0.81646  0.35233  0.75430  Biso   1.000  C
  C265     1.0000 0.81656  0.35233  0.75430  Biso   1.000  C
  F56      1.0000 0.01388  0.37611  0.79862  Biso   1.000  F
  F57      1.0000 0.61920  0.32979  0.71133  Biso   1.000  F
  O8       1.0000 0.21160  0.67134  0.70003  Biso   1.000  O
  O9       1.0000 0.21153  0.67127  0.70003  Biso   1.000  O
  C266     1.0000 0.24604  0.65704  0.77331  Biso   1.000  C
  H132     1.0000 0.30128  0.69976  0.78430  Biso   1.000  H
  C267     1.0000 0.24607  0.65697  0.77331  Biso   1.000  C
  H133     1.0000 0.30121  0.69969  0.78430  Biso   1.000  H
  C268     1.0000 0.22501  0.65103  0.75904  Biso   1.000  C
  C269     1.0000 0.35830  0.34278  0.26673  Biso   1.000  C
  C270     1.0000 0.35840  0.34278  0.26673  Biso   1.000  C
  H134     1.0000 0.41109  0.41383  0.13099  Biso   1.000  H
  H135     1.0000 0.41112  0.41375  0.13099  Biso   1.000  H
  F58      1.0000 0.52480  0.10985  0.87817  Biso   1.000  F
  C271     1.0000 0.74328  0.10898  0.90776  Biso   1.000  C
  C272     1.0000 0.74331  0.10891  0.90776  Biso   1.000  C
  F59      1.0000 0.95784  0.10686  0.93937  Biso   1.000  F
  F60      1.0000 0.95774  0.10686  0.93937  Biso   1.000  F
  C273     1.0000 0.31475  0.97994  0.83753  Biso   1.000  C
  C274     1.0000 0.31488  0.97987  0.83753  Biso   1.000  C
  C275     1.0000 0.32922  0.89899  0.95134  Biso   1.000  C
  F61      1.0000 0.87420  0.25652  0.76107  Biso   1.000  F
  H136     1.0000 0.27444  0.64180  0.71524  Biso   1.000  H
  H137     1.0000 0.29742  0.59062  0.78420  Biso   1.000  H
  H138     1.0000 0.16361  0.67264  0.80113  Biso   1.000  H
  H139     1.0000 0.29732  0.59062  0.78420  Biso   1.000  H
  H140     1.0000 0.16354  0.67257  0.80113  Biso   1.000  H
  H141     1.0000 0.28016  0.60989  0.79659  Biso   1.000  H
  H142     1.0000 0.14032  0.63359  0.75493  Biso   1.000  H
  C276     1.0000 0.33124  0.29928  0.32913  Biso   1.000  C
  C277     1.0000 0.29701  0.44929  0.25793  Biso   1.000  C
  F62      1.0000 0.77853  0.11028  0.84072  Biso   1.000  F
  F63      1.0000 0.77846  0.11020  0.84072  Biso   1.000  F
  N31      1.0000 0.32924  0.99601  0.76524  Biso   1.000  N
  C278     1.0000 0.23516  0.07352  0.85884  Biso   1.000  C
  C279     1.0000 0.23526  0.07352  0.85884  Biso   1.000  C
  C280     1.0000 0.20453  0.89729  0.97431  Biso   1.000  C
  C281     1.0000 0.41474  0.89879  0.00306  Biso   1.000  C
  C282     1.0000 0.41467  0.89872  0.00306  Biso   1.000  C
  N32      1.0000 0.35656  0.20240  0.34220  Biso   1.000  N
  C283     1.0000 0.27301  0.34080  0.39012  Biso   1.000  C
  C284     1.0000 0.27311  0.34080  0.39012  Biso   1.000  C
  C285     1.0000 0.16846  0.49037  0.23293  Biso   1.000  C
  C286     1.0000 0.36340  0.51360  0.27621  Biso   1.000  C
  C287     1.0000 0.36350  0.51360  0.27621  Biso   1.000  C
  C288     1.0000 0.26352  0.08808  0.74112  Biso   1.000  C
  H143     1.0000 0.37533  0.95179  0.73831  Biso   1.000  H
  C289     1.0000 0.20372  0.13518  0.80451  Biso   1.000  C
  H144     1.0000 0.20989  0.08772  0.90540  Biso   1.000  H
  H145     1.0000 0.20999  0.08772  0.90540  Biso   1.000  H
  F64      1.0000 0.10870  0.90033  0.92603  Biso   1.000  F
  F65      1.0000 0.10880  0.90033  0.92603  Biso   1.000  F
  C290     1.0000 0.16709  0.89436  0.04207  Biso   1.000  C
  C291     1.0000 0.16700  0.89436  0.04207  Biso   1.000  C
  F66      1.0000 0.54457  0.89659  0.98691  Biso   1.000  F
  C292     1.0000 0.38410  0.89497  0.07270  Biso   1.000  C
  C293     1.0000 0.38403  0.89490  0.07270  Biso   1.000  C
  C294     1.0000 0.31900  0.18084  0.40798  Biso   1.000  C
  H146     1.0000 0.39220  0.15962  0.31199  Biso   1.000  H
  C295     1.0000 0.31912  0.18077  0.40798  Biso   1.000  C
  H147     1.0000 0.39232  0.15955  0.31199  Biso   1.000  H
  H148     1.0000 0.24175  0.40747  0.39642  Biso   1.000  H
  C296     1.0000 0.26913  0.26944  0.43851  Biso   1.000  C
  C297     1.0000 0.26916  0.26937  0.43851  Biso   1.000  C
  F67      1.0000 0.09386  0.43342  0.21480  Biso   1.000  F
  C298     1.0000 0.11214  0.58692  0.22740  Biso   1.000  C
  F68      1.0000 0.09398  0.43335  0.21480  Biso   1.000  F
  C299     1.0000 0.11217  0.58685  0.22740  Biso   1.000  C
  C300     1.0000 0.31164  0.61036  0.27152  Biso   1.000  C
  F69      1.0000 0.49052  0.47962  0.30173  Biso   1.000  F
  F70      1.0000 0.49055  0.47955  0.30173  Biso   1.000  F
  C301     1.0000 0.24603  0.12701  0.67471  Biso   1.000  C
  C302     1.0000 0.24613  0.12701  0.67471  Biso   1.000  C
  H149     1.0000 0.15064  0.19995  0.80571  Biso   1.000  H
  H150     1.0000 0.15077  0.19988  0.80571  Biso   1.000  H
  F71      1.0000 0.04230  0.89319  0.06067  Biso   1.000  F
  C303     1.0000 0.25686  0.89107  0.09228  Biso   1.000  C
  F72      1.0000 0.04233  0.89312  0.06067  Biso   1.000  F
  C304     1.0000 0.25676  0.89107  0.09228  Biso   1.000  C
  F73      1.0000 0.47537  0.89013  0.12187  Biso   1.000  F
  F74      1.0000 0.47527  0.89013  0.12187  Biso   1.000  F
  C305     1.0000 0.32705  0.08444  0.43330  Biso   1.000  C
  C306     1.0000 0.32708  0.08437  0.43330  Biso   1.000  C
  H151     1.0000 0.23810  0.27757  0.48502  Biso   1.000  H
  F75      1.0000 0.98620  0.62387  0.20141  Biso   1.000  F
  C307     1.0000 0.18349  0.64773  0.24569  Biso   1.000  C
  C308     1.0000 0.18352  0.64765  0.24569  Biso   1.000  C
  F76      1.0000 0.38077  0.67019  0.28871  Biso   1.000  F
  F77      1.0000 0.38087  0.67019  0.28871  Biso   1.000  F
  C309     1.0000 0.28581  0.07469  0.61299  Biso   1.000  C
  C310     1.0000 0.19203  0.23148  0.66232  Biso   1.000  C
  F78      1.0000 0.22171  0.88978  0.15932  Biso   1.000  F
  F79      1.0000 0.22164  0.88971  0.15932  Biso   1.000  F
  C311     1.0000 0.34046  0.01247  0.38001  Biso   1.000  C
  C312     1.0000 0.31738  0.05723  0.50299  Biso   1.000  C
  C313     1.0000 0.31741  0.05716  0.50299  Biso   1.000  C
  F80      1.0000 0.12578  0.74346  0.23897  Biso   1.000  F
  F81      1.0000 0.12588  0.74346  0.23897  Biso   1.000  F
  N33      1.0000 0.28839  0.12411  0.55320  Biso   1.000  N
  C314     1.0000 0.31275  0.97194  0.60383  Biso   1.000  C
  C315     1.0000 0.31287  0.97187  0.60383  Biso   1.000  C
  C316     1.0000 0.25814  0.29628  0.68383  Biso   1.000  C
  C317     1.0000 0.07718  0.27682  0.62414  Biso   1.000  C
  C318     1.0000 0.25824  0.29628  0.68383  Biso   1.000  C
  C319     1.0000 0.07720  0.27675  0.62414  Biso   1.000  C
  N34      1.0000 0.25875  0.95301  0.37871  Biso   1.000  N
  N35      1.0000 0.42832  0.00322  0.32772  Biso   1.000  N
  N36      1.0000 0.42841  0.00322  0.32772  Biso   1.000  N
  C320     1.0000 0.33420  0.96250  0.53523  Biso   1.000  C
  H152     1.0000 0.31477  0.92231  0.63883  Biso   1.000  H
  H153     1.0000 0.31486  0.92231  0.63883  Biso   1.000  H
  C321     1.0000 0.21457  0.39129  0.67003  Biso   1.000  C
  F82      1.0000 0.37351  0.26154  0.72190  Biso   1.000  F
  F83      1.0000 0.37354  0.26147  0.72190  Biso   1.000  F
  F84      1.0000 0.00331  0.22023  0.60200  Biso   1.000  F
  C322     1.0000 0.03112  0.37102  0.60982  Biso   1.000  C
  F85      1.0000 0.00344  0.22015  0.60200  Biso   1.000  F
  C323     1.0000 0.03122  0.37102  0.60982  Biso   1.000  C
  C324     1.0000 0.29796  0.90179  0.31902  Biso   1.000  C
  C325     1.0000 0.12095  0.96498  0.40548  Biso   1.000  C
  C326     1.0000 0.12799  0.97304  0.41298  Biso   1.000  C
  C327     1.0000 0.40138  0.93119  0.29100  Biso   1.000  C
  H154     1.0000 0.35627  0.90433  0.51231  Biso   1.000  H
  H155     1.0000 0.35629  0.90426  0.51231  Biso   1.000  H
  F86      1.0000 0.28392  0.45090  0.69362  Biso   1.000  F
  C328     1.0000 0.10028  0.43273  0.63143  Biso   1.000  C
  C329     1.0000 0.10031  0.43266  0.63143  Biso   1.000  C
  F87      1.0000 0.91655  0.41010  0.57283  Biso   1.000  F
  H156     1.0000 0.25922  0.85570  0.30178  Biso   1.000  H
  H157     1.0000 0.25932  0.85570  0.30178  Biso   1.000  H
  H158     1.0000 0.08622  0.91202  0.38991  Biso   1.000  H
  H159     1.0000 0.12296  0.95943  0.45700  Biso   1.000  H
  H160     1.0000 0.08632  0.91202  0.38991  Biso   1.000  H
  H161     1.0000 0.12299  0.95936  0.45700  Biso   1.000  H
  H162     1.0000 0.10015  0.91302  0.42101  Biso   1.000  H
  H163     1.0000 0.13258  0.99971  0.45851  Biso   1.000  H
  C330     1.0000 0.02221  0.06277  0.37981  Biso   1.000  C
  C331     1.0000 0.02231  0.06277  0.37981  Biso   1.000  C
  C332     1.0000 0.03051  0.04350  0.36501  Biso   1.000  C
  H164     1.0000 0.45002  0.90588  0.25110  Biso   1.000  H
  H165     1.0000 0.45012  0.90588  0.25110  Biso   1.000  H
  F88      1.0000 0.05380  0.52607  0.61633  Biso   1.000  F
  C333     1.0000 0.98640  0.14154  0.42033  Biso   1.000  C
  C334     1.0000 0.97626  0.07097  0.31152  Biso   1.000  C
  C335     1.0000 0.98643  0.14147  0.42033  Biso   1.000  C
  C336     1.0000 0.97616  0.07097  0.31152  Biso   1.000  C
  C337     1.0000 0.99365  0.13779  0.38392  Biso   1.000  C
  C338     1.0000 0.99150  0.02181  0.30069  Biso   1.000  C
  H166     1.0000 0.01789  0.13578  0.46700  Biso   1.000  H
  C339     1.0000 0.90464  0.22850  0.39252  Biso   1.000  C
  C340     1.0000 0.90454  0.22850  0.39252  Biso   1.000  C
  C341     1.0000 0.89445  0.15808  0.28371  Biso   1.000  C
  C342     1.0000 0.89435  0.15808  0.28371  Biso   1.000  C
  C343     1.0000 0.91555  0.09434  0.25522  Biso   1.000  C
  H167     1.0000 0.00060  0.01724  0.28381  Biso   1.000  H
  H168     1.0000 0.00072  0.01717  0.28381  Biso   1.000  H
  C344     1.0000 0.91767  0.21040  0.33840  Biso   1.000  C
  H169     1.0000 0.02031  0.15274  0.42783  Biso   1.000  H
  H170     1.0000 0.01676  0.95730  0.28782  Biso   1.000  H
  H171     1.0000 0.88027  0.28232  0.42012  Biso   1.000  H
  C345     1.0000 0.85866  0.23677  0.32423  Biso   1.000  C
  H172     1.0000 0.88020  0.28225  0.42012  Biso   1.000  H
  C346     1.0000 0.85857  0.23677  0.32423  Biso   1.000  C
  H173     1.0000 0.89234  0.27483  0.35132  Biso   1.000  H
  H174     1.0000 0.86301  0.16371  0.23699  Biso   1.000  H
  O10      1.0000 0.80387  0.25008  0.22459  Biso   1.000  O
  C347     1.0000 0.87849  0.18864  0.27402  Biso   1.000  C
  H175     1.0000 0.88878  0.07940  0.21121  Biso   1.000  H
  O11      1.0000 0.78854  0.32871  0.30001  Biso   1.000  O
  O12      1.0000 0.78844  0.32871  0.30001  Biso   1.000  O
  C348     1.0000 0.75401  0.34301  0.22673  Biso   1.000  C
  H176     1.0000 0.69886  0.30030  0.21569  Biso   1.000  H
  C349     1.0000 0.75403  0.34294  0.22673  Biso   1.000  C
  H177     1.0000 0.69876  0.30030  0.21569  Biso   1.000  H
  C350     1.0000 0.77504  0.34903  0.24100  Biso   1.000  C
  H178     1.0000 0.72564  0.35819  0.28480  Biso   1.000  H
  H179     1.0000 0.70275  0.40937  0.21579  Biso   1.000  H
  H180     1.0000 0.83654  0.32741  0.19891  Biso   1.000  H
  H181     1.0000 0.70265  0.40937  0.21579  Biso   1.000  H
  H182     1.0000 0.83647  0.32734  0.19891  Biso   1.000  H
  H183     1.0000 0.71991  0.39009  0.20339  Biso   1.000  H
  H184     1.0000 0.85966  0.36640  0.24511  Biso   1.000  H
