data_image0
_cell_length_a       24.68
_cell_length_b       24.68
_cell_length_c       101.978
_cell_angle_alpha    90
_cell_angle_beta     90
_cell_angle_gamma    120

_symmetry_space_group_name_H-M    "P 1"
_symmetry_int_tables_number       1

loop_
  _symmetry_equiv_pos_as_xyz
  'x, y, z'

loop_
  _atom_site_label
  _atom_site_occupancy
  _atom_site_fract_x
  _atom_site_fract_y
  _atom_site_fract_z
  _atom_site_thermal_displace_type
  _atom_site_B_iso_or_equiv
  _atom_site_type_symbol
  C1       1.0000 0.52519  0.66026  0.48554  Biso   1.000  C
  C2       1.0000 0.58148  0.71701  0.48566  Biso   1.000  C
  H1       1.0000 0.52568  0.62283  0.48554  Biso   1.000  H
  C3       1.0000 0.46944  0.65913  0.48539  Biso   1.000  C
  C4       1.0000 0.64255  0.72085  0.48645  Biso   1.000  C
  C5       1.0000 0.57868  0.77203  0.48557  Biso   1.000  C
  C6       1.0000 0.46588  0.71401  0.48538  Biso   1.000  C
  C7       1.0000 0.40487  0.60173  0.48556  Biso   1.000  C
  N1       1.0000 0.64804  0.67331  0.48824  Biso   1.000  N
  H2       1.0000 0.61568  0.81044  0.48554  Biso   1.000  H
  C8       1.0000 0.52234  0.77077  0.48547  Biso   1.000  C
  C9       1.0000 0.39951  0.69675  0.48516  Biso   1.000  C
  C10      1.0000 0.36294  0.63050  0.48531  Biso   1.000  C
  C11      1.0000 0.39742  0.56210  0.47315  Biso   1.000  C
  C12      1.0000 0.39711  0.56472  0.49849  Biso   1.000  C
  C13      1.0000 0.71225  0.68374  0.48927  Biso   1.000  C
  H3       1.0000 0.52178  0.80815  0.48544  Biso   1.000  H
  C14      1.0000 0.36951  0.73245  0.48531  Biso   1.000  C
  C15      1.0000 0.29726  0.60051  0.48516  Biso   1.000  C
  H4       1.0000 0.42918  0.54993  0.47334  Biso   1.000  H
  H5       1.0000 0.35697  0.52415  0.47353  Biso   1.000  H
  C16      1.0000 0.40238  0.59405  0.46052  Biso   1.000  C
  H6       1.0000 0.35458  0.52981  0.49893  Biso   1.000  H
  H7       1.0000 0.42487  0.54755  0.49814  Biso   1.000  H
  C17      1.0000 0.41068  0.60304  0.51093  Biso   1.000  C
  C18      1.0000 0.71838  0.63888  0.47999  Biso   1.000  C
  H8       1.0000 0.74169  0.72665  0.48654  Biso   1.000  H
  C19      1.0000 0.72499  0.67673  0.50348  Biso   1.000  C
  C20      1.0000 0.30323  0.70274  0.48516  Biso   1.000  C
  C21      1.0000 0.39829  0.80314  0.48556  Biso   1.000  C
  C22      1.0000 0.24814  0.53412  0.48538  Biso   1.000  C
  C23      1.0000 0.26758  0.63710  0.48531  Biso   1.000  C
  H9       1.0000 0.44024  0.63462  0.46083  Biso   1.000  H
  H10      1.0000 0.36738  0.60154  0.45993  Biso   1.000  H
  C24      1.0000 0.40366  0.56032  0.44747  Biso   1.000  C
  H11      1.0000 0.38239  0.61965  0.51134  Biso   1.000  H
  H12      1.0000 0.45294  0.63822  0.51043  Biso   1.000  H
  C25      1.0000 0.40417  0.56734  0.52360  Biso   1.000  C
  N2       1.0000 0.70411  0.65043  0.46662  Biso   1.000  N
  H13      1.0000 0.68747  0.59592  0.48244  Biso   1.000  H
  C26      1.0000 0.78203  0.64486  0.47997  Biso   1.000  C
  C27      1.0000 0.68246  0.62554  0.51077  Biso   1.000  C
  C28      1.0000 0.77766  0.72314  0.50980  Biso   1.000  C
  C29      1.0000 0.28598  0.75187  0.48538  Biso   1.000  C
  C30      1.0000 0.34089  0.81030  0.48539  Biso   1.000  C
  C31      1.0000 0.43790  0.83529  0.47315  Biso   1.000  C
  C32      1.0000 0.43528  0.83239  0.49849  Biso   1.000  C
  C33      1.0000 0.18971  0.53056  0.48539  Biso   1.000  C
  C34      1.0000 0.24843  0.47765  0.48547  Biso   1.000  C
  C35      1.0000 0.19684  0.59513  0.48556  Biso   1.000  C
  H14      1.0000 0.36758  0.51854  0.44723  Biso   1.000  H
  H15      1.0000 0.40127  0.58334  0.44004  Biso   1.000  H
  C36      1.0000 0.46358  0.55625  0.44655  Biso   1.000  C
  H16      1.0000 0.43676  0.55634  0.52413  Biso   1.000  H
  H17      1.0000 0.36395  0.52911  0.52383  Biso   1.000  H
  C37      1.0000 0.41047  0.61324  0.53609  Biso   1.000  C
  C38      1.0000 0.66607  0.60402  0.46003  Biso   1.000  C
  C39      1.0000 0.78987  0.59522  0.48177  Biso   1.000  C
  C40      1.0000 0.83527  0.70222  0.47771  Biso   1.000  C
  H18      1.0000 0.64737  0.59344  0.50674  Biso   1.000  H
  C41      1.0000 0.69208  0.62184  0.52416  Biso   1.000  C
  H19      1.0000 0.80657  0.75762  0.50503  Biso   1.000  H
  C42      1.0000 0.78818  0.71963  0.52293  Biso   1.000  C
  C43      1.0000 0.22924  0.75158  0.48547  Biso   1.000  C
  C44      1.0000 0.33974  0.86490  0.48554  Biso   1.000  C
  H20      1.0000 0.45006  0.87922  0.47334  Biso   1.000  H
  H21      1.0000 0.47587  0.83285  0.47353  Biso   1.000  H
  C45      1.0000 0.40595  0.80834  0.46052  Biso   1.000  C
  H22      1.0000 0.47018  0.82471  0.49893  Biso   1.000  H
  H23      1.0000 0.45249  0.87735  0.49814  Biso   1.000  H
  C46      1.0000 0.39697  0.80764  0.51093  Biso   1.000  C
  C47      1.0000 0.13507  0.47484  0.48554  Biso   1.000  C
  C48      1.0000 0.19336  0.42132  0.48557  Biso   1.000  C
  H24      1.0000 0.28637  0.47826  0.48544  Biso   1.000  H
  C49      1.0000 0.16472  0.60262  0.47315  Biso   1.000  C
  C50      1.0000 0.16761  0.60290  0.49849  Biso   1.000  C
  H25      1.0000 0.49938  0.59714  0.44773  Biso   1.000  H
  H26      1.0000 0.46559  0.54025  0.43813  Biso   1.000  H
  H27      1.0000 0.46316  0.52883  0.45324  Biso   1.000  H
  H28      1.0000 0.45086  0.65043  0.53583  Biso   1.000  H
  H29      1.0000 0.40565  0.59153  0.54414  Biso   1.000  H
  H30      1.0000 0.37846  0.62442  0.53543  Biso   1.000  H
  C51      1.0000 0.64726  0.60814  0.44629  Biso   1.000  C
  H31      1.0000 0.75516  0.55634  0.48354  Biso   1.000  H
  C52      1.0000 0.84949  0.60084  0.48110  Biso   1.000  C
  H32      1.0000 0.83188  0.73783  0.47673  Biso   1.000  H
  C53      1.0000 0.89327  0.70704  0.47694  Biso   1.000  C
  H33      1.0000 0.66328  0.58783  0.52913  Biso   1.000  H
  C54      1.0000 0.74568  0.67013  0.53003  Biso   1.000  C
  H34      1.0000 0.82417  0.75102  0.52694  Biso   1.000  H
  C55      1.0000 0.22796  0.80665  0.48557  Biso   1.000  C
  H35      1.0000 0.19187  0.71364  0.48544  Biso   1.000  H
  C56      1.0000 0.28299  0.86443  0.48566  Biso   1.000  C
  H36      1.0000 0.37719  0.90285  0.48554  Biso   1.000  H
  H37      1.0000 0.36537  0.80562  0.46083  Biso   1.000  H
  H38      1.0000 0.39849  0.76585  0.45993  Biso   1.000  H
  C57      1.0000 0.43966  0.84333  0.44747  Biso   1.000  C
  H39      1.0000 0.38035  0.76272  0.51134  Biso   1.000  H
  H40      1.0000 0.36179  0.81475  0.51043  Biso   1.000  H
  C58      1.0000 0.43268  0.83683  0.52360  Biso   1.000  C
  C59      1.0000 0.13553  0.41856  0.48566  Biso   1.000  C
  H41      1.0000 0.09717  0.47433  0.48554  Biso   1.000  H
  H42      1.0000 0.19477  0.38435  0.48554  Biso   1.000  H
  H43      1.0000 0.12076  0.57085  0.47334  Biso   1.000  H
  H44      1.0000 0.16718  0.64304  0.47353  Biso   1.000  H
  C60      1.0000 0.19170  0.59766  0.46052  Biso   1.000  C
  H45      1.0000 0.17527  0.64543  0.49893  Biso   1.000  H
  H46      1.0000 0.12266  0.57515  0.49814  Biso   1.000  H
  C61      1.0000 0.19235  0.58933  0.51093  Biso   1.000  C
  C62      1.0000 0.66679  0.66536  0.44049  Biso   1.000  C
  C63      1.0000 0.61057  0.55583  0.43945  Biso   1.000  C
  H47      1.0000 0.85396  0.56603  0.48233  Biso   1.000  H
  C64      1.0000 0.90056  0.65824  0.47861  Biso   1.000  C
  H48      1.0000 0.92805  0.74574  0.47513  Biso   1.000  H
  H49      1.0000 0.75234  0.66821  0.53893  Biso   1.000  H
  H50      1.0000 0.18958  0.80525  0.48554  Biso   1.000  H
  C65      1.0000 0.27917  0.92170  0.48645  Biso   1.000  C
  H51      1.0000 0.48149  0.84904  0.44723  Biso   1.000  H
  H52      1.0000 0.41666  0.81793  0.44004  Biso   1.000  H
  C66      1.0000 0.44378  0.90734  0.44655  Biso   1.000  C
  H53      1.0000 0.44366  0.88044  0.52413  Biso   1.000  H
  H54      1.0000 0.47085  0.83482  0.52383  Biso   1.000  H
  C67      1.0000 0.38679  0.79725  0.53609  Biso   1.000  C
  C68      1.0000 0.07832  0.35745  0.48645  Biso   1.000  C
  H55      1.0000 0.19436  0.55971  0.46083  Biso   1.000  H
  H56      1.0000 0.23419  0.63265  0.45993  Biso   1.000  H
  C69      1.0000 0.15668  0.59635  0.44747  Biso   1.000  C
  H57      1.0000 0.23726  0.61763  0.51134  Biso   1.000  H
  H58      1.0000 0.18527  0.54703  0.51043  Biso   1.000  H
  C70      1.0000 0.16315  0.59583  0.52360  Biso   1.000  C
  C71      1.0000 0.64775  0.66812  0.42776  Biso   1.000  C
  H59      1.0000 0.69255  0.70204  0.44504  Biso   1.000  H
  C72      1.0000 0.59045  0.55602  0.42679  Biso   1.000  C
  H60      1.0000 0.59805  0.51742  0.44343  Biso   1.000  H
  H61      1.0000 0.94016  0.66274  0.47813  Biso   1.000  H
  N3       1.0000 0.32670  0.97471  0.48824  Biso   1.000  N
  H62      1.0000 0.40286  0.90224  0.44773  Biso   1.000  H
  H63      1.0000 0.45976  0.92535  0.43813  Biso   1.000  H
  H64      1.0000 0.47118  0.93433  0.45324  Biso   1.000  H
  H65      1.0000 0.34957  0.80043  0.53583  Biso   1.000  H
  H66      1.0000 0.40849  0.81414  0.54414  Biso   1.000  H
  H67      1.0000 0.37555  0.75402  0.53543  Biso   1.000  H
  N4       1.0000 0.02530  0.35198  0.48824  Biso   1.000  N
  H68      1.0000 0.15097  0.63242  0.44723  Biso   1.000  H
  H69      1.0000 0.18206  0.59873  0.44004  Biso   1.000  H
  C73      1.0000 0.09264  0.53641  0.44655  Biso   1.000  C
  H70      1.0000 0.11958  0.56322  0.52413  Biso   1.000  H
  H71      1.0000 0.16517  0.63602  0.52383  Biso   1.000  H
  C74      1.0000 0.20274  0.58951  0.53609  Biso   1.000  C
  C75      1.0000 0.60948  0.61394  0.42093  Biso   1.000  C
  C76      1.0000 0.66545  0.72693  0.42019  Biso   1.000  C
  H72      1.0000 0.56517  0.51891  0.42234  Biso   1.000  H
  C77      1.0000 0.31628  0.02852  0.48927  Biso   1.000  C
  C78      1.0000 0.97146  0.28774  0.48927  Biso   1.000  C
  H73      1.0000 0.09776  0.50062  0.44773  Biso   1.000  H
  H74      1.0000 0.07468  0.53445  0.43813  Biso   1.000  H
  H75      1.0000 0.06566  0.53683  0.45324  Biso   1.000  H
  H76      1.0000 0.19957  0.54914  0.53583  Biso   1.000  H
  H77      1.0000 0.18586  0.59433  0.54414  Biso   1.000  H
  H78      1.0000 0.24597  0.62152  0.53543  Biso   1.000  H
  C79      1.0000 0.59676  0.63242  0.40774  Biso   1.000  C
  C80      1.0000 0.62905  0.69853  0.40731  Biso   1.000  C
  C81      1.0000 0.64279  0.76515  0.42784  Biso   1.000  C
  C82      1.0000 0.73786  0.76323  0.41810  Biso   1.000  C
  C83      1.0000 0.36111  0.07951  0.47999  Biso   1.000  C
  H79      1.0000 0.27336  0.01504  0.48654  Biso   1.000  H
  C84      1.0000 0.32330  0.04831  0.50348  Biso   1.000  C
  C85      1.0000 0.92051  0.28161  0.47999  Biso   1.000  C
  H80      1.0000 0.98495  0.25831  0.48654  Biso   1.000  H
  C86      1.0000 0.95173  0.27501  0.50348  Biso   1.000  C
  C87      1.0000 0.56499  0.59766  0.39676  Biso   1.000  C
  C88      1.0000 0.62608  0.72922  0.39613  Biso   1.000  C
  H81      1.0000 0.66216  0.77423  0.43644  Biso   1.000  H
  H82      1.0000 0.65755  0.80473  0.42334  Biso   1.000  H
  C89      1.0000 0.57306  0.73535  0.42963  Biso   1.000  C
  H83      1.0000 0.74897  0.80174  0.41343  Biso   1.000  H
  H84      1.0000 0.75767  0.77465  0.42663  Biso   1.000  H
  C90      1.0000 0.76485  0.73002  0.41081  Biso   1.000  C
  N5       1.0000 0.34957  0.05369  0.46662  Biso   1.000  N
  H85      1.0000 0.40408  0.09154  0.48244  Biso   1.000  H
  C91      1.0000 0.35515  0.13720  0.47997  Biso   1.000  C
  C92      1.0000 0.37445  0.05692  0.51077  Biso   1.000  C
  C93      1.0000 0.27688  0.05458  0.50980  Biso   1.000  C
  N6       1.0000 0.94632  0.29588  0.46662  Biso   1.000  N
  H86      1.0000 0.90846  0.31254  0.48244  Biso   1.000  H
  C94      1.0000 0.86284  0.21798  0.47997  Biso   1.000  C
  C95      1.0000 0.94309  0.31754  0.51077  Biso   1.000  C
  C96      1.0000 0.94548  0.22233  0.50980  Biso   1.000  C
  C97      1.0000 0.52964  0.52752  0.39475  Biso   1.000  C
  C98      1.0000 0.56099  0.62896  0.38539  Biso   1.000  C
  C99      1.0000 0.59146  0.69394  0.38514  Biso   1.000  C
  C100     1.0000 0.65425  0.79683  0.39272  Biso   1.000  C
  H87      1.0000 0.55786  0.69441  0.43353  Biso   1.000  H
  H88      1.0000 0.55398  0.72894  0.42103  Biso   1.000  H
  C101     1.0000 0.55098  0.77133  0.43796  Biso   1.000  C
  H89      1.0000 0.74856  0.72192  0.40193  Biso   1.000  H
  H90      1.0000 0.75177  0.69001  0.41503  Biso   1.000  H
  C102     1.0000 0.83566  0.76735  0.41031  Biso   1.000  C
  C103     1.0000 0.39598  0.06206  0.46003  Biso   1.000  C
  C104     1.0000 0.40478  0.19466  0.48177  Biso   1.000  C
  C105     1.0000 0.29776  0.13304  0.47771  Biso   1.000  C
  H91      1.0000 0.40660  0.05397  0.50674  Biso   1.000  H
  C106     1.0000 0.37816  0.07025  0.52416  Biso   1.000  C
  H92      1.0000 0.24239  0.04896  0.50503  Biso   1.000  H
  C107     1.0000 0.28039  0.06857  0.52293  Biso   1.000  C
  C108     1.0000 0.93795  0.33392  0.46003  Biso   1.000  C
  C109     1.0000 0.80534  0.21012  0.48177  Biso   1.000  C
  C110     1.0000 0.86697  0.16474  0.47771  Biso   1.000  C
  H93      1.0000 0.94605  0.35263  0.50674  Biso   1.000  H
  C111     1.0000 0.92979  0.30795  0.52416  Biso   1.000  C
  H94      1.0000 0.95104  0.19342  0.50503  Biso   1.000  H
  C112     1.0000 0.93149  0.21185  0.52293  Biso   1.000  C
  C113     1.0000 0.50607  0.52195  0.38076  Biso   1.000  C
  C114     1.0000 0.47168  0.49051  0.40367  Biso   1.000  C
  C115     1.0000 0.57507  0.50062  0.39529  Biso   1.000  C
  C116     1.0000 0.52328  0.57946  0.37564  Biso   1.000  C
  C117     1.0000 0.59518  0.73792  0.37407  Biso   1.000  C
  C118     1.0000 0.63585  0.80071  0.38006  Biso   1.000  C
  C119     1.0000 0.69466  0.85325  0.39942  Biso   1.000  C
  H95      1.0000 0.57105  0.81423  0.43483  Biso   1.000  H
  H96      1.0000 0.50627  0.75322  0.43673  Biso   1.000  H
  C120     1.0000 0.56318  0.77166  0.45098  Biso   1.000  C
  H97      1.0000 0.85248  0.77554  0.41913  Biso   1.000  H
  H98      1.0000 0.84915  0.80721  0.40603  Biso   1.000  H
  C121     1.0000 0.86229  0.72814  0.40219  Biso   1.000  C
  C122     1.0000 0.39185  0.03914  0.44629  Biso   1.000  C
  H99      1.0000 0.44368  0.19887  0.48354  Biso   1.000  H
  C123     1.0000 0.39916  0.24865  0.48110  Biso   1.000  C
  H100     1.0000 0.26219  0.09406  0.47673  Biso   1.000  H
  C124     1.0000 0.29296  0.18623  0.47694  Biso   1.000  C
  H101     1.0000 0.41215  0.07544  0.52913  Biso   1.000  H
  C125     1.0000 0.32987  0.07554  0.53003  Biso   1.000  C
  H102     1.0000 0.24897  0.07315  0.52694  Biso   1.000  H
  C126     1.0000 0.96084  0.35273  0.44629  Biso   1.000  C
  H103     1.0000 0.80119  0.24484  0.48354  Biso   1.000  H
  C127     1.0000 0.75135  0.15051  0.48110  Biso   1.000  C
  H104     1.0000 0.90596  0.16815  0.47673  Biso   1.000  H
  C128     1.0000 0.81377  0.10672  0.47694  Biso   1.000  C
  H105     1.0000 0.92456  0.33673  0.52913  Biso   1.000  H
  C129     1.0000 0.92445  0.25433  0.53003  Biso   1.000  C
  H106     1.0000 0.92685  0.17583  0.52694  Biso   1.000  H
  C130     1.0000 0.47015  0.46623  0.37396  Biso   1.000  C
  H107     1.0000 0.44844  0.44761  0.40054  Biso   1.000  H
  H108     1.0000 0.48595  0.48972  0.41253  Biso   1.000  H
  C131     1.0000 0.42787  0.51653  0.40420  Biso   1.000  C
  H109     1.0000 0.59035  0.50502  0.40423  Biso   1.000  H
  H110     1.0000 0.55096  0.45622  0.39344  Biso   1.000  H
  C132     1.0000 0.62887  0.52841  0.38653  Biso   1.000  C
  C133     1.0000 0.50357  0.58081  0.36276  Biso   1.000  C
  C134     1.0000 0.62729  0.73034  0.36176  Biso   1.000  C
  C135     1.0000 0.53157  0.73105  0.37047  Biso   1.000  C
  C136     1.0000 0.65517  0.85873  0.37411  Biso   1.000  C
  C137     1.0000 0.71377  0.90963  0.39350  Biso   1.000  C
  H111     1.0000 0.70818  0.85185  0.40783  Biso   1.000  H
  H112     1.0000 0.54326  0.72931  0.45414  Biso   1.000  H
  H113     1.0000 0.54735  0.79454  0.45564  Biso   1.000  H
  H114     1.0000 0.60755  0.79103  0.45233  Biso   1.000  H
  H115     1.0000 0.85198  0.69034  0.40683  Biso   1.000  H
  H116     1.0000 0.90688  0.75322  0.40133  Biso   1.000  H
  H117     1.0000 0.84346  0.71771  0.39363  Biso   1.000  H
  C138     1.0000 0.33469  0.00147  0.44049  Biso   1.000  C
  C139     1.0000 0.44420  0.05476  0.43945  Biso   1.000  C
  H118     1.0000 0.43397  0.28795  0.48233  Biso   1.000  H
  C140     1.0000 0.34177  0.24238  0.47861  Biso   1.000  C
  H119     1.0000 0.25426  0.18235  0.47513  Biso   1.000  H
  H120     1.0000 0.33178  0.08415  0.53893  Biso   1.000  H
  C141     1.0000 0.99858  0.33322  0.44049  Biso   1.000  C
  C142     1.0000 0.94529  0.38945  0.43945  Biso   1.000  C
  H121     1.0000 0.71207  0.14602  0.48233  Biso   1.000  H
  C143     1.0000 0.75765  0.09942  0.47861  Biso   1.000  C
  H122     1.0000 0.81764  0.07191  0.47513  Biso   1.000  H
  H123     1.0000 0.91588  0.24764  0.53893  Biso   1.000  H
  C144     1.0000 0.45148  0.46721  0.36140  Biso   1.000  C
  H124     1.0000 0.45906  0.42824  0.37793  Biso   1.000  H
  H125     1.0000 0.41919  0.52355  0.39523  Biso   1.000  H
  H126     1.0000 0.44959  0.55704  0.40853  Biso   1.000  H
  C145     1.0000 0.36537  0.47652  0.41124  Biso   1.000  C
  H127     1.0000 0.61177  0.52841  0.37793  Biso   1.000  H
  H128     1.0000 0.64270  0.49795  0.38603  Biso   1.000  H
  C146     1.0000 0.68718  0.58984  0.38751  Biso   1.000  C
  C147     1.0000 0.46888  0.52584  0.35606  Biso   1.000  C
  H129     1.0000 0.51396  0.61885  0.35883  Biso   1.000  H
  H130     1.0000 0.60018  0.68894  0.35823  Biso   1.000  H
  H131     1.0000 0.62996  0.76033  0.35523  Biso   1.000  H
  C148     1.0000 0.68777  0.73802  0.36325  Biso   1.000  C
  H132     1.0000 0.53846  0.76314  0.36414  Biso   1.000  H
  H133     1.0000 0.50637  0.69086  0.36624  Biso   1.000  H
  C149     1.0000 0.49536  0.73544  0.38153  Biso   1.000  C
  C150     1.0000 0.69367  0.91351  0.38074  Biso   1.000  C
  H134     1.0000 0.64195  0.86032  0.36564  Biso   1.000  H
  H135     1.0000 0.74066  0.94631  0.39793  Biso   1.000  H
  C151     1.0000 0.33187  0.97962  0.42776  Biso   1.000  C
  H136     1.0000 0.29798  0.99053  0.44504  Biso   1.000  H
  C152     1.0000 0.44397  0.03446  0.42679  Biso   1.000  C
  H137     1.0000 0.48258  0.08064  0.44343  Biso   1.000  H
  H138     1.0000 0.33728  0.27747  0.47813  Biso   1.000  H
  C153     1.0000 0.02035  0.35221  0.42776  Biso   1.000  C
  H139     1.0000 0.00947  0.30744  0.44504  Biso   1.000  H
  C154     1.0000 0.96558  0.40953  0.42679  Biso   1.000  C
  H140     1.0000 0.91937  0.40195  0.44343  Biso   1.000  H
  H141     1.0000 0.72259  0.05984  0.47813  Biso   1.000  H
  C155     1.0000 0.41287  0.40985  0.35372  Biso   1.000  C
  H142     1.0000 0.37457  0.46623  0.41984  Biso   1.000  H
  H143     1.0000 0.34656  0.50244  0.41264  Biso   1.000  H
  C156     1.0000 0.32079  0.42164  0.40550  Biso   1.000  C
  C157     1.0000 0.73617  0.59373  0.37715  Biso   1.000  C
  H144     1.0000 0.70445  0.59513  0.39623  Biso   1.000  H
  H145     1.0000 0.67787  0.62315  0.38594  Biso   1.000  H
  H146     1.0000 0.45627  0.52762  0.34754  Biso   1.000  H
  H147     1.0000 0.68576  0.70531  0.36883  Biso   1.000  H
  H148     1.0000 0.71547  0.77811  0.36733  Biso   1.000  H
  C158     1.0000 0.71356  0.73465  0.34953  Biso   1.000  C
  H149     1.0000 0.52245  0.77212  0.38673  Biso   1.000  H
  H150     1.0000 0.48137  0.69904  0.38713  Biso   1.000  H
  C159     1.0000 0.43755  0.73993  0.37697  Biso   1.000  C
  C160     1.0000 0.71908  0.97583  0.37481  Biso   1.000  C
  C161     1.0000 0.38606  0.99553  0.42093  Biso   1.000  C
  C162     1.0000 0.27308  0.93855  0.42019  Biso   1.000  C
  H151     1.0000 0.48107  0.04625  0.42234  Biso   1.000  H
  C163     1.0000 0.06147  0.33453  0.42019  Biso   1.000  C
  C164     1.0000 0.00446  0.39053  0.42093  Biso   1.000  C
  H152     1.0000 0.95376  0.43484  0.42234  Biso   1.000  H
  N7       1.0000 0.40056  0.35703  0.35749  Biso   1.000  N
  H153     1.0000 0.30815  0.43081  0.39733  Biso   1.000  H
  H154     1.0000 0.28527  0.40101  0.41124  Biso   1.000  H
  H155     1.0000 0.33814  0.39493  0.40404  Biso   1.000  H
  H156     1.0000 0.74726  0.56243  0.37903  Biso   1.000  H
  H157     1.0000 0.77297  0.63443  0.37753  Biso   1.000  H
  H158     1.0000 0.71838  0.58685  0.36853  Biso   1.000  H
  H159     1.0000 0.75187  0.73315  0.35063  Biso   1.000  H
  H160     1.0000 0.68337  0.69624  0.34523  Biso   1.000  H
  C165     1.0000 0.72665  0.78953  0.34087  Biso   1.000  C
  H161     1.0000 0.40866  0.70063  0.37274  Biso   1.000  H
  H162     1.0000 0.41686  0.74344  0.38473  Biso   1.000  H
  C166     1.0000 0.44776  0.79341  0.36751  Biso   1.000  C
  N8       1.0000 0.70958  0.98164  0.36261  Biso   1.000  N
  C167     1.0000 0.36758  0.96432  0.40774  Biso   1.000  C
  C168     1.0000 0.30146  0.93054  0.40731  Biso   1.000  C
  C169     1.0000 0.23488  0.87763  0.42784  Biso   1.000  C
  C170     1.0000 0.23674  0.97462  0.41810  Biso   1.000  C
  C171     1.0000 0.06946  0.37093  0.40731  Biso   1.000  C
  C172     1.0000 0.12237  0.35722  0.42784  Biso   1.000  C
  C173     1.0000 0.02536  0.26215  0.41810  Biso   1.000  C
  C174     1.0000 0.03566  0.40326  0.40774  Biso   1.000  C
  C175     1.0000 0.35879  0.30444  0.34885  Biso   1.000  C
  H163     1.0000 0.68858  0.79004  0.33934  Biso   1.000  H
  H164     1.0000 0.74348  0.78574  0.33263  Biso   1.000  H
  H165     1.0000 0.75646  0.82775  0.34513  Biso   1.000  H
  H166     1.0000 0.47337  0.83304  0.37174  Biso   1.000  H
  H167     1.0000 0.40808  0.78925  0.36524  Biso   1.000  H
  H168     1.0000 0.46818  0.79121  0.35973  Biso   1.000  H
  C176     1.0000 0.74259  0.04475  0.35718  Biso   1.000  C
  C177     1.0000 0.40238  0.96732  0.39676  Biso   1.000  C
  C178     1.0000 0.27077  0.89681  0.39613  Biso   1.000  C
  H169     1.0000 0.22577  0.88792  0.43644  Biso   1.000  H
  H170     1.0000 0.19526  0.85283  0.42334  Biso   1.000  H
  C179     1.0000 0.26465  0.83772  0.42963  Biso   1.000  C
  H171     1.0000 0.19826  0.94725  0.41343  Biso   1.000  H
  H172     1.0000 0.22535  0.98304  0.42663  Biso   1.000  H
  C180     1.0000 0.26999  0.03488  0.41081  Biso   1.000  C
  C181     1.0000 0.10317  0.37392  0.39613  Biso   1.000  C
  H173     1.0000 0.11208  0.33785  0.43644  Biso   1.000  H
  H174     1.0000 0.14715  0.34243  0.42334  Biso   1.000  H
  C182     1.0000 0.16225  0.42693  0.42963  Biso   1.000  C
  H175     1.0000 0.05277  0.25101  0.41343  Biso   1.000  H
  H176     1.0000 0.01696  0.24236  0.42663  Biso   1.000  H
  C183     1.0000 0.96518  0.23515  0.41081  Biso   1.000  C
  C184     1.0000 0.03267  0.43502  0.39676  Biso   1.000  C
  C185     1.0000 0.39458  0.27473  0.34300  Biso   1.000  C
  H177     1.0000 0.34376  0.32026  0.34173  Biso   1.000  H
  C186     1.0000 0.30217  0.25742  0.35718  Biso   1.000  C
  C187     1.0000 0.69557  0.05434  0.34885  Biso   1.000  C
  H178     1.0000 0.75838  0.07535  0.36433  Biso   1.000  H
  C188     1.0000 0.79917  0.05125  0.34880  Biso   1.000  C
  C189     1.0000 0.47248  0.00218  0.39475  Biso   1.000  C
  C190     1.0000 0.37109  0.93204  0.38539  Biso   1.000  C
  C191     1.0000 0.20314  0.85742  0.39272  Biso   1.000  C
  C192     1.0000 0.30605  0.89751  0.38514  Biso   1.000  C
  H179     1.0000 0.30559  0.86345  0.43353  Biso   1.000  H
  H180     1.0000 0.27107  0.82504  0.42103  Biso   1.000  H
  C193     1.0000 0.22866  0.77961  0.43796  Biso   1.000  C
  H181     1.0000 0.27807  0.02664  0.40193  Biso   1.000  H
  H182     1.0000 0.30996  0.06173  0.41503  Biso   1.000  H
  C194     1.0000 0.23269  0.06838  0.41031  Biso   1.000  C
  C195     1.0000 0.14257  0.34576  0.39272  Biso   1.000  C
  C196     1.0000 0.10249  0.40854  0.38514  Biso   1.000  C
  H183     1.0000 0.13659  0.44214  0.43353  Biso   1.000  H
  H184     1.0000 0.17495  0.44602  0.42103  Biso   1.000  H
  C197     1.0000 0.22037  0.44901  0.43796  Biso   1.000  C
  H185     1.0000 0.97337  0.25143  0.40193  Biso   1.000  H
  H186     1.0000 0.93827  0.24825  0.41503  Biso   1.000  H
  C198     1.0000 0.93167  0.16432  0.41031  Biso   1.000  C
  C199     1.0000 0.06798  0.43905  0.38539  Biso   1.000  C
  C200     1.0000 0.99786  0.47035  0.39475  Biso   1.000  C
  C201     1.0000 0.39748  0.26902  0.32972  Biso   1.000  C
  C202     1.0000 0.42657  0.25452  0.35059  Biso   1.000  C
  N9       1.0000 0.27209  0.29045  0.36261  Biso   1.000  N
  H187     1.0000 0.31698  0.24165  0.36433  Biso   1.000  H
  C203     1.0000 0.25209  0.20086  0.34880  Biso   1.000  C
  N10      1.0000 0.64296  0.04353  0.35749  Biso   1.000  N
  H188     1.0000 0.67977  0.02356  0.34173  Biso   1.000  H
  C204     1.0000 0.72528  0.11984  0.34300  Biso   1.000  C
  C205     1.0000 0.79048  0.00447  0.34007  Biso   1.000  C
  C206     1.0000 0.85688  0.09916  0.35068  Biso   1.000  C
  C207     1.0000 0.47804  0.98412  0.38076  Biso   1.000  C
  C208     1.0000 0.50944  0.98112  0.40367  Biso   1.000  C
  C209     1.0000 0.49939  0.07446  0.39529  Biso   1.000  C
  C210     1.0000 0.42058  0.94383  0.37564  Biso   1.000  C
  C211     1.0000 0.19926  0.83515  0.38006  Biso   1.000  C
  C212     1.0000 0.14676  0.84142  0.39942  Biso   1.000  C
  C213     1.0000 0.26208  0.85723  0.37407  Biso   1.000  C
  H189     1.0000 0.18575  0.75682  0.43483  Biso   1.000  H
  H190     1.0000 0.24678  0.75304  0.43673  Biso   1.000  H
  C214     1.0000 0.22839  0.79154  0.45098  Biso   1.000  C
  H191     1.0000 0.22445  0.07694  0.41913  Biso   1.000  H
  H192     1.0000 0.19277  0.04194  0.40603  Biso   1.000  H
  C215     1.0000 0.27186  0.13416  0.40219  Biso   1.000  C
  C216     1.0000 0.16489  0.36414  0.38006  Biso   1.000  C
  C217     1.0000 0.15858  0.30533  0.39942  Biso   1.000  C
  C218     1.0000 0.14278  0.40485  0.37407  Biso   1.000  C
  H193     1.0000 0.24316  0.42894  0.43483  Biso   1.000  H
  H194     1.0000 0.24695  0.49374  0.43673  Biso   1.000  H
  C219     1.0000 0.20846  0.43685  0.45098  Biso   1.000  C
  H195     1.0000 0.92307  0.14752  0.41913  Biso   1.000  H
  H196     1.0000 0.95808  0.15084  0.40603  Biso   1.000  H
  C220     1.0000 0.86587  0.13774  0.40219  Biso   1.000  C
  C221     1.0000 0.05614  0.47671  0.37564  Biso   1.000  C
  C222     1.0000 0.01585  0.49393  0.38076  Biso   1.000  C
  C223     1.0000 0.01886  0.52832  0.40367  Biso   1.000  C
  C224     1.0000 0.92555  0.42492  0.39529  Biso   1.000  C
  C225     1.0000 0.43048  0.24264  0.32436  Biso   1.000  C
  H197     1.0000 0.37704  0.28301  0.32424  Biso   1.000  H
  C226     1.0000 0.45887  0.22804  0.34527  Biso   1.000  C
  H198     1.0000 0.42646  0.25892  0.35964  Biso   1.000  H
  C227     1.0000 0.25677  0.28096  0.37481  Biso   1.000  C
  C228     1.0000 0.21395  0.20951  0.34007  Biso   1.000  C
  C229     1.0000 0.24227  0.14312  0.35068  Biso   1.000  C
  C230     1.0000 0.59019  0.00306  0.35372  Biso   1.000  C
  C231     1.0000 0.73096  0.12845  0.32972  Biso   1.000  C
  C232     1.0000 0.74547  0.17206  0.35059  Biso   1.000  C
  H199     1.0000 0.74967  0.97195  0.33873  Biso   1.000  H
  C233     1.0000 0.83647  0.00236  0.33334  Biso   1.000  C
  H200     1.0000 0.86419  0.13154  0.35633  Biso   1.000  H
  C234     1.0000 0.90927  0.09926  0.34343  Biso   1.000  C
  C235     1.0000 0.53378  0.00395  0.37396  Biso   1.000  C
  H201     1.0000 0.51027  0.99623  0.41253  Biso   1.000  H
  C236     1.0000 0.48345  0.91132  0.40420  Biso   1.000  C
  H202     1.0000 0.55238  0.00087  0.40054  Biso   1.000  H
  H203     1.0000 0.49499  0.08536  0.40423  Biso   1.000  H
  H204     1.0000 0.54378  0.09477  0.39344  Biso   1.000  H
  C237     1.0000 0.47159  0.10047  0.38653  Biso   1.000  C
  C238     1.0000 0.41919  0.92273  0.36276  Biso   1.000  C
  C239     1.0000 0.14126  0.79645  0.37411  Biso   1.000  C
  C240     1.0000 0.09035  0.80413  0.39350  Biso   1.000  C
  H205     1.0000 0.14819  0.85634  0.40783  Biso   1.000  H
  C241     1.0000 0.26967  0.89695  0.36176  Biso   1.000  C
  C242     1.0000 0.26898  0.80052  0.37047  Biso   1.000  C
  H206     1.0000 0.27067  0.81395  0.45414  Biso   1.000  H
  H207     1.0000 0.20548  0.75285  0.45564  Biso   1.000  H
  H208     1.0000 0.20895  0.81652  0.45233  Biso   1.000  H
  H209     1.0000 0.30969  0.16167  0.40683  Biso   1.000  H
  H210     1.0000 0.24677  0.15367  0.40133  Biso   1.000  H
  H211     1.0000 0.28228  0.12574  0.39363  Biso   1.000  H
  C243     1.0000 0.20357  0.34482  0.37411  Biso   1.000  C
  C244     1.0000 0.19588  0.28624  0.39350  Biso   1.000  C
  H212     1.0000 0.14366  0.29186  0.40783  Biso   1.000  H
  C245     1.0000 0.10307  0.37275  0.36176  Biso   1.000  C
  C246     1.0000 0.19945  0.46843  0.37047  Biso   1.000  C
  H213     1.0000 0.18607  0.45673  0.45414  Biso   1.000  H
  H214     1.0000 0.24718  0.45262  0.45564  Biso   1.000  H
  H215     1.0000 0.18346  0.39245  0.45233  Biso   1.000  H
  H216     1.0000 0.83836  0.14803  0.40683  Biso   1.000  H
  H217     1.0000 0.84637  0.09315  0.40133  Biso   1.000  H
  H218     1.0000 0.87426  0.15655  0.39363  Biso   1.000  H
  C247     1.0000 0.07728  0.49646  0.36276  Biso   1.000  C
  C248     1.0000 0.99607  0.52981  0.37396  Biso   1.000  C
  H219     1.0000 0.00378  0.51405  0.41253  Biso   1.000  H
  C249     1.0000 0.08865  0.57211  0.40420  Biso   1.000  C
  H220     1.0000 0.99918  0.55152  0.40054  Biso   1.000  H
  H221     1.0000 0.91466  0.40962  0.40423  Biso   1.000  H
  H222     1.0000 0.90526  0.44901  0.39344  Biso   1.000  H
  C250     1.0000 0.89958  0.37111  0.38653  Biso   1.000  C
  H223     1.0000 0.43258  0.24011  0.31533  Biso   1.000  H
  C251     1.0000 0.45896  0.22093  0.33188  Biso   1.000  C
  H224     1.0000 0.48057  0.21503  0.35063  Biso   1.000  H
  C252     1.0000 0.21985  0.30631  0.38074  Biso   1.000  C
  H225     1.0000 0.22226  0.25036  0.33873  Biso   1.000  H
  C253     1.0000 0.16588  0.16352  0.33334  Biso   1.000  C
  H226     1.0000 0.26734  0.13582  0.35633  Biso   1.000  H
  C254     1.0000 0.18997  0.09072  0.34343  Biso   1.000  C
  C255     1.0000 0.53277  0.98426  0.36140  Biso   1.000  C
  H227     1.0000 0.71697  0.09406  0.32424  Biso   1.000  H
  C256     1.0000 0.75739  0.18787  0.32436  Biso   1.000  C
  H228     1.0000 0.74108  0.16757  0.35964  Biso   1.000  H
  C257     1.0000 0.77200  0.23087  0.34527  Biso   1.000  C
  H229     1.0000 0.82895  0.96933  0.32784  Biso   1.000  H
  C258     1.0000 0.89367  0.05144  0.33526  Biso   1.000  C
  H230     1.0000 0.95059  0.13084  0.34454  Biso   1.000  H
  H231     1.0000 0.57179  0.03086  0.37793  Biso   1.000  H
  H232     1.0000 0.47647  0.89564  0.39523  Biso   1.000  H
  H233     1.0000 0.44299  0.89255  0.40853  Biso   1.000  H
  C259     1.0000 0.52346  0.88881  0.41124  Biso   1.000  C
  H234     1.0000 0.47158  0.08335  0.37793  Biso   1.000  H
  H235     1.0000 0.50207  0.14473  0.38603  Biso   1.000  H
  C260     1.0000 0.41018  0.09734  0.38751  Biso   1.000  C
  C261     1.0000 0.47415  0.94304  0.35606  Biso   1.000  C
  H236     1.0000 0.38115  0.89513  0.35883  Biso   1.000  H
  C262     1.0000 0.08646  0.78012  0.38074  Biso   1.000  C
  H237     1.0000 0.13968  0.78162  0.36564  Biso   1.000  H
  H238     1.0000 0.05366  0.79435  0.39793  Biso   1.000  H
  H239     1.0000 0.31108  0.91122  0.35823  Biso   1.000  H
  H240     1.0000 0.23968  0.86963  0.35523  Biso   1.000  H
  C263     1.0000 0.26198  0.94973  0.36325  Biso   1.000  C
  H241     1.0000 0.23687  0.77535  0.36414  Biso   1.000  H
  H242     1.0000 0.30919  0.81554  0.36624  Biso   1.000  H
  C264     1.0000 0.26456  0.75991  0.38153  Biso   1.000  C
  H243     1.0000 0.21835  0.35801  0.36564  Biso   1.000  H
  H244     1.0000 0.20568  0.25934  0.39793  Biso   1.000  H
  H245     1.0000 0.08878  0.39984  0.35823  Biso   1.000  H
  H246     1.0000 0.13036  0.37004  0.35523  Biso   1.000  H
  C265     1.0000 0.05029  0.31226  0.36325  Biso   1.000  C
  H247     1.0000 0.22466  0.46155  0.36414  Biso   1.000  H
  H248     1.0000 0.18447  0.49365  0.36624  Biso   1.000  H
  C266     1.0000 0.24009  0.50464  0.38153  Biso   1.000  C
  C267     1.0000 0.05697  0.53112  0.35606  Biso   1.000  C
  H249     1.0000 0.10484  0.48602  0.35883  Biso   1.000  H
  C268     1.0000 0.01576  0.54853  0.36140  Biso   1.000  C
  H250     1.0000 0.96918  0.54095  0.37793  Biso   1.000  H
  H251     1.0000 0.10434  0.58081  0.39523  Biso   1.000  H
  H252     1.0000 0.10748  0.55045  0.40853  Biso   1.000  H
  C269     1.0000 0.11115  0.63462  0.41124  Biso   1.000  C
  H253     1.0000 0.91669  0.38824  0.37793  Biso   1.000  H
  H254     1.0000 0.85524  0.35731  0.38603  Biso   1.000  H
  C270     1.0000 0.90264  0.31282  0.38751  Biso   1.000  C
  H255     1.0000 0.47876  0.20104  0.32813  Biso   1.000  H
  C271     1.0000 0.15779  0.10635  0.33526  Biso   1.000  C
  H256     1.0000 0.14039  0.17105  0.32784  Biso   1.000  H
  H257     1.0000 0.18028  0.04945  0.34454  Biso   1.000  H
  H258     1.0000 0.75988  0.19246  0.31533  Biso   1.000  H
  C272     1.0000 0.77909  0.23807  0.33188  Biso   1.000  C
  H259     1.0000 0.78496  0.26554  0.35063  Biso   1.000  H
  H260     1.0000 0.92599  0.05247  0.33043  Biso   1.000  H
  H261     1.0000 0.53378  0.90832  0.41984  Biso   1.000  H
  H262     1.0000 0.49755  0.84413  0.41264  Biso   1.000  H
  C273     1.0000 0.57838  0.89915  0.40550  Biso   1.000  C
  C274     1.0000 0.40627  0.14244  0.37715  Biso   1.000  C
  H263     1.0000 0.40488  0.10936  0.39623  Biso   1.000  H
  H264     1.0000 0.37690  0.05476  0.38594  Biso   1.000  H
  H265     1.0000 0.47238  0.92863  0.34754  Biso   1.000  H
  C275     1.0000 0.02418  0.74326  0.37481  Biso   1.000  C
  H266     1.0000 0.29467  0.98042  0.36883  Biso   1.000  H
  H267     1.0000 0.22187  0.93733  0.36733  Biso   1.000  H
  C276     1.0000 0.26535  0.97892  0.34953  Biso   1.000  C
  H268     1.0000 0.22788  0.75032  0.38673  Biso   1.000  H
  H269     1.0000 0.30097  0.78232  0.38713  Biso   1.000  H
  C277     1.0000 0.26008  0.69764  0.37697  Biso   1.000  C
  H270     1.0000 0.01955  0.31422  0.36883  Biso   1.000  H
  H271     1.0000 0.06264  0.28451  0.36733  Biso   1.000  H
  C278     1.0000 0.02105  0.28643  0.34953  Biso   1.000  C
  H272     1.0000 0.24968  0.47755  0.38673  Biso   1.000  H
  H273     1.0000 0.21766  0.51863  0.38713  Biso   1.000  H
  C279     1.0000 0.30236  0.56243  0.37697  Biso   1.000  C
  H274     1.0000 0.07137  0.54371  0.34754  Biso   1.000  H
  C280     1.0000 0.99697  0.58713  0.35372  Biso   1.000  C
  H275     1.0000 0.09165  0.62545  0.41984  Biso   1.000  H
  H276     1.0000 0.15585  0.65343  0.41264  Biso   1.000  H
  C281     1.0000 0.10089  0.67925  0.40550  Biso   1.000  C
  C282     1.0000 0.85756  0.26383  0.37715  Biso   1.000  C
  H277     1.0000 0.89069  0.29555  0.39623  Biso   1.000  H
  H278     1.0000 0.94526  0.32213  0.38594  Biso   1.000  H
  H279     1.0000 0.12647  0.07402  0.33043  Biso   1.000  H
  H280     1.0000 0.79896  0.27775  0.32813  Biso   1.000  H
  H281     1.0000 0.56918  0.87735  0.39733  Biso   1.000  H
  H282     1.0000 0.59896  0.88423  0.41124  Biso   1.000  H
  H283     1.0000 0.60508  0.94322  0.40404  Biso   1.000  H
  H284     1.0000 0.43758  0.18488  0.37903  Biso   1.000  H
  H285     1.0000 0.36559  0.13856  0.37753  Biso   1.000  H
  H286     1.0000 0.41318  0.13154  0.36853  Biso   1.000  H
  N11      1.0000 0.01833  0.72791  0.36261  Biso   1.000  N
  H287     1.0000 0.30379  0.98716  0.34523  Biso   1.000  H
  C283     1.0000 0.21047  0.93714  0.34087  Biso   1.000  C
  H288     1.0000 0.26686  0.01874  0.35063  Biso   1.000  H
  H289     1.0000 0.29935  0.70803  0.37274  Biso   1.000  H
  H290     1.0000 0.25658  0.67345  0.38473  Biso   1.000  H
  C284     1.0000 0.20657  0.65431  0.36751  Biso   1.000  C
  H291     1.0000 0.01286  0.31665  0.34523  Biso   1.000  H
  C285     1.0000 0.06288  0.27333  0.34087  Biso   1.000  C
  H292     1.0000 0.98127  0.24811  0.35063  Biso   1.000  H
  H293     1.0000 0.29198  0.59134  0.37274  Biso   1.000  H
  H294     1.0000 0.32658  0.58315  0.38473  Biso   1.000  H
  C286     1.0000 0.34564  0.55223  0.36751  Biso   1.000  C
  N12      1.0000 0.95648  0.59943  0.35749  Biso   1.000  N
  H295     1.0000 0.12266  0.69184  0.39733  Biso   1.000  H
  H296     1.0000 0.11575  0.71472  0.41124  Biso   1.000  H
  H297     1.0000 0.05677  0.66185  0.40404  Biso   1.000  H
  H298     1.0000 0.81519  0.25274  0.37903  Biso   1.000  H
  H299     1.0000 0.86144  0.22701  0.37753  Biso   1.000  H
  H300     1.0000 0.86844  0.28161  0.36853  Biso   1.000  H
  C287     1.0000 0.95527  0.69783  0.35718  Biso   1.000  C
  H301     1.0000 0.20997  0.89854  0.33934  Biso   1.000  H
  H302     1.0000 0.21428  0.95773  0.33263  Biso   1.000  H
  H303     1.0000 0.17226  0.92872  0.34513  Biso   1.000  H
  H304     1.0000 0.16696  0.64033  0.37174  Biso   1.000  H
  H305     1.0000 0.21076  0.61885  0.36524  Biso   1.000  H
  H306     1.0000 0.20876  0.67691  0.35973  Biso   1.000  H
  H307     1.0000 0.10145  0.31141  0.33934  Biso   1.000  H
  H308     1.0000 0.04229  0.25653  0.33263  Biso   1.000  H
  H309     1.0000 0.07128  0.24353  0.34513  Biso   1.000  H
  H310     1.0000 0.35967  0.52663  0.37174  Biso   1.000  H
  H311     1.0000 0.38118  0.59195  0.36524  Biso   1.000  H
  H312     1.0000 0.32304  0.53183  0.35973  Biso   1.000  H
  C288     1.0000 0.94565  0.64121  0.34885  Biso   1.000  C
  H313     1.0000 0.92467  0.68304  0.36433  Biso   1.000  H
  C289     1.0000 0.94877  0.74794  0.34880  Biso   1.000  C
  H314     1.0000 0.97646  0.65623  0.34173  Biso   1.000  H
  C290     1.0000 0.88014  0.60542  0.34300  Biso   1.000  C
  C291     1.0000 0.99556  0.78602  0.34007  Biso   1.000  C
  C292     1.0000 0.90086  0.75771  0.35068  Biso   1.000  C
  C293     1.0000 0.87156  0.60252  0.32972  Biso   1.000  C
  C294     1.0000 0.82796  0.57342  0.35059  Biso   1.000  C
  H315     1.0000 0.02805  0.77774  0.33873  Biso   1.000  H
  C295     1.0000 0.99765  0.83412  0.33334  Biso   1.000  C
  H316     1.0000 0.86847  0.73264  0.35633  Biso   1.000  H
  C296     1.0000 0.90076  0.81002  0.34343  Biso   1.000  C
  H317     1.0000 0.90595  0.62292  0.32424  Biso   1.000  H
  C297     1.0000 0.81216  0.56954  0.32436  Biso   1.000  C
  H318     1.0000 0.83246  0.57351  0.35964  Biso   1.000  H
  C298     1.0000 0.76915  0.54114  0.34527  Biso   1.000  C
  H319     1.0000 0.03066  0.85962  0.32784  Biso   1.000  H
  C299     1.0000 0.94854  0.84221  0.33526  Biso   1.000  C
  H320     1.0000 0.86920  0.81975  0.34454  Biso   1.000  H
  H321     1.0000 0.80758  0.56743  0.31533  Biso   1.000  H
  C300     1.0000 0.76197  0.54104  0.33188  Biso   1.000  C
  H322     1.0000 0.73447  0.51943  0.35063  Biso   1.000  H
  H323     1.0000 0.94757  0.87351  0.33043  Biso   1.000  H
  H324     1.0000 0.72230  0.52125  0.32813  Biso   1.000  H
  C301     1.0000 0.31753  0.37444  0.48923  Biso   1.000  C
  C302     1.0000 0.30793  0.37818  0.47584  Biso   1.000  C
  C303     1.0000 0.27502  0.32330  0.49652  Biso   1.000  C
  H325     1.0000 0.35264  0.40658  0.49326  Biso   1.000  H
  C304     1.0000 0.25431  0.32985  0.46997  Biso   1.000  C
  H326     1.0000 0.33670  0.41215  0.47087  Biso   1.000  H
  C305     1.0000 0.22236  0.27688  0.49020  Biso   1.000  C
  C306     1.0000 0.28776  0.31628  0.51073  Biso   1.000  C
  H327     1.0000 0.24765  0.33177  0.46107  Biso   1.000  H
  C307     1.0000 0.21181  0.28035  0.47707  Biso   1.000  C
  H328     1.0000 0.19342  0.24236  0.49497  Biso   1.000  H
  N13      1.0000 0.35195  0.32667  0.51176  Biso   1.000  N
  C308     1.0000 0.28160  0.36110  0.52001  Biso   1.000  C
  H329     1.0000 0.25832  0.27338  0.51346  Biso   1.000  H
  H330     1.0000 0.17581  0.24895  0.47306  Biso   1.000  H
  C309     1.0000 0.35743  0.27913  0.51355  Biso   1.000  C
  N14      1.0000 0.29588  0.34954  0.53338  Biso   1.000  N
  H331     1.0000 0.31252  0.40405  0.51756  Biso   1.000  H
  C310     1.0000 0.21798  0.35516  0.52003  Biso   1.000  C
  C311     1.0000 0.41853  0.28301  0.51434  Biso   1.000  C
  C312     1.0000 0.33392  0.39596  0.53997  Biso   1.000  C
  C313     1.0000 0.21012  0.40475  0.51823  Biso   1.000  C
  C314     1.0000 0.16472  0.29775  0.52229  Biso   1.000  C
  C315     1.0000 0.47483  0.33977  0.51446  Biso   1.000  C
  C316     1.0000 0.42131  0.22795  0.51443  Biso   1.000  C
  C317     1.0000 0.35275  0.39189  0.55371  Biso   1.000  C
  H332     1.0000 0.24485  0.44368  0.51646  Biso   1.000  H
  C318     1.0000 0.15052  0.39919  0.51890  Biso   1.000  C
  H333     1.0000 0.16811  0.26215  0.52327  Biso   1.000  H
  C319     1.0000 0.10674  0.29298  0.52306  Biso   1.000  C
  H334     1.0000 0.47431  0.37715  0.51446  Biso   1.000  H
  C320     1.0000 0.53057  0.34089  0.51461  Biso   1.000  C
  H335     1.0000 0.38434  0.18958  0.51446  Biso   1.000  H
  C321     1.0000 0.47765  0.22921  0.51453  Biso   1.000  C
  C322     1.0000 0.33322  0.33467  0.55951  Biso   1.000  C
  C323     1.0000 0.38942  0.44415  0.56055  Biso   1.000  C
  H336     1.0000 0.14603  0.43395  0.51767  Biso   1.000  H
  C324     1.0000 0.09945  0.34178  0.52139  Biso   1.000  C
  H337     1.0000 0.07196  0.25429  0.52487  Biso   1.000  H
  C325     1.0000 0.53413  0.28601  0.51462  Biso   1.000  C
  C326     1.0000 0.59514  0.39830  0.51444  Biso   1.000  C
  H338     1.0000 0.47823  0.19187  0.51456  Biso   1.000  H
  H339     1.0000 0.30746  0.29799  0.55496  Biso   1.000  H
  C327     1.0000 0.35223  0.33186  0.57224  Biso   1.000  C
  H340     1.0000 0.40194  0.48256  0.55657  Biso   1.000  H
  C328     1.0000 0.40954  0.44396  0.57321  Biso   1.000  C
  H341     1.0000 0.05985  0.33729  0.52187  Biso   1.000  H
  C329     1.0000 0.60048  0.30323  0.51484  Biso   1.000  C
  C330     1.0000 0.63707  0.36952  0.51469  Biso   1.000  C
  C331     1.0000 0.60259  0.43793  0.52685  Biso   1.000  C
  C332     1.0000 0.60290  0.43531  0.50151  Biso   1.000  C
  C333     1.0000 0.39053  0.38609  0.57907  Biso   1.000  C
  C334     1.0000 0.33454  0.27305  0.57981  Biso   1.000  C
  H342     1.0000 0.43482  0.48106  0.57766  Biso   1.000  H
  C335     1.0000 0.63051  0.26757  0.51469  Biso   1.000  C
  C336     1.0000 0.70276  0.39951  0.51484  Biso   1.000  C
  H343     1.0000 0.57083  0.45009  0.52666  Biso   1.000  H
  H344     1.0000 0.64304  0.47587  0.52647  Biso   1.000  H
  C337     1.0000 0.59764  0.40597  0.53948  Biso   1.000  C
  H345     1.0000 0.64541  0.47016  0.50107  Biso   1.000  H
  H346     1.0000 0.57514  0.45248  0.50186  Biso   1.000  H
  C338     1.0000 0.58934  0.39699  0.48907  Biso   1.000  C
  C339     1.0000 0.40323  0.36756  0.59226  Biso   1.000  C
  C340     1.0000 0.35722  0.23487  0.57216  Biso   1.000  C
  C341     1.0000 0.37094  0.30145  0.59269  Biso   1.000  C
  C342     1.0000 0.26215  0.23679  0.58190  Biso   1.000  C
  C343     1.0000 0.69675  0.29724  0.51484  Biso   1.000  C
  C344     1.0000 0.60170  0.19683  0.51444  Biso   1.000  C
  C345     1.0000 0.75187  0.46590  0.51462  Biso   1.000  C
  C346     1.0000 0.73244  0.36293  0.51469  Biso   1.000  C
  H347     1.0000 0.55975  0.36536  0.53917  Biso   1.000  H
  H348     1.0000 0.63263  0.39848  0.54007  Biso   1.000  H
  C347     1.0000 0.59633  0.43966  0.55253  Biso   1.000  C
  H349     1.0000 0.61762  0.38038  0.48866  Biso   1.000  H
  H350     1.0000 0.54705  0.36176  0.48957  Biso   1.000  H
  C348     1.0000 0.59584  0.43269  0.47640  Biso   1.000  C
  C349     1.0000 0.43502  0.40237  0.60324  Biso   1.000  C
  H351     1.0000 0.33783  0.22575  0.56356  Biso   1.000  H
  H352     1.0000 0.34246  0.19529  0.57666  Biso   1.000  H
  C350     1.0000 0.42695  0.26467  0.57037  Biso   1.000  C
  C351     1.0000 0.37391  0.27076  0.60387  Biso   1.000  C
  H353     1.0000 0.25105  0.19828  0.58657  Biso   1.000  H
  H354     1.0000 0.24235  0.22537  0.57337  Biso   1.000  H
  C352     1.0000 0.23514  0.26996  0.58919  Biso   1.000  C
  C353     1.0000 0.71401  0.24811  0.51462  Biso   1.000  C
  C354     1.0000 0.65912  0.18972  0.51461  Biso   1.000  C
  C355     1.0000 0.56209  0.16469  0.52685  Biso   1.000  C
  C356     1.0000 0.56471  0.16759  0.50151  Biso   1.000  C
  C357     1.0000 0.81027  0.46941  0.51461  Biso   1.000  C
  C358     1.0000 0.75156  0.52233  0.51453  Biso   1.000  C
  C359     1.0000 0.80315  0.40485  0.51444  Biso   1.000  C
  H355     1.0000 0.63244  0.48148  0.55277  Biso   1.000  H
  H356     1.0000 0.59874  0.41668  0.55996  Biso   1.000  H
  C360     1.0000 0.53643  0.44377  0.55345  Biso   1.000  C
  H357     1.0000 0.56325  0.44368  0.47587  Biso   1.000  H
  H358     1.0000 0.63604  0.47086  0.47617  Biso   1.000  H
  C361     1.0000 0.58954  0.38679  0.46391  Biso   1.000  C
  C362     1.0000 0.47034  0.47245  0.60525  Biso   1.000  C
  C363     1.0000 0.43902  0.37107  0.61461  Biso   1.000  C
  H359     1.0000 0.44213  0.30557  0.56647  Biso   1.000  H
  H360     1.0000 0.44604  0.27108  0.57897  Biso   1.000  H
  C364     1.0000 0.44901  0.22865  0.56204  Biso   1.000  C
  C365     1.0000 0.34574  0.20315  0.60728  Biso   1.000  C
  C366     1.0000 0.40855  0.30608  0.61486  Biso   1.000  C
  H361     1.0000 0.25143  0.27805  0.59807  Biso   1.000  H
  H362     1.0000 0.24821  0.30996  0.58497  Biso   1.000  H
  C367     1.0000 0.16435  0.23267  0.58969  Biso   1.000  C
  C368     1.0000 0.77078  0.24844  0.51453  Biso   1.000  C
  C369     1.0000 0.66024  0.13507  0.51446  Biso   1.000  C
  H363     1.0000 0.54992  0.12076  0.52666  Biso   1.000  H
  H364     1.0000 0.52414  0.16717  0.52647  Biso   1.000  H
  C370     1.0000 0.59406  0.19169  0.53948  Biso   1.000  C
  H365     1.0000 0.52981  0.17526  0.50107  Biso   1.000  H
  H366     1.0000 0.54752  0.12268  0.50186  Biso   1.000  H
  C371     1.0000 0.60304  0.19239  0.48907  Biso   1.000  C
  C372     1.0000 0.86494  0.52518  0.51446  Biso   1.000  C
  C373     1.0000 0.80666  0.57871  0.51443  Biso   1.000  C
  H367     1.0000 0.71364  0.52177  0.51456  Biso   1.000  H
  C374     1.0000 0.83529  0.39741  0.52685  Biso   1.000  C
  C375     1.0000 0.83240  0.39713  0.50151  Biso   1.000  C
  H368     1.0000 0.50063  0.40288  0.55227  Biso   1.000  H
  H369     1.0000 0.53443  0.45977  0.56187  Biso   1.000  H
  H370     1.0000 0.53683  0.47114  0.54676  Biso   1.000  H
  H371     1.0000 0.54912  0.34954  0.46417  Biso   1.000  H
  H372     1.0000 0.59434  0.40845  0.45586  Biso   1.000  H
  H373     1.0000 0.62153  0.37556  0.46457  Biso   1.000  H
  C376     1.0000 0.49394  0.47807  0.61924  Biso   1.000  C
  C377     1.0000 0.52831  0.50946  0.59633  Biso   1.000  C
  C378     1.0000 0.42492  0.49936  0.60471  Biso   1.000  C
  C379     1.0000 0.47673  0.42057  0.62436  Biso   1.000  C
  H374     1.0000 0.42893  0.18574  0.56517  Biso   1.000  H
  H375     1.0000 0.49372  0.24675  0.56327  Biso   1.000  H
  C380     1.0000 0.43683  0.22837  0.54902  Biso   1.000  C
  C381     1.0000 0.36414  0.19927  0.61994  Biso   1.000  C
  C382     1.0000 0.30535  0.14677  0.60058  Biso   1.000  C
  C383     1.0000 0.40481  0.26205  0.62593  Biso   1.000  C
  H376     1.0000 0.14753  0.22448  0.58087  Biso   1.000  H
  H377     1.0000 0.15084  0.19276  0.59397  Biso   1.000  H
  C384     1.0000 0.13772  0.27188  0.59781  Biso   1.000  C
  C385     1.0000 0.77203  0.19332  0.51443  Biso   1.000  C
  H378     1.0000 0.80814  0.28638  0.51456  Biso   1.000  H
  C386     1.0000 0.71700  0.13554  0.51434  Biso   1.000  C
  H379     1.0000 0.62282  0.09718  0.51446  Biso   1.000  H
  H380     1.0000 0.63462  0.19435  0.53917  Biso   1.000  H
  H381     1.0000 0.60153  0.23417  0.54007  Biso   1.000  H
  C387     1.0000 0.56035  0.15669  0.55253  Biso   1.000  C
  H382     1.0000 0.61964  0.23726  0.48866  Biso   1.000  H
  H383     1.0000 0.63822  0.18528  0.48957  Biso   1.000  H
  C388     1.0000 0.56731  0.16315  0.47640  Biso   1.000  C
  C389     1.0000 0.86448  0.58147  0.51434  Biso   1.000  C
  H384     1.0000 0.90282  0.52565  0.51446  Biso   1.000  H
  H385     1.0000 0.80524  0.61567  0.51446  Biso   1.000  H
  H386     1.0000 0.87926  0.42918  0.52666  Biso   1.000  H
  H387     1.0000 0.83283  0.35698  0.52647  Biso   1.000  H
  C390     1.0000 0.80831  0.40237  0.53948  Biso   1.000  C
  H388     1.0000 0.82472  0.35455  0.50107  Biso   1.000  H
  H389     1.0000 0.87735  0.42487  0.50186  Biso   1.000  H
  C391     1.0000 0.80763  0.41065  0.48907  Biso   1.000  C
  C392     1.0000 0.52984  0.53374  0.62604  Biso   1.000  C
  H390     1.0000 0.55155  0.55237  0.59946  Biso   1.000  H
  H391     1.0000 0.51404  0.51026  0.58747  Biso   1.000  H
  C393     1.0000 0.57211  0.48345  0.59580  Biso   1.000  C
  H392     1.0000 0.40963  0.49496  0.59577  Biso   1.000  H
  H393     1.0000 0.44903  0.54376  0.60656  Biso   1.000  H
  C394     1.0000 0.37111  0.47157  0.61347  Biso   1.000  C
  C395     1.0000 0.49641  0.41916  0.63724  Biso   1.000  C
  H394     1.0000 0.45672  0.27066  0.54586  Biso   1.000  H
  H395     1.0000 0.45266  0.20549  0.54436  Biso   1.000  H
  H396     1.0000 0.39244  0.20895  0.54767  Biso   1.000  H
  C396     1.0000 0.34481  0.14125  0.62589  Biso   1.000  C
  C397     1.0000 0.28622  0.09035  0.60650  Biso   1.000  C
  H397     1.0000 0.29183  0.14817  0.59217  Biso   1.000  H
  C398     1.0000 0.37272  0.26968  0.63824  Biso   1.000  C
  C399     1.0000 0.46844  0.26898  0.62953  Biso   1.000  C
  H398     1.0000 0.14803  0.30968  0.59317  Biso   1.000  H
  H399     1.0000 0.09311  0.24675  0.59867  Biso   1.000  H
  H400     1.0000 0.15653  0.28227  0.60637  Biso   1.000  H
  H401     1.0000 0.81043  0.19477  0.51446  Biso   1.000  H
  C400     1.0000 0.72085  0.07832  0.51355  Biso   1.000  C
  H402     1.0000 0.51852  0.15098  0.55277  Biso   1.000  H
  H403     1.0000 0.58333  0.18205  0.55996  Biso   1.000  H
  C401     1.0000 0.55623  0.09268  0.55345  Biso   1.000  C
  H404     1.0000 0.55635  0.11959  0.47587  Biso   1.000  H
  H405     1.0000 0.52913  0.16516  0.47617  Biso   1.000  H
  C402     1.0000 0.61322  0.20277  0.46391  Biso   1.000  C
  C403     1.0000 0.92167  0.64252  0.51355  Biso   1.000  C
  H406     1.0000 0.80563  0.44026  0.53917  Biso   1.000  H
  H407     1.0000 0.76582  0.36737  0.54007  Biso   1.000  H
  C404     1.0000 0.84333  0.40368  0.55253  Biso   1.000  C
  H408     1.0000 0.76275  0.38239  0.48866  Biso   1.000  H
  H409     1.0000 0.81472  0.45294  0.48957  Biso   1.000  H
  C405     1.0000 0.83684  0.40415  0.47640  Biso   1.000  C
  H410     1.0000 0.54096  0.57178  0.62207  Biso   1.000  H
  C406     1.0000 0.54851  0.53276  0.63860  Biso   1.000  C
  H411     1.0000 0.58082  0.47648  0.60477  Biso   1.000  H
  H412     1.0000 0.55042  0.44298  0.59147  Biso   1.000  H
  C407     1.0000 0.63462  0.52345  0.58876  Biso   1.000  C
  H413     1.0000 0.38821  0.47157  0.62207  Biso   1.000  H
  H414     1.0000 0.35732  0.50207  0.61397  Biso   1.000  H
  C408     1.0000 0.31283  0.41018  0.61249  Biso   1.000  C
  C409     1.0000 0.53114  0.47419  0.64394  Biso   1.000  C
  H415     1.0000 0.48605  0.38117  0.64117  Biso   1.000  H
  C410     1.0000 0.30632  0.08646  0.61926  Biso   1.000  C
  H416     1.0000 0.35804  0.13966  0.63436  Biso   1.000  H
  H417     1.0000 0.25933  0.05366  0.60207  Biso   1.000  H
  H418     1.0000 0.39983  0.31109  0.64177  Biso   1.000  H
  H419     1.0000 0.37005  0.23969  0.64477  Biso   1.000  H
  C411     1.0000 0.31222  0.26196  0.63675  Biso   1.000  C
  H420     1.0000 0.46155  0.23688  0.63586  Biso   1.000  H
  H421     1.0000 0.49364  0.30917  0.63376  Biso   1.000  H
  C412     1.0000 0.50466  0.26458  0.61847  Biso   1.000  C
  N15      1.0000 0.67329  0.02526  0.51176  Biso   1.000  N
  H422     1.0000 0.59715  0.09778  0.55227  Biso   1.000  H
  H423     1.0000 0.54025  0.07467  0.56187  Biso   1.000  H
  H424     1.0000 0.52883  0.06569  0.54676  Biso   1.000  H
  H425     1.0000 0.65042  0.19955  0.46417  Biso   1.000  H
  H426     1.0000 0.59152  0.18588  0.45586  Biso   1.000  H
  H427     1.0000 0.62444  0.24596  0.46457  Biso   1.000  H
  N16      1.0000 0.97471  0.64805  0.51176  Biso   1.000  N
  H428     1.0000 0.84901  0.36756  0.55277  Biso   1.000  H
  H429     1.0000 0.81792  0.40124  0.55996  Biso   1.000  H
  C413     1.0000 0.90735  0.46356  0.55345  Biso   1.000  C
  H430     1.0000 0.88041  0.43676  0.47587  Biso   1.000  H
  H431     1.0000 0.83481  0.36396  0.47617  Biso   1.000  H
  C414     1.0000 0.79725  0.41046  0.46391  Biso   1.000  C
  C415     1.0000 0.58714  0.59017  0.64628  Biso   1.000  C
  H432     1.0000 0.62542  0.53374  0.58016  Biso   1.000  H
  H433     1.0000 0.65345  0.49758  0.58736  Biso   1.000  H
  C416     1.0000 0.67922  0.57838  0.59450  Biso   1.000  C
  C417     1.0000 0.26382  0.40625  0.62285  Biso   1.000  C
  H434     1.0000 0.29554  0.40485  0.60377  Biso   1.000  H
  H435     1.0000 0.32215  0.37687  0.61406  Biso   1.000  H
  H436     1.0000 0.54372  0.47236  0.65246  Biso   1.000  H
  C418     1.0000 0.28094  0.02419  0.62519  Biso   1.000  C
  H437     1.0000 0.31423  0.29466  0.63117  Biso   1.000  H
  H438     1.0000 0.28451  0.22186  0.63267  Biso   1.000  H
  C419     1.0000 0.28646  0.26538  0.65047  Biso   1.000  C
  H439     1.0000 0.47754  0.22785  0.61327  Biso   1.000  H
  H440     1.0000 0.51864  0.30098  0.61287  Biso   1.000  H
  C420     1.0000 0.56246  0.26009  0.62303  Biso   1.000  C
  C421     1.0000 0.68370  0.97146  0.51073  Biso   1.000  C
  C422     1.0000 0.02853  0.71224  0.51073  Biso   1.000  C
  H441     1.0000 0.90223  0.49936  0.55227  Biso   1.000  H
  H442     1.0000 0.92533  0.46558  0.56187  Biso   1.000  H
  H443     1.0000 0.93433  0.46314  0.54676  Biso   1.000  H
  H444     1.0000 0.80044  0.45089  0.46417  Biso   1.000  H
  H445     1.0000 0.81415  0.40569  0.45586  Biso   1.000  H
  H446     1.0000 0.75402  0.37846  0.46457  Biso   1.000  H
  N17      1.0000 0.59943  0.64295  0.64251  Biso   1.000  N
  H447     1.0000 0.69183  0.56916  0.60267  Biso   1.000  H
  H448     1.0000 0.71472  0.59897  0.58876  Biso   1.000  H
  H449     1.0000 0.66184  0.60505  0.59596  Biso   1.000  H
  H450     1.0000 0.25273  0.43755  0.62097  Biso   1.000  H
  H451     1.0000 0.22702  0.36555  0.62247  Biso   1.000  H
  H452     1.0000 0.28163  0.41318  0.63147  Biso   1.000  H
  N18      1.0000 0.29041  0.01834  0.63739  Biso   1.000  N
  H453     1.0000 0.24814  0.26687  0.64937  Biso   1.000  H
  H454     1.0000 0.31664  0.30379  0.65477  Biso   1.000  H
  C423     1.0000 0.27334  0.21045  0.65913  Biso   1.000  C
  H455     1.0000 0.59135  0.29939  0.62726  Biso   1.000  H
  H456     1.0000 0.58315  0.25658  0.61527  Biso   1.000  H
  C424     1.0000 0.55223  0.20656  0.63249  Biso   1.000  C
  C425     1.0000 0.63888  0.92046  0.52001  Biso   1.000  C
  H457     1.0000 0.72662  0.98493  0.51346  Biso   1.000  H
  C426     1.0000 0.67671  0.95172  0.49652  Biso   1.000  C
  C427     1.0000 0.07948  0.71837  0.52001  Biso   1.000  C
  H458     1.0000 0.01504  0.74167  0.51346  Biso   1.000  H
  C428     1.0000 0.04828  0.72501  0.49652  Biso   1.000  C
  C429     1.0000 0.64123  0.69558  0.65115  Biso   1.000  C
  C430     1.0000 0.25739  0.95522  0.64282  Biso   1.000  C
  H459     1.0000 0.31143  0.20998  0.66066  Biso   1.000  H
  H460     1.0000 0.25653  0.21428  0.66737  Biso   1.000  H
  H461     1.0000 0.24355  0.17227  0.65487  Biso   1.000  H
  H462     1.0000 0.52664  0.16698  0.62826  Biso   1.000  H
  H463     1.0000 0.59194  0.21077  0.63476  Biso   1.000  H
  H464     1.0000 0.53181  0.20876  0.64027  Biso   1.000  H
  N19      1.0000 0.65041  0.94629  0.53338  Biso   1.000  N
  H465     1.0000 0.59591  0.90844  0.51756  Biso   1.000  H
  C431     1.0000 0.64484  0.86277  0.52003  Biso   1.000  C
  C432     1.0000 0.62554  0.94306  0.48923  Biso   1.000  C
  C433     1.0000 0.72313  0.94545  0.49020  Biso   1.000  C
  N20      1.0000 0.05367  0.70410  0.53338  Biso   1.000  N
  H466     1.0000 0.09156  0.68749  0.51756  Biso   1.000  H
  C434     1.0000 0.13717  0.78204  0.52003  Biso   1.000  C
  C435     1.0000 0.05692  0.68248  0.48923  Biso   1.000  C
  C436     1.0000 0.05450  0.77764  0.49020  Biso   1.000  C
  H467     1.0000 0.65625  0.67977  0.65827  Biso   1.000  H
  C437     1.0000 0.60541  0.72524  0.65700  Biso   1.000  C
  C438     1.0000 0.69782  0.74255  0.64282  Biso   1.000  C
  C439     1.0000 0.30442  0.94563  0.65115  Biso   1.000  C
  H468     1.0000 0.24161  0.92463  0.63567  Biso   1.000  H
  C440     1.0000 0.20082  0.94872  0.65120  Biso   1.000  C
  C441     1.0000 0.60403  0.93796  0.53997  Biso   1.000  C
  C442     1.0000 0.59523  0.80537  0.51823  Biso   1.000  C
  C443     1.0000 0.70223  0.86694  0.52229  Biso   1.000  C
  H469     1.0000 0.59341  0.94605  0.49326  Biso   1.000  H
  C444     1.0000 0.62183  0.92973  0.47584  Biso   1.000  C
  H470     1.0000 0.75762  0.95106  0.49497  Biso   1.000  H
  C445     1.0000 0.71962  0.93146  0.47707  Biso   1.000  C
  C446     1.0000 0.06204  0.66606  0.53997  Biso   1.000  C
  C447     1.0000 0.19464  0.78986  0.51823  Biso   1.000  C
  C448     1.0000 0.13304  0.83529  0.52229  Biso   1.000  C
  H471     1.0000 0.05394  0.64734  0.49326  Biso   1.000  H
  C449     1.0000 0.07023  0.69207  0.47584  Biso   1.000  C
  H472     1.0000 0.04894  0.80656  0.49497  Biso   1.000  H
  C450     1.0000 0.06852  0.78817  0.47707  Biso   1.000  C
  C451     1.0000 0.60251  0.73095  0.67028  Biso   1.000  C
  C452     1.0000 0.57342  0.74546  0.64941  Biso   1.000  C
  N21      1.0000 0.72792  0.70957  0.63739  Biso   1.000  N
  H473     1.0000 0.68303  0.75837  0.63567  Biso   1.000  H
  C453     1.0000 0.74792  0.79917  0.65120  Biso   1.000  C
  N22      1.0000 0.35703  0.95644  0.64251  Biso   1.000  N
  H474     1.0000 0.32024  0.97647  0.65827  Biso   1.000  H
  C454     1.0000 0.27471  0.88013  0.65700  Biso   1.000  C
  C455     1.0000 0.20953  0.99556  0.65993  Biso   1.000  C
  C456     1.0000 0.14314  0.90086  0.64932  Biso   1.000  C
  C457     1.0000 0.60813  0.96084  0.55371  Biso   1.000  C
  H475     1.0000 0.55633  0.80116  0.51646  Biso   1.000  H
  C458     1.0000 0.60083  0.75133  0.51890  Biso   1.000  C
  H476     1.0000 0.73783  0.90596  0.52327  Biso   1.000  H
  C459     1.0000 0.70703  0.81374  0.52306  Biso   1.000  C
  H477     1.0000 0.58783  0.92453  0.47087  Biso   1.000  H
  C460     1.0000 0.67012  0.92444  0.46997  Biso   1.000  C
  H478     1.0000 0.75101  0.92683  0.47306  Biso   1.000  H
  C461     1.0000 0.03914  0.64725  0.55371  Biso   1.000  C
  H479     1.0000 0.19883  0.75519  0.51646  Biso   1.000  H
  C462     1.0000 0.24864  0.84946  0.51890  Biso   1.000  C
  H480     1.0000 0.09406  0.83187  0.52327  Biso   1.000  H
  C463     1.0000 0.18621  0.89326  0.52306  Biso   1.000  C
  H481     1.0000 0.07543  0.66325  0.47087  Biso   1.000  H
  C464     1.0000 0.07556  0.74569  0.46997  Biso   1.000  C
  H482     1.0000 0.07314  0.82415  0.47306  Biso   1.000  H
  H483     1.0000 0.62295  0.71696  0.67576  Biso   1.000  H
  C465     1.0000 0.56954  0.75739  0.67564  Biso   1.000  C
  H484     1.0000 0.57353  0.74106  0.64036  Biso   1.000  H
  C466     1.0000 0.54114  0.77198  0.65473  Biso   1.000  C
  C467     1.0000 0.74325  0.71907  0.62519  Biso   1.000  C
  C468     1.0000 0.78603  0.79046  0.65993  Biso   1.000  C
  C469     1.0000 0.75772  0.85686  0.64932  Biso   1.000  C
  C470     1.0000 0.40982  0.99696  0.64628  Biso   1.000  C
  C471     1.0000 0.26903  0.87152  0.67028  Biso   1.000  C
  C472     1.0000 0.25454  0.82796  0.64941  Biso   1.000  C
  H485     1.0000 0.25034  0.02807  0.66127  Biso   1.000  H
  C473     1.0000 0.16354  0.99766  0.66666  Biso   1.000  C
  H486     1.0000 0.13580  0.86844  0.64367  Biso   1.000  H
  C474     1.0000 0.09074  0.90076  0.65657  Biso   1.000  C
  C475     1.0000 0.66532  0.99855  0.55951  Biso   1.000  C
  C476     1.0000 0.55581  0.94526  0.56055  Biso   1.000  C
  H487     1.0000 0.56602  0.71203  0.51767  Biso   1.000  H
  C477     1.0000 0.65824  0.75764  0.52139  Biso   1.000  C
  H488     1.0000 0.74572  0.81762  0.52487  Biso   1.000  H
  H489     1.0000 0.66821  0.91583  0.46107  Biso   1.000  H
  C478     1.0000 0.00141  0.66676  0.55951  Biso   1.000  C
  C479     1.0000 0.05472  0.61057  0.56055  Biso   1.000  C
  H490     1.0000 0.28792  0.85395  0.51767  Biso   1.000  H
  C480     1.0000 0.24234  0.90055  0.52139  Biso   1.000  C
  H491     1.0000 0.18235  0.92806  0.52487  Biso   1.000  H
  H492     1.0000 0.08413  0.75238  0.46107  Biso   1.000  H
  H493     1.0000 0.56745  0.75987  0.68467  Biso   1.000  H
  C481     1.0000 0.54102  0.77905  0.66812  Biso   1.000  C
  H494     1.0000 0.51942  0.78494  0.64937  Biso   1.000  H
  C482     1.0000 0.78014  0.69366  0.61926  Biso   1.000  C
  H495     1.0000 0.77775  0.74967  0.66127  Biso   1.000  H
  C483     1.0000 0.83411  0.83646  0.66666  Biso   1.000  C
  H496     1.0000 0.73264  0.86415  0.64367  Biso   1.000  H
  C484     1.0000 0.81002  0.90926  0.65657  Biso   1.000  C
  C485     1.0000 0.46724  0.01577  0.63860  Biso   1.000  C
  H497     1.0000 0.28304  0.90596  0.67576  Biso   1.000  H
  C486     1.0000 0.24262  0.81215  0.67564  Biso   1.000  C
  H498     1.0000 0.25893  0.83246  0.64036  Biso   1.000  H
  C487     1.0000 0.22801  0.76915  0.65473  Biso   1.000  C
  H499     1.0000 0.17104  0.03065  0.67216  Biso   1.000  H
  C488     1.0000 0.10632  0.94853  0.66474  Biso   1.000  C
  H500     1.0000 0.04940  0.86914  0.65546  Biso   1.000  H
  H501     1.0000 0.70201  0.00945  0.55496  Biso   1.000  H
  C489     1.0000 0.66812  0.02035  0.57224  Biso   1.000  C
  H502     1.0000 0.51741  0.91934  0.55657  Biso   1.000  H
  C490     1.0000 0.55604  0.96556  0.57321  Biso   1.000  C
  H503     1.0000 0.66274  0.72255  0.52187  Biso   1.000  H
  H504     1.0000 0.99054  0.69259  0.55496  Biso   1.000  H
  C491     1.0000 0.97964  0.64776  0.57224  Biso   1.000  C
  H505     1.0000 0.08064  0.59808  0.55657  Biso   1.000  H
  C492     1.0000 0.03441  0.59045  0.57321  Biso   1.000  C
  H506     1.0000 0.27743  0.94018  0.52187  Biso   1.000  H
  H507     1.0000 0.52125  0.79898  0.67187  Biso   1.000  H
  C493     1.0000 0.79642  0.65516  0.62589  Biso   1.000  C
  C494     1.0000 0.80414  0.71378  0.60650  Biso   1.000  C
  C495     1.0000 0.84222  0.89368  0.66474  Biso   1.000  C
  H508     1.0000 0.85962  0.82897  0.67216  Biso   1.000  H
  H509     1.0000 0.81973  0.95057  0.65546  Biso   1.000  H
  C496     1.0000 0.52586  0.05699  0.64394  Biso   1.000  C
  C497     1.0000 0.46620  0.99602  0.62604  Biso   1.000  C
  H510     1.0000 0.24013  0.80757  0.68467  Biso   1.000  H
  C498     1.0000 0.22093  0.76195  0.66812  Biso   1.000  C
  H511     1.0000 0.21503  0.73444  0.64937  Biso   1.000  H
  H512     1.0000 0.07402  0.94755  0.66957  Biso   1.000  H
  C499     1.0000 0.61393  0.00444  0.57907  Biso   1.000  C
  C500     1.0000 0.72693  0.06148  0.57981  Biso   1.000  C
  H513     1.0000 0.51892  0.95373  0.57766  Biso   1.000  H
  C501     1.0000 0.99553  0.60945  0.57907  Biso   1.000  C
  C502     1.0000 0.93852  0.66545  0.57981  Biso   1.000  C
  H514     1.0000 0.04625  0.56519  0.57766  Biso   1.000  H
  H515     1.0000 0.78164  0.64196  0.63436  Biso   1.000  H
  C503     1.0000 0.83512  0.63588  0.61994  Biso   1.000  C
  H516     1.0000 0.79433  0.74068  0.60207  Biso   1.000  H
  C504     1.0000 0.84141  0.69465  0.60058  Biso   1.000  C
  H517     1.0000 0.87351  0.92596  0.66957  Biso   1.000  H
  H518     1.0000 0.52761  0.07135  0.65246  Biso   1.000  H
  C505     1.0000 0.58080  0.07725  0.63724  Biso   1.000  C
  C506     1.0000 0.52195  0.01586  0.61924  Biso   1.000  C
  H519     1.0000 0.42820  0.96912  0.62207  Biso   1.000  H
  H520     1.0000 0.20102  0.72223  0.67187  Biso   1.000  H
  C507     1.0000 0.63241  0.03565  0.59226  Biso   1.000  C
  C508     1.0000 0.76510  0.12235  0.57216  Biso   1.000  C
  C509     1.0000 0.69856  0.06948  0.59269  Biso   1.000  C
  C510     1.0000 0.76325  0.02536  0.58190  Biso   1.000  C
  C511     1.0000 0.96435  0.59677  0.59226  Biso   1.000  C
  C512     1.0000 0.87762  0.64276  0.57216  Biso   1.000  C
  C513     1.0000 0.93053  0.62905  0.59269  Biso   1.000  C
  C514     1.0000 0.97465  0.73788  0.58190  Biso   1.000  C
  C515     1.0000 0.85744  0.65427  0.60728  Biso   1.000  C
  C516     1.0000 0.85723  0.59518  0.62593  Biso   1.000  C
  H521     1.0000 0.85635  0.70817  0.59217  Biso   1.000  H
  C517     1.0000 0.57941  0.05614  0.62436  Biso   1.000  C
  H522     1.0000 0.61883  0.10485  0.64117  Biso   1.000  H
  C518     1.0000 0.52753  0.99785  0.60525  Biso   1.000  C
  C519     1.0000 0.59761  0.03266  0.60324  Biso   1.000  C
  H523     1.0000 0.77422  0.11205  0.56356  Biso   1.000  H
  H524     1.0000 0.80473  0.14714  0.57666  Biso   1.000  H
  C520     1.0000 0.73534  0.16226  0.57037  Biso   1.000  C
  C521     1.0000 0.72922  0.10317  0.60387  Biso   1.000  C
  H525     1.0000 0.80175  0.05278  0.58657  Biso   1.000  H
  H526     1.0000 0.77466  0.01698  0.57337  Biso   1.000  H
  C522     1.0000 0.73002  0.96514  0.58919  Biso   1.000  C
  C523     1.0000 0.96732  0.56495  0.60324  Biso   1.000  C
  H527     1.0000 0.88794  0.66217  0.56356  Biso   1.000  H
  H528     1.0000 0.85286  0.65759  0.57666  Biso   1.000  H
  C524     1.0000 0.83774  0.57305  0.57037  Biso   1.000  C
  C525     1.0000 0.89682  0.62606  0.60387  Biso   1.000  C
  H529     1.0000 0.94721  0.74896  0.58657  Biso   1.000  H
  H530     1.0000 0.98305  0.75767  0.57337  Biso   1.000  H
  C526     1.0000 0.03483  0.76487  0.58919  Biso   1.000  C
  C527     1.0000 0.89752  0.59148  0.61486  Biso   1.000  C
  C528     1.0000 0.89694  0.62727  0.63824  Biso   1.000  C
  C529     1.0000 0.80054  0.53155  0.62953  Biso   1.000  C
  C530     1.0000 0.62893  0.06798  0.61461  Biso   1.000  C
  C531     1.0000 0.49055  0.01886  0.59633  Biso   1.000  C
  C532     1.0000 0.50063  0.92556  0.60471  Biso   1.000  C
  H531     1.0000 0.69442  0.13657  0.56647  Biso   1.000  H
  H532     1.0000 0.72894  0.17498  0.57897  Biso   1.000  H
  C533     1.0000 0.77133  0.22037  0.56204  Biso   1.000  C
  C534     1.0000 0.79685  0.14256  0.60728  Biso   1.000  C
  C535     1.0000 0.69394  0.10246  0.61486  Biso   1.000  C
  H533     1.0000 0.72192  0.97333  0.59807  Biso   1.000  H
  H534     1.0000 0.69003  0.93824  0.58497  Biso   1.000  H
  C536     1.0000 0.76732  0.93164  0.58969  Biso   1.000  C
  C537     1.0000 0.93203  0.56097  0.61461  Biso   1.000  C
  C538     1.0000 0.00215  0.52967  0.60525  Biso   1.000  C
  H535     1.0000 0.86342  0.55789  0.56647  Biso   1.000  H
  H536     1.0000 0.82503  0.55396  0.57897  Biso   1.000  H
  C539     1.0000 0.77961  0.55096  0.56204  Biso   1.000  C
  H537     1.0000 0.02662  0.74854  0.59807  Biso   1.000  H
  H538     1.0000 0.06174  0.75177  0.58497  Biso   1.000  H
  C540     1.0000 0.06832  0.83566  0.58969  Biso   1.000  C
  H539     1.0000 0.91123  0.60018  0.64177  Biso   1.000  H
  H540     1.0000 0.86965  0.62999  0.64477  Biso   1.000  H
  C541     1.0000 0.94972  0.68777  0.63675  Biso   1.000  C
  H541     1.0000 0.77535  0.53847  0.63586  Biso   1.000  H
  H542     1.0000 0.81555  0.50637  0.63376  Biso   1.000  H
  C542     1.0000 0.75993  0.49538  0.61847  Biso   1.000  C
  H543     1.0000 0.48974  0.00379  0.58747  Biso   1.000  H
  C543     1.0000 0.51653  0.08866  0.59580  Biso   1.000  C
  H544     1.0000 0.44763  0.99916  0.59946  Biso   1.000  H
  H545     1.0000 0.50502  0.91466  0.59577  Biso   1.000  H
  H546     1.0000 0.45623  0.90526  0.60656  Biso   1.000  H
  C544     1.0000 0.52842  0.89955  0.61347  Biso   1.000  C
  H547     1.0000 0.81424  0.24315  0.56517  Biso   1.000  H
  H548     1.0000 0.75323  0.24699  0.56327  Biso   1.000  H
  C545     1.0000 0.77162  0.20848  0.54902  Biso   1.000  C
  C546     1.0000 0.80075  0.16488  0.61994  Biso   1.000  C
  C547     1.0000 0.85323  0.15856  0.60058  Biso   1.000  C
  C548     1.0000 0.73791  0.14275  0.62593  Biso   1.000  C
  H549     1.0000 0.77554  0.92304  0.58087  Biso   1.000  H
  H550     1.0000 0.80722  0.95803  0.59397  Biso   1.000  H
  C549     1.0000 0.72815  0.86586  0.59781  Biso   1.000  C
  C550     1.0000 0.94384  0.52326  0.62436  Biso   1.000  C
  C551     1.0000 0.98414  0.50605  0.61924  Biso   1.000  C
  C552     1.0000 0.98113  0.47166  0.59633  Biso   1.000  C
  C553     1.0000 0.07444  0.57506  0.60471  Biso   1.000  C
  H551     1.0000 0.75685  0.57108  0.56517  Biso   1.000  H
  H552     1.0000 0.75306  0.50628  0.56327  Biso   1.000  H
  C554     1.0000 0.79155  0.56317  0.54902  Biso   1.000  C
  H553     1.0000 0.07692  0.85246  0.58087  Biso   1.000  H
  H554     1.0000 0.04193  0.84918  0.59397  Biso   1.000  H
  C555     1.0000 0.13414  0.86228  0.59781  Biso   1.000  C
  H555     1.0000 0.98044  0.68576  0.63117  Biso   1.000  H
  H556     1.0000 0.93735  0.71547  0.63267  Biso   1.000  H
  C556     1.0000 0.97894  0.71355  0.65047  Biso   1.000  C
  H557     1.0000 0.75034  0.52247  0.61327  Biso   1.000  H
  H558     1.0000 0.78232  0.48134  0.61287  Biso   1.000  H
  C557     1.0000 0.69762  0.43755  0.62303  Biso   1.000  C
  H559     1.0000 0.52354  0.10438  0.60477  Biso   1.000  H
  H560     1.0000 0.55702  0.10747  0.59147  Biso   1.000  H
  C558     1.0000 0.47653  0.11117  0.58876  Biso   1.000  C
  H561     1.0000 0.52841  0.91663  0.62207  Biso   1.000  H
  H562     1.0000 0.49792  0.85524  0.61397  Biso   1.000  H
  C559     1.0000 0.58981  0.90264  0.61249  Biso   1.000  C
  H563     1.0000 0.72934  0.18607  0.54586  Biso   1.000  H
  H564     1.0000 0.79454  0.24718  0.54436  Biso   1.000  H
  H565     1.0000 0.79104  0.18345  0.54767  Biso   1.000  H
  C560     1.0000 0.85875  0.20357  0.62589  Biso   1.000  C
  C561     1.0000 0.90963  0.19585  0.60650  Biso   1.000  C
  H566     1.0000 0.85183  0.14368  0.59217  Biso   1.000  H
  C562     1.0000 0.73034  0.10307  0.63824  Biso   1.000  C
  C563     1.0000 0.73101  0.19945  0.62953  Biso   1.000  C
  H567     1.0000 0.69033  0.83835  0.59317  Biso   1.000  H
  H568     1.0000 0.75324  0.84635  0.59867  Biso   1.000  H
  H569     1.0000 0.71771  0.87424  0.60637  Biso   1.000  H
  C564     1.0000 0.92273  0.50357  0.63724  Biso   1.000  C
  C565     1.0000 0.00392  0.47016  0.62604  Biso   1.000  C
  H570     1.0000 0.99623  0.48598  0.58747  Biso   1.000  H
  C566     1.0000 0.91134  0.42787  0.59580  Biso   1.000  C
  H571     1.0000 0.00081  0.44845  0.59946  Biso   1.000  H
  H572     1.0000 0.08533  0.59036  0.59577  Biso   1.000  H
  H573     1.0000 0.09473  0.55096  0.60656  Biso   1.000  H
  C567     1.0000 0.10041  0.62886  0.61347  Biso   1.000  C
  H574     1.0000 0.81395  0.54329  0.54586  Biso   1.000  H
  H575     1.0000 0.75281  0.54736  0.54436  Biso   1.000  H
  H576     1.0000 0.81655  0.60757  0.54767  Biso   1.000  H
  H577     1.0000 0.16165  0.85199  0.59317  Biso   1.000  H
  H578     1.0000 0.15364  0.90687  0.59867  Biso   1.000  H
  H579     1.0000 0.12575  0.84347  0.60637  Biso   1.000  H
  H580     1.0000 0.98715  0.68337  0.65477  Biso   1.000  H
  C568     1.0000 0.93711  0.72665  0.65913  Biso   1.000  C
  H581     1.0000 0.01872  0.75187  0.64937  Biso   1.000  H
  H582     1.0000 0.70803  0.40868  0.62726  Biso   1.000  H
  H583     1.0000 0.67343  0.41687  0.61527  Biso   1.000  H
  C569     1.0000 0.65435  0.44775  0.63249  Biso   1.000  C
  H584     1.0000 0.46621  0.09166  0.58016  Biso   1.000  H
  H585     1.0000 0.50244  0.15585  0.58736  Biso   1.000  H
  C570     1.0000 0.42163  0.10087  0.59450  Biso   1.000  C
  C571     1.0000 0.59372  0.85753  0.62285  Biso   1.000  C
  H586     1.0000 0.59513  0.89066  0.60377  Biso   1.000  H
  H587     1.0000 0.62312  0.94526  0.61406  Biso   1.000  H
  C572     1.0000 0.91353  0.21985  0.61926  Biso   1.000  C
  H588     1.0000 0.86031  0.21835  0.63436  Biso   1.000  H
  H589     1.0000 0.94635  0.20568  0.60207  Biso   1.000  H
  H590     1.0000 0.68891  0.08875  0.64177  Biso   1.000  H
  H591     1.0000 0.76031  0.13035  0.64477  Biso   1.000  H
  C573     1.0000 0.73801  0.05025  0.63675  Biso   1.000  C
  H592     1.0000 0.76315  0.22467  0.63586  Biso   1.000  H
  H593     1.0000 0.69082  0.18448  0.63376  Biso   1.000  H
  C574     1.0000 0.73543  0.24006  0.61847  Biso   1.000  C
  C575     1.0000 0.94302  0.46885  0.64394  Biso   1.000  C
  H594     1.0000 0.89515  0.51395  0.64117  Biso   1.000  H
  C576     1.0000 0.98423  0.45145  0.63860  Biso   1.000  C
  H595     1.0000 0.03083  0.45907  0.62207  Biso   1.000  H
  H596     1.0000 0.89564  0.41916  0.60477  Biso   1.000  H
  H597     1.0000 0.89253  0.44958  0.59147  Biso   1.000  H
  C577     1.0000 0.88884  0.36536  0.58876  Biso   1.000  C
  H598     1.0000 0.08332  0.61179  0.62207  Biso   1.000  H
  H599     1.0000 0.14475  0.64266  0.61397  Biso   1.000  H
  C578     1.0000 0.09735  0.68716  0.61249  Biso   1.000  C
  H600     1.0000 0.89854  0.68856  0.66066  Biso   1.000  H
  H601     1.0000 0.95770  0.74344  0.66737  Biso   1.000  H
  H602     1.0000 0.92871  0.75645  0.65487  Biso   1.000  H
  H603     1.0000 0.64034  0.47339  0.62826  Biso   1.000  H
  H604     1.0000 0.61883  0.40808  0.63476  Biso   1.000  H
  H605     1.0000 0.67694  0.46815  0.64027  Biso   1.000  H
  H606     1.0000 0.43083  0.12268  0.60267  Biso   1.000  H
  H607     1.0000 0.40103  0.11575  0.58876  Biso   1.000  H
  H608     1.0000 0.39491  0.05675  0.59596  Biso   1.000  H
  H609     1.0000 0.56243  0.81514  0.62097  Biso   1.000  H
  H610     1.0000 0.63442  0.86146  0.62247  Biso   1.000  H
  H611     1.0000 0.58681  0.86844  0.63147  Biso   1.000  H
  C579     1.0000 0.97583  0.25677  0.62519  Biso   1.000  C
  H612     1.0000 0.70532  0.01956  0.63117  Biso   1.000  H
  H613     1.0000 0.77812  0.06265  0.63267  Biso   1.000  H
  C580     1.0000 0.73464  0.02105  0.65047  Biso   1.000  C
  H614     1.0000 0.77211  0.24965  0.61327  Biso   1.000  H
  H615     1.0000 0.69902  0.21765  0.61287  Biso   1.000  H
  C581     1.0000 0.73993  0.30238  0.62303  Biso   1.000  C
  H616     1.0000 0.92862  0.45627  0.65246  Biso   1.000  H
  C582     1.0000 0.00302  0.41285  0.64628  Biso   1.000  C
  H617     1.0000 0.90836  0.37458  0.58016  Biso   1.000  H
  H618     1.0000 0.84414  0.34655  0.58736  Biso   1.000  H
  C583     1.0000 0.89912  0.32077  0.59450  Biso   1.000  C
  C584     1.0000 0.14242  0.73614  0.62285  Biso   1.000  C
  H619     1.0000 0.10933  0.70447  0.60377  Biso   1.000  H
  H620     1.0000 0.05473  0.67785  0.61406  Biso   1.000  H
  N23      1.0000 0.98166  0.27207  0.63739  Biso   1.000  N
  H621     1.0000 0.69622  0.01287  0.65477  Biso   1.000  H
  C585     1.0000 0.78954  0.06288  0.65913  Biso   1.000  C
  H622     1.0000 0.73312  0.98124  0.64937  Biso   1.000  H
  H623     1.0000 0.70063  0.29195  0.62726  Biso   1.000  H
  H624     1.0000 0.74343  0.32657  0.61527  Biso   1.000  H
  C586     1.0000 0.79341  0.34566  0.63249  Biso   1.000  C
  N24      1.0000 0.04350  0.40054  0.64251  Biso   1.000  N
  H625     1.0000 0.87735  0.30819  0.60267  Biso   1.000  H
  H626     1.0000 0.88424  0.28526  0.58876  Biso   1.000  H
  H627     1.0000 0.94324  0.33818  0.59596  Biso   1.000  H
  H628     1.0000 0.18482  0.74728  0.62097  Biso   1.000  H
  H629     1.0000 0.13855  0.77297  0.62247  Biso   1.000  H
  H630     1.0000 0.13155  0.71837  0.63147  Biso   1.000  H
  C587     1.0000 0.04471  0.30215  0.64282  Biso   1.000  C
  H631     1.0000 0.79004  0.10148  0.66066  Biso   1.000  H
  H632     1.0000 0.78571  0.04225  0.66737  Biso   1.000  H
  H633     1.0000 0.82773  0.07126  0.65487  Biso   1.000  H
  H634     1.0000 0.83303  0.35965  0.62826  Biso   1.000  H
  H635     1.0000 0.78925  0.38117  0.63476  Biso   1.000  H
  H636     1.0000 0.79123  0.32306  0.64027  Biso   1.000  H
  C588     1.0000 0.05434  0.35876  0.65115  Biso   1.000  C
  H637     1.0000 0.07535  0.31698  0.63567  Biso   1.000  H
  C589     1.0000 0.05125  0.25209  0.65120  Biso   1.000  C
  H638     1.0000 0.02353  0.34374  0.65827  Biso   1.000  H
  C590     1.0000 0.11985  0.39455  0.65700  Biso   1.000  C
  C591     1.0000 0.00443  0.21396  0.65993  Biso   1.000  C
  C592     1.0000 0.09913  0.24226  0.64932  Biso   1.000  C
  C593     1.0000 0.12843  0.39745  0.67028  Biso   1.000  C
  C594     1.0000 0.17203  0.42656  0.64941  Biso   1.000  C
  H639     1.0000 0.97196  0.22228  0.66127  Biso   1.000  H
  C595     1.0000 0.00234  0.16586  0.66666  Biso   1.000  C
  H640     1.0000 0.13155  0.26739  0.64367  Biso   1.000  H
  C596     1.0000 0.09923  0.18995  0.65657  Biso   1.000  C
  H641     1.0000 0.09404  0.37706  0.67576  Biso   1.000  H
  C597     1.0000 0.18785  0.43049  0.67564  Biso   1.000  C
  H642     1.0000 0.16753  0.42646  0.64036  Biso   1.000  H
  C598     1.0000 0.23086  0.45889  0.65473  Biso   1.000  C
  H643     1.0000 0.96933  0.14036  0.67216  Biso   1.000  H
  C599     1.0000 0.05145  0.15777  0.66474  Biso   1.000  C
  H644     1.0000 0.13082  0.18027  0.65546  Biso   1.000  H
  H645     1.0000 0.19241  0.43254  0.68467  Biso   1.000  H
  C600     1.0000 0.23804  0.45898  0.66812  Biso   1.000  C
  H646     1.0000 0.26552  0.48055  0.64937  Biso   1.000  H
  H647     1.0000 0.05241  0.12646  0.66957  Biso   1.000  H
  H648     1.0000 0.27772  0.47877  0.67187  Biso   1.000  H
  C601     1.0000 0.49687  0.66433  0.33334  Biso   1.000  C
  C602     1.0000 0.54286  0.66222  0.32659  Biso   1.000  C
  C603     1.0000 0.43967  0.61525  0.33140  Biso   1.000  C
  H649     1.0000 0.50437  0.69731  0.33884  Biso   1.000  H
  C604     1.0000 0.53418  0.61543  0.31786  Biso   1.000  C
  H650     1.0000 0.58367  0.69474  0.32793  Biso   1.000  H
  C605     1.0000 0.42407  0.56743  0.32325  Biso   1.000  C
  H651     1.0000 0.40735  0.61422  0.33623  Biso   1.000  H
  C606     1.0000 0.47647  0.56753  0.31598  Biso   1.000  C
  C607     1.0000 0.59075  0.62194  0.30950  Biso   1.000  C
  H652     1.0000 0.38275  0.53585  0.32214  Biso   1.000  H
  H653     1.0000 0.46915  0.53515  0.31033  Biso   1.000  H
  N25      1.0000 0.62374  0.68501  0.30407  Biso   1.000  N
  C608     1.0000 0.63778  0.61235  0.31781  Biso   1.000  C
  H654     1.0000 0.57496  0.59134  0.30233  Biso   1.000  H
  C609     1.0000 0.61427  0.69086  0.29187  Biso   1.000  C
  N26      1.0000 0.69039  0.62315  0.30917  Biso   1.000  N
  H655     1.0000 0.65358  0.64313  0.32493  Biso   1.000  H
  C610     1.0000 0.60807  0.54685  0.32368  Biso   1.000  C
  C611     1.0000 0.63965  0.75313  0.28592  Biso   1.000  C
  C612     1.0000 0.74316  0.66363  0.31294  Biso   1.000  C
  C613     1.0000 0.60238  0.53824  0.33696  Biso   1.000  C
  C614     1.0000 0.58787  0.49463  0.31609  Biso   1.000  C
  C615     1.0000 0.67815  0.80792  0.29255  Biso   1.000  C
  C616     1.0000 0.61955  0.75701  0.27318  Biso   1.000  C
  C617     1.0000 0.80058  0.68243  0.30526  Biso   1.000  C
  H656     1.0000 0.61638  0.57262  0.34244  Biso   1.000  H
  C618     1.0000 0.57596  0.47882  0.34230  Biso   1.000  C
  H657     1.0000 0.59227  0.49912  0.30704  Biso   1.000  H
  C619     1.0000 0.56135  0.43582  0.32139  Biso   1.000  C
  H658     1.0000 0.69137  0.80633  0.30104  Biso   1.000  H
  C620     1.0000 0.69747  0.86593  0.28660  Biso   1.000  C
  H659     1.0000 0.59266  0.72033  0.26873  Biso   1.000  H
  C621     1.0000 0.63869  0.81344  0.26724  Biso   1.000  C
  C622     1.0000 0.79956  0.66274  0.29270  Biso   1.000  C
  C623     1.0000 0.85919  0.72365  0.31062  Biso   1.000  C
  H660     1.0000 0.57346  0.47423  0.35133  Biso   1.000  H
  C624     1.0000 0.55426  0.42861  0.33480  Biso   1.000  C
  H661     1.0000 0.54839  0.40115  0.31603  Biso   1.000  H
  C625     1.0000 0.67907  0.86982  0.27394  Biso   1.000  C
  C626     1.0000 0.73814  0.92872  0.29259  Biso   1.000  C
  H662     1.0000 0.62517  0.81484  0.25883  Biso   1.000  H
  H663     1.0000 0.76156  0.63583  0.28873  Biso   1.000  H
  C627     1.0000 0.85528  0.68253  0.28590  Biso   1.000  C
  H664     1.0000 0.86095  0.73802  0.31914  Biso   1.000  H
  C628     1.0000 0.91414  0.74391  0.30390  Biso   1.000  C
  H665     1.0000 0.53438  0.38894  0.33853  Biso   1.000  H
  C629     1.0000 0.70724  0.93742  0.27053  Biso   1.000  C
  C630     1.0000 0.74188  0.97275  0.28152  Biso   1.000  C
  C631     1.0000 0.70606  0.93635  0.30490  Biso   1.000  C
  C632     1.0000 0.80178  0.93564  0.29619  Biso   1.000  C
  C633     1.0000 0.91274  0.72281  0.29102  Biso   1.000  C
  C634     1.0000 0.86086  0.66451  0.27191  Biso   1.000  C
  H666     1.0000 0.95217  0.77152  0.30783  Biso   1.000  H
  C635     1.0000 0.70428  0.96811  0.25935  Biso   1.000  C
  C636     1.0000 0.77235  0.03773  0.28129  Biso   1.000  C
  H667     1.0000 0.73316  0.97775  0.30843  Biso   1.000  H
  H668     1.0000 0.70338  0.90636  0.31143  Biso   1.000  H
  C637     1.0000 0.64555  0.92863  0.30341  Biso   1.000  C
  H669     1.0000 0.79489  0.90355  0.30254  Biso   1.000  H
  H670     1.0000 0.82698  0.97583  0.30044  Biso   1.000  H
  C638     1.0000 0.83799  0.93125  0.28513  Biso   1.000  C
  C639     1.0000 0.96226  0.73465  0.28129  Biso   1.000  C
  C640     1.0000 0.93094  0.69932  0.26990  Biso   1.000  C
  C641     1.0000 0.82388  0.68552  0.26301  Biso   1.000  C
  C642     1.0000 0.83396  0.59223  0.27137  Biso   1.000  C
  C643     1.0000 0.66787  0.93971  0.24647  Biso   1.000  C
  C644     1.0000 0.73658  0.03427  0.25894  Biso   1.000  C
  C645     1.0000 0.81007  0.08723  0.29102  Biso   1.000  C
  C646     1.0000 0.76835  0.06903  0.26990  Biso   1.000  C
  H671     1.0000 0.64756  0.96133  0.29783  Biso   1.000  H
  H672     1.0000 0.61785  0.88853  0.29933  Biso   1.000  H
  C647     1.0000 0.61979  0.93204  0.31715  Biso   1.000  C
  H673     1.0000 0.81087  0.89452  0.27993  Biso   1.000  H
  H674     1.0000 0.85198  0.96765  0.27953  Biso   1.000  H
  C648     1.0000 0.89579  0.92675  0.28969  Biso   1.000  C
  C649     1.0000 0.02727  0.76913  0.28152  Biso   1.000  C
  C650     1.0000 0.96575  0.70232  0.25894  Biso   1.000  C
  H675     1.0000 0.78097  0.66582  0.26614  Biso   1.000  H
  H676     1.0000 0.82307  0.67046  0.25413  Biso   1.000  H
  C651     1.0000 0.84987  0.75533  0.26246  Biso   1.000  C
  H677     1.0000 0.83835  0.58133  0.26243  Biso   1.000  H
  H678     1.0000 0.78957  0.57192  0.27324  Biso   1.000  H
  C652     1.0000 0.86175  0.56621  0.28013  Biso   1.000  C
  C653     1.0000 0.68557  0.99853  0.23890  Biso   1.000  C
  C654     1.0000 0.69056  0.90154  0.23884  Biso   1.000  C
  C655     1.0000 0.59549  0.90345  0.24856  Biso   1.000  C
  C656     1.0000 0.72386  0.05275  0.24573  Biso   1.000  C
  C657     1.0000 0.82727  0.14473  0.28590  Biso   1.000  C
  C658     1.0000 0.82977  0.08588  0.30390  Biso   1.000  C
  C659     1.0000 0.80370  0.13917  0.27191  Biso   1.000  C
  H679     1.0000 0.58148  0.93354  0.31603  Biso   1.000  H
  H680     1.0000 0.64998  0.97045  0.32143  Biso   1.000  H
  C660     1.0000 0.60667  0.87711  0.32581  Biso   1.000  C
  H681     1.0000 0.92468  0.96606  0.29394  Biso   1.000  H
  H682     1.0000 0.91649  0.92325  0.28193  Biso   1.000  H
  C661     1.0000 0.88556  0.87323  0.29915  Biso   1.000  C
  C662     1.0000 0.07124  0.80941  0.29259  Biso   1.000  C
  C663     1.0000 0.06255  0.76983  0.27053  Biso   1.000  C
  C664     1.0000 0.94727  0.67111  0.24573  Biso   1.000  C
  C665     1.0000 0.03189  0.73614  0.25935  Biso   1.000  C
  H683     1.0000 0.85688  0.77105  0.27143  Biso   1.000  H
  H684     1.0000 0.89035  0.77414  0.25813  Biso   1.000  H
  C666     1.0000 0.80986  0.77783  0.25544  Biso   1.000  C
  H685     1.0000 0.86177  0.58334  0.28873  Biso   1.000  H
  H686     1.0000 0.83128  0.52195  0.28063  Biso   1.000  H
  C667     1.0000 0.92317  0.56935  0.27915  Biso   1.000  C
  C668     1.0000 0.66655  0.00133  0.22619  Biso   1.000  C
  H687     1.0000 0.67117  0.89241  0.23024  Biso   1.000  H
  H688     1.0000 0.67579  0.86195  0.24334  Biso   1.000  H
  C669     1.0000 0.76028  0.93134  0.23703  Biso   1.000  C
  H689     1.0000 0.58438  0.86495  0.25323  Biso   1.000  H
  H690     1.0000 0.57568  0.89204  0.24003  Biso   1.000  H
  C670     1.0000 0.56848  0.93663  0.25585  Biso   1.000  C
  C671     1.0000 0.74290  0.11067  0.23989  Biso   1.000  C
  C672     1.0000 0.86320  0.20046  0.29270  Biso   1.000  C
  C673     1.0000 0.86447  0.14085  0.31062  Biso   1.000  C
  H691     1.0000 0.81938  0.04784  0.30783  Biso   1.000  H
  C674     1.0000 0.86167  0.17618  0.26301  Biso   1.000  C
  C675     1.0000 0.75828  0.16607  0.27137  Biso   1.000  C
  H692     1.0000 0.64477  0.87665  0.32734  Biso   1.000  H
  H693     1.0000 0.58987  0.88095  0.33403  Biso   1.000  H
  H694     1.0000 0.57688  0.83894  0.32153  Biso   1.000  H
  H695     1.0000 0.85998  0.83365  0.29494  Biso   1.000  H
  H696     1.0000 0.92527  0.87744  0.30144  Biso   1.000  H
  H697     1.0000 0.86515  0.87543  0.30693  Biso   1.000  H
  C676     1.0000 0.13409  0.83154  0.28660  Biso   1.000  C
  C677     1.0000 0.06368  0.76974  0.30490  Biso   1.000  C
  C678     1.0000 0.06434  0.86612  0.29619  Biso   1.000  C
  C679     1.0000 0.13018  0.80923  0.27394  Biso   1.000  C
  C680     1.0000 0.88937  0.63223  0.23989  Biso   1.000  C
  C681     1.0000 0.00145  0.68702  0.23890  Biso   1.000  C
  C682     1.0000 0.06026  0.72814  0.24647  Biso   1.000  C
  H698     1.0000 0.79954  0.75832  0.24684  Biso   1.000  H
  H699     1.0000 0.83577  0.82251  0.25404  Biso   1.000  H
  C683     1.0000 0.75496  0.76754  0.26116  Biso   1.000  C
  C684     1.0000 0.92707  0.52425  0.28951  Biso   1.000  C
  H700     1.0000 0.92846  0.55733  0.27043  Biso   1.000  H
  H701     1.0000 0.95645  0.61193  0.28074  Biso   1.000  H
  H702     1.0000 0.64079  0.96465  0.22164  Biso   1.000  H
  C685     1.0000 0.68608  0.05855  0.22037  Biso   1.000  C
  H703     1.0000 0.77546  0.97223  0.23313  Biso   1.000  H
  H704     1.0000 0.77937  0.93775  0.24563  Biso   1.000  H
  C686     1.0000 0.78234  0.89531  0.22872  Biso   1.000  C
  H705     1.0000 0.58476  0.94472  0.26473  Biso   1.000  H
  H706     1.0000 0.58155  0.97663  0.25163  Biso   1.000  H
  C687     1.0000 0.49768  0.89934  0.25635  Biso   1.000  C
  C688     1.0000 0.72277  0.11086  0.22723  Biso   1.000  C
  H707     1.0000 0.76817  0.14778  0.24434  Biso   1.000  H
  H708     1.0000 0.87429  0.23845  0.28873  Biso   1.000  H
  C689     1.0000 0.88187  0.19948  0.30526  Biso   1.000  C
  H709     1.0000 0.87707  0.13907  0.31914  Biso   1.000  H
  H710     1.0000 0.88490  0.21908  0.26614  Biso   1.000  H
  H711     1.0000 0.84740  0.17697  0.25413  Biso   1.000  H
  C690     1.0000 0.90547  0.15016  0.26246  Biso   1.000  C
  H712     1.0000 0.74299  0.16167  0.26243  Biso   1.000  H
  H713     1.0000 0.78238  0.21047  0.27324  Biso   1.000  H
  C691     1.0000 0.70447  0.13828  0.28013  Biso   1.000  C
  C692     1.0000 0.19209  0.87024  0.29255  Biso   1.000  C
  H714     1.0000 0.02224  0.75542  0.30843  Biso   1.000  H
  H715     1.0000 0.09365  0.79701  0.31143  Biso   1.000  H
  C693     1.0000 0.07134  0.71692  0.30341  Biso   1.000  C
  H716     1.0000 0.09648  0.89134  0.30254  Biso   1.000  H
  H717     1.0000 0.02416  0.85115  0.30044  Biso   1.000  H
  C694     1.0000 0.06876  0.90673  0.28513  Biso   1.000  C
  C695     1.0000 0.18656  0.82523  0.26724  Biso   1.000  C
  C696     1.0000 0.88915  0.61193  0.22723  Biso   1.000  C
  H718     1.0000 0.85228  0.62044  0.24434  Biso   1.000  H
  C697     1.0000 0.99865  0.66522  0.22619  Biso   1.000  C
  C698     1.0000 0.09844  0.78901  0.23884  Biso   1.000  C
  C699     1.0000 0.09658  0.69202  0.24856  Biso   1.000  C
  H719     1.0000 0.76416  0.78934  0.26933  Biso   1.000  H
  H720     1.0000 0.73436  0.78242  0.25544  Biso   1.000  H
  H721     1.0000 0.72824  0.72342  0.26264  Biso   1.000  H
  H722     1.0000 0.89577  0.48181  0.28763  Biso   1.000  H
  H723     1.0000 0.96775  0.52813  0.28913  Biso   1.000  H
  H724     1.0000 0.92017  0.53515  0.29813  Biso   1.000  H
  C700     1.0000 0.66728  0.06267  0.20663  Biso   1.000  C
  H725     1.0000 0.76227  0.85241  0.23183  Biso   1.000  H
  H726     1.0000 0.82705  0.91342  0.22993  Biso   1.000  H
  C701     1.0000 0.77017  0.89503  0.21568  Biso   1.000  C
  H727     1.0000 0.48087  0.89115  0.24753  Biso   1.000  H
  H728     1.0000 0.48417  0.85943  0.26063  Biso   1.000  H
  C702     1.0000 0.47106  0.93855  0.26447  Biso   1.000  C
  H729     1.0000 0.73529  0.14927  0.22323  Biso   1.000  H
  C703     1.0000 0.92048  0.25684  0.31294  Biso   1.000  C
  H730     1.0000 0.91416  0.14314  0.27143  Biso   1.000  H
  H731     1.0000 0.88375  0.10964  0.25813  Biso   1.000  H
  C704     1.0000 0.96798  0.19017  0.25544  Biso   1.000  C
  H732     1.0000 0.72157  0.13828  0.28873  Biso   1.000  H
  H733     1.0000 0.69065  0.16874  0.28063  Biso   1.000  H
  C705     1.0000 0.64616  0.07685  0.27915  Biso   1.000  C
  C706     1.0000 0.24687  0.88652  0.28592  Biso   1.000  C
  H734     1.0000 0.19364  0.88502  0.30104  Biso   1.000  H
  H735     1.0000 0.03865  0.68622  0.29783  Biso   1.000  H
  H736     1.0000 0.11146  0.72931  0.29933  Biso   1.000  H
  C707     1.0000 0.06797  0.68772  0.31715  Biso   1.000  C
  H737     1.0000 0.10545  0.91632  0.27993  Biso   1.000  H
  H738     1.0000 0.03235  0.88432  0.27953  Biso   1.000  H
  C708     1.0000 0.07326  0.96905  0.28969  Biso   1.000  C
  C709     1.0000 0.24297  0.86252  0.27318  Biso   1.000  C
  H739     1.0000 0.18516  0.81035  0.25883  Biso   1.000  H
  C710     1.0000 0.94149  0.62755  0.22037  Biso   1.000  C
  H740     1.0000 0.85077  0.58605  0.22323  Biso   1.000  H
  H741     1.0000 0.03534  0.67612  0.22164  Biso   1.000  H
  H742     1.0000 0.10755  0.77872  0.23024  Biso   1.000  H
  H743     1.0000 0.13806  0.81381  0.24334  Biso   1.000  H
  C711     1.0000 0.06868  0.82892  0.23703  Biso   1.000  C
  H744     1.0000 0.13509  0.71944  0.25323  Biso   1.000  H
  H745     1.0000 0.10799  0.68365  0.24003  Biso   1.000  H
  C712     1.0000 0.06335  0.63181  0.25585  Biso   1.000  C
  N27      1.0000 0.62924  0.01626  0.20004  Biso   1.000  N
  H746     1.0000 0.79006  0.93733  0.21254  Biso   1.000  H
  H747     1.0000 0.78600  0.87215  0.21104  Biso   1.000  H
  H748     1.0000 0.72577  0.87562  0.21433  Biso   1.000  H
  H749     1.0000 0.48137  0.97635  0.25983  Biso   1.000  H
  H750     1.0000 0.42644  0.91342  0.26533  Biso   1.000  H
  H751     1.0000 0.48986  0.94893  0.27303  Biso   1.000  H
  N28      1.0000 0.93279  0.30966  0.30917  Biso   1.000  N
  H752     1.0000 0.95878  0.20046  0.24684  Biso   1.000  H
  H753     1.0000 0.98678  0.16425  0.25404  Biso   1.000  H
  C713     1.0000 0.01256  0.24505  0.26116  Biso   1.000  C
  C714     1.0000 0.59718  0.07296  0.28951  Biso   1.000  C
  H754     1.0000 0.62889  0.07156  0.27043  Biso   1.000  H
  H755     1.0000 0.65548  0.04353  0.28074  Biso   1.000  H
  C715     1.0000 0.30916  0.92343  0.29187  Biso   1.000  C
  H756     1.0000 0.06648  0.64795  0.31603  Biso   1.000  H
  H757     1.0000 0.02956  0.67953  0.32143  Biso   1.000  H
  C716     1.0000 0.12288  0.72955  0.32581  Biso   1.000  C
  H758     1.0000 0.03397  0.95862  0.29394  Biso   1.000  H
  H759     1.0000 0.07677  0.99324  0.28193  Biso   1.000  H
  C717     1.0000 0.12677  0.01237  0.29915  Biso   1.000  C
  H760     1.0000 0.27969  0.87234  0.26873  Biso   1.000  H
  C718     1.0000 0.93736  0.60463  0.20663  Biso   1.000  C
  H761     1.0000 0.02775  0.80324  0.23313  Biso   1.000  H
  H762     1.0000 0.06228  0.84165  0.24563  Biso   1.000  H
  C719     1.0000 0.10466  0.88703  0.22872  Biso   1.000  C
  H763     1.0000 0.05527  0.64004  0.26473  Biso   1.000  H
  H764     1.0000 0.02338  0.60495  0.25163  Biso   1.000  H
  C720     1.0000 0.10065  0.59831  0.25635  Biso   1.000  C
  C721     1.0000 0.61496  0.02781  0.18669  Biso   1.000  C
  C722     1.0000 0.97456  0.36225  0.31781  Biso   1.000  C
  H765     1.0000 0.99520  0.27176  0.26264  Biso   1.000  H
  H766     1.0000 0.02519  0.23588  0.26933  Biso   1.000  H
  H767     1.0000 0.04807  0.26568  0.25544  Biso   1.000  H
  H768     1.0000 0.58609  0.10426  0.28763  Biso   1.000  H
  H769     1.0000 0.56038  0.03226  0.28913  Biso   1.000  H
  H770     1.0000 0.61496  0.07984  0.29813  Biso   1.000  H
  N29      1.0000 0.31499  0.93873  0.30407  Biso   1.000  N
  H771     1.0000 0.12338  0.76815  0.32734  Biso   1.000  H
  H772     1.0000 0.11904  0.70892  0.33403  Biso   1.000  H
  H773     1.0000 0.16106  0.73792  0.32153  Biso   1.000  H
  H774     1.0000 0.12457  0.98973  0.30693  Biso   1.000  H
  H775     1.0000 0.16638  0.02636  0.29494  Biso   1.000  H
  H776     1.0000 0.12258  0.04784  0.30144  Biso   1.000  H
  N30      1.0000 0.98377  0.61300  0.20004  Biso   1.000  N
  H777     1.0000 0.14758  0.90982  0.23183  Biso   1.000  H
  H778     1.0000 0.08657  0.91365  0.22993  Biso   1.000  H
  C723     1.0000 0.10496  0.87515  0.21568  Biso   1.000  C
  H779     1.0000 0.10889  0.58975  0.24753  Biso   1.000  H
  H780     1.0000 0.14057  0.62475  0.26063  Biso   1.000  H
  C724     1.0000 0.06148  0.53253  0.26447  Biso   1.000  C
  C725     1.0000 0.62109  0.98295  0.17739  Biso   1.000  C
  H781     1.0000 0.64588  0.07076  0.18424  Biso   1.000  H
  C726     1.0000 0.55131  0.02183  0.18671  Biso   1.000  C
  H782     1.0000 0.98959  0.34643  0.32493  Biso   1.000  H
  C727     1.0000 0.93877  0.39196  0.32368  Biso   1.000  C
  C728     1.0000 0.03117  0.40927  0.30950  Biso   1.000  C
  C729     1.0000 0.37805  0.96882  0.30950  Biso   1.000  C
  C730     1.0000 0.97223  0.58718  0.18669  Biso   1.000  C
  H783     1.0000 0.06267  0.85274  0.21254  Biso   1.000  H
  H784     1.0000 0.12787  0.91384  0.21104  Biso   1.000  H
  H785     1.0000 0.12437  0.85012  0.21433  Biso   1.000  H
  H786     1.0000 0.02366  0.50502  0.25983  Biso   1.000  H
  H787     1.0000 0.08657  0.51302  0.26533  Biso   1.000  H
  H788     1.0000 0.05107  0.54095  0.27303  Biso   1.000  H
  N31      1.0000 0.68528  0.99333  0.17842  Biso   1.000  N
  H789     1.0000 0.59166  0.94004  0.18014  Biso   1.000  H
  C731     1.0000 0.60835  0.98996  0.16318  Biso   1.000  C
  C732     1.0000 0.49805  0.96442  0.18895  Biso   1.000  C
  C733     1.0000 0.54347  0.07147  0.18489  Biso   1.000  C
  C734     1.0000 0.93587  0.39766  0.33696  Biso   1.000  C
  C735     1.0000 0.90677  0.41217  0.31609  Biso   1.000  C
  N32      1.0000 0.06125  0.37624  0.30407  Biso   1.000  N
  H790     1.0000 0.01637  0.42504  0.30233  Biso   1.000  H
  C736     1.0000 0.08126  0.46583  0.31786  Biso   1.000  C
  H791     1.0000 0.40868  0.98365  0.30233  Biso   1.000  H
  C737     1.0000 0.38458  0.91875  0.31786  Biso   1.000  C
  C738     1.0000 0.38770  0.02548  0.31781  Biso   1.000  C
  H792     1.0000 0.92927  0.57515  0.18424  Biso   1.000  H
  C739     1.0000 0.97820  0.52949  0.18671  Biso   1.000  C
  C740     1.0000 0.01706  0.63817  0.17739  Biso   1.000  C
  C741     1.0000 0.69077  0.94580  0.18023  Biso   1.000  C
  C742     1.0000 0.55569  0.94355  0.15688  Biso   1.000  C
  C743     1.0000 0.65088  0.04115  0.15591  Biso   1.000  C
  H793     1.0000 0.50144  0.92881  0.18993  Biso   1.000  H
  C744     1.0000 0.44007  0.95965  0.18974  Biso   1.000  C
  H794     1.0000 0.57819  0.11035  0.18314  Biso   1.000  H
  C745     1.0000 0.48386  0.06585  0.18556  Biso   1.000  C
  H795     1.0000 0.95630  0.38368  0.34244  Biso   1.000  H
  C746     1.0000 0.90287  0.42405  0.34230  Biso   1.000  C
  H796     1.0000 0.90688  0.40777  0.30704  Biso   1.000  H
  C747     1.0000 0.87447  0.43865  0.32139  Biso   1.000  C
  C748     1.0000 0.07658  0.38573  0.29187  Biso   1.000  C
  C749     1.0000 0.11939  0.45718  0.32659  Biso   1.000  C
  C750     1.0000 0.09108  0.52357  0.31598  Biso   1.000  C
  C751     1.0000 0.33776  0.88062  0.32659  Biso   1.000  C
  C752     1.0000 0.43246  0.90893  0.31598  Biso   1.000  C
  N33      1.0000 0.37686  0.06726  0.30917  Biso   1.000  N
  H797     1.0000 0.35689  0.01046  0.32493  Biso   1.000  H
  C753     1.0000 0.45320  0.06127  0.32368  Biso   1.000  C
  C754     1.0000 0.92856  0.47203  0.18489  Biso   1.000  C
  C755     1.0000 0.03559  0.53365  0.18895  Biso   1.000  C
  N34      1.0000 0.00662  0.69193  0.17842  Biso   1.000  N
  H798     1.0000 0.05998  0.65165  0.18014  Biso   1.000  H
  C756     1.0000 0.01004  0.61838  0.16318  Biso   1.000  C
  C757     1.0000 0.75187  0.94968  0.18100  Biso   1.000  C
  H799     1.0000 0.52676  0.90902  0.16163  Biso   1.000  H
  C758     1.0000 0.54514  0.94701  0.14375  Biso   1.000  C
  H800     1.0000 0.68597  0.07324  0.15994  Biso   1.000  H
  C759     1.0000 0.64126  0.04484  0.14250  Biso   1.000  C
  H801     1.0000 0.40529  0.92095  0.19153  Biso   1.000  H
  C760     1.0000 0.43279  0.00844  0.18805  Biso   1.000  C
  H802     1.0000 0.47938  0.10066  0.18433  Biso   1.000  H
  H803     1.0000 0.90081  0.42658  0.35133  Biso   1.000  H
  C761     1.0000 0.87438  0.44576  0.33480  Biso   1.000  C
  H804     1.0000 0.85277  0.45166  0.31603  Biso   1.000  H
  C762     1.0000 0.11349  0.36038  0.28592  Biso   1.000  C
  H805     1.0000 0.11111  0.41638  0.32793  Biso   1.000  H
  C763     1.0000 0.16747  0.50317  0.33334  Biso   1.000  C
  H806     1.0000 0.06600  0.53087  0.31033  Biso   1.000  H
  C764     1.0000 0.14337  0.57597  0.32325  Biso   1.000  C
  H807     1.0000 0.30529  0.88895  0.32793  Biso   1.000  H
  C765     1.0000 0.33567  0.83253  0.33334  Biso   1.000  C
  H808     1.0000 0.46488  0.93405  0.31033  Biso   1.000  H
  C766     1.0000 0.43257  0.85662  0.32325  Biso   1.000  C
  C767     1.0000 0.33638  0.07956  0.31294  Biso   1.000  C
  C768     1.0000 0.46178  0.06417  0.33696  Biso   1.000  C
  C769     1.0000 0.50539  0.09327  0.31609  Biso   1.000  C
  H809     1.0000 0.88966  0.46782  0.18314  Biso   1.000  H
  C770     1.0000 0.93418  0.41804  0.18556  Biso   1.000  C
  H810     1.0000 0.07116  0.57262  0.18993  Biso   1.000  H
  C771     1.0000 0.04039  0.48045  0.18974  Biso   1.000  C
  C772     1.0000 0.05418  0.74499  0.18023  Biso   1.000  C
  C773     1.0000 0.95890  0.60977  0.15591  Biso   1.000  C
  C774     1.0000 0.05646  0.61211  0.15688  Biso   1.000  C
  C775     1.0000 0.75464  0.89461  0.18111  Biso   1.000  C
  C776     1.0000 0.80816  0.00643  0.18114  Biso   1.000  C
  C777     1.0000 0.58764  0.99651  0.13665  Biso   1.000  C
  H811     1.0000 0.50915  0.91562  0.13974  Biso   1.000  H
  H812     1.0000 0.67006  0.07886  0.13753  Biso   1.000  H
  H813     1.0000 0.39318  0.00395  0.18853  Biso   1.000  H
  H814     1.0000 0.85458  0.46565  0.33853  Biso   1.000  H
  C778     1.0000 0.12978  0.32187  0.29255  Biso   1.000  C
  C779     1.0000 0.13747  0.38045  0.27318  Biso   1.000  C
  C780     1.0000 0.17555  0.56034  0.33140  Biso   1.000  C
  H815     1.0000 0.19296  0.49564  0.33884  Biso   1.000  H
  H816     1.0000 0.15307  0.61724  0.32214  Biso   1.000  H
  C781     1.0000 0.38478  0.82443  0.33140  Biso   1.000  C
  H817     1.0000 0.30266  0.80703  0.33884  Biso   1.000  H
  H818     1.0000 0.46415  0.84694  0.32214  Biso   1.000  H
  C782     1.0000 0.31759  0.11816  0.30526  Biso   1.000  C
  H819     1.0000 0.42739  0.04377  0.34244  Biso   1.000  H
  C783     1.0000 0.52119  0.09715  0.34230  Biso   1.000  C
  H820     1.0000 0.50088  0.09318  0.30704  Biso   1.000  H
  C784     1.0000 0.56419  0.12555  0.32139  Biso   1.000  C
  H821     1.0000 0.89938  0.37874  0.18433  Biso   1.000  H
  C785     1.0000 0.99157  0.42431  0.18805  Biso   1.000  C
  H822     1.0000 0.07908  0.48434  0.19153  Biso   1.000  H
  C786     1.0000 0.05033  0.80221  0.18100  Biso   1.000  C
  H823     1.0000 0.92674  0.61272  0.15994  Biso   1.000  H
  C787     1.0000 0.95519  0.59644  0.14250  Biso   1.000  C
  H824     1.0000 0.09095  0.61773  0.16163  Biso   1.000  H
  C788     1.0000 0.05295  0.59812  0.14375  Biso   1.000  C
  H825     1.0000 0.71767  0.85625  0.18114  Biso   1.000  H
  C789     1.0000 0.81098  0.89588  0.18121  Biso   1.000  C
  H826     1.0000 0.80767  0.04386  0.18114  Biso   1.000  H
  C790     1.0000 0.86391  0.00756  0.18127  Biso   1.000  C
  H827     1.0000 0.58098  0.99843  0.12773  Biso   1.000  H
  H828     1.0000 0.11499  0.30868  0.30104  Biso   1.000  H
  C791     1.0000 0.16845  0.30255  0.28660  Biso   1.000  C
  H829     1.0000 0.12766  0.40735  0.26873  Biso   1.000  H
  C792     1.0000 0.17476  0.36136  0.26724  Biso   1.000  C
  H830     1.0000 0.20687  0.59267  0.33623  Biso   1.000  H
  H831     1.0000 0.38575  0.79313  0.33623  Biso   1.000  H
  C793     1.0000 0.33728  0.13687  0.29270  Biso   1.000  C
  C794     1.0000 0.27637  0.13556  0.31062  Biso   1.000  C
  H832     1.0000 0.52576  0.09926  0.35133  Biso   1.000  H
  C795     1.0000 0.57137  0.12565  0.33480  Biso   1.000  C
  H833     1.0000 0.59887  0.14726  0.31603  Biso   1.000  H
  H834     1.0000 0.99607  0.38922  0.18853  Biso   1.000  H
  C796     1.0000 0.99358  0.80174  0.18114  Biso   1.000  C
  C797     1.0000 0.10538  0.86004  0.18111  Biso   1.000  C
  H835     1.0000 0.92119  0.59125  0.13753  Biso   1.000  H
  C798     1.0000 0.00348  0.59115  0.13665  Biso   1.000  C
  H836     1.0000 0.08437  0.59354  0.13974  Biso   1.000  H
  C799     1.0000 0.86746  0.95267  0.18128  Biso   1.000  C
  H837     1.0000 0.81156  0.85854  0.18124  Biso   1.000  H
  C800     1.0000 0.92847  0.06496  0.18112  Biso   1.000  C
  C801     1.0000 0.19078  0.32093  0.27394  Biso   1.000  C
  C802     1.0000 0.19056  0.26184  0.29259  Biso   1.000  C
  H838     1.0000 0.18971  0.37488  0.25883  Biso   1.000  H
  H839     1.0000 0.36417  0.12574  0.28873  Biso   1.000  H
  C803     1.0000 0.31750  0.17276  0.28590  Biso   1.000  C
  H840     1.0000 0.26198  0.12298  0.31914  Biso   1.000  H
  C804     1.0000 0.25607  0.17023  0.30390  Biso   1.000  C
  H841     1.0000 0.61105  0.14544  0.33853  Biso   1.000  H
  H842     1.0000 0.95615  0.76384  0.18114  Biso   1.000  H
  C805     1.0000 0.99246  0.85639  0.18127  Biso   1.000  C
  H843     1.0000 0.14377  0.86144  0.18114  Biso   1.000  H
  C806     1.0000 0.10411  0.91510  0.18121  Biso   1.000  C
  H844     1.0000 0.00156  0.58254  0.12773  Biso   1.000  H
  C807     1.0000 0.93381  0.96989  0.18150  Biso   1.000  C
  C808     1.0000 0.97040  0.03619  0.18135  Biso   1.000  C
  C809     1.0000 0.93593  0.10459  0.19351  Biso   1.000  C
  C810     1.0000 0.93624  0.10197  0.16817  Biso   1.000  C
  C811     1.0000 0.23018  0.29277  0.27053  Biso   1.000  C
  C812     1.0000 0.23086  0.25815  0.28152  Biso   1.000  C
  C813     1.0000 0.23028  0.29394  0.30490  Biso   1.000  C
  C814     1.0000 0.13389  0.19826  0.29619  Biso   1.000  C
  C815     1.0000 0.27720  0.18998  0.29102  Biso   1.000  C
  C816     1.0000 0.33549  0.19634  0.27191  Biso   1.000  C
  H845     1.0000 0.22850  0.18067  0.30783  Biso   1.000  H
  C817     1.0000 0.93503  0.86350  0.18112  Biso   1.000  C
  C818     1.0000 0.04734  0.91478  0.18128  Biso   1.000  C
  H846     1.0000 0.14148  0.95305  0.18124  Biso   1.000  H
  C819     1.0000 0.96384  0.93424  0.18135  Biso   1.000  C
  C820     1.0000 0.03609  0.06618  0.18150  Biso   1.000  C
  H847     1.0000 0.90416  0.11676  0.19334  Biso   1.000  H
  H848     1.0000 0.97637  0.14254  0.19313  Biso   1.000  H
  C821     1.0000 0.93097  0.07264  0.20614  Biso   1.000  C
  H849     1.0000 0.97877  0.13687  0.16773  Biso   1.000  H
  H850     1.0000 0.90848  0.11914  0.16854  Biso   1.000  H
  C822     1.0000 0.92267  0.06365  0.15573  Biso   1.000  C
  C823     1.0000 0.26389  0.29576  0.25935  Biso   1.000  C
  C824     1.0000 0.26536  0.22764  0.28129  Biso   1.000  C
  H851     1.0000 0.24457  0.26685  0.30843  Biso   1.000  H
  H852     1.0000 0.20299  0.29665  0.31143  Biso   1.000  H
  C825     1.0000 0.28305  0.35443  0.30341  Biso   1.000  C
  H853     1.0000 0.10869  0.20514  0.30254  Biso   1.000  H
  H854     1.0000 0.14888  0.17304  0.30044  Biso   1.000  H
  C826     1.0000 0.09326  0.16205  0.28513  Biso   1.000  C
  C827     1.0000 0.30068  0.23166  0.26990  Biso   1.000  C
  C828     1.0000 0.31449  0.13837  0.26301  Biso   1.000  C
  C829     1.0000 0.40780  0.24177  0.27137  Biso   1.000  C
  C830     1.0000 0.89542  0.83136  0.19351  Biso   1.000  C
  C831     1.0000 0.89804  0.83426  0.16817  Biso   1.000  C
  C832     1.0000 0.03009  0.96390  0.18150  Biso   1.000  C
  C833     1.0000 0.08521  0.13257  0.18128  Biso   1.000  C
  C834     1.0000 0.06577  0.02959  0.18135  Biso   1.000  C
  H855     1.0000 0.89310  0.03207  0.20583  Biso   1.000  H
  H856     1.0000 0.96596  0.06515  0.20673  Biso   1.000  H
  C835     1.0000 0.92968  0.10637  0.21919  Biso   1.000  C
  H857     1.0000 0.95095  0.04704  0.15534  Biso   1.000  H
  H858     1.0000 0.88040  0.02847  0.15623  Biso   1.000  H
  C836     1.0000 0.92917  0.09935  0.14306  Biso   1.000  C
  C837     1.0000 0.27188  0.33216  0.24647  Biso   1.000  C
  C838     1.0000 0.29768  0.26343  0.25894  Biso   1.000  C
  H859     1.0000 0.31380  0.35247  0.29783  Biso   1.000  H
  H860     1.0000 0.27071  0.38218  0.29933  Biso   1.000  H
  C839     1.0000 0.31229  0.38026  0.31715  Biso   1.000  C
  H861     1.0000 0.08367  0.18914  0.27993  Biso   1.000  H
  H862     1.0000 0.11568  0.14806  0.27953  Biso   1.000  H
  C840     1.0000 0.03098  0.10426  0.28969  Biso   1.000  C
  H863     1.0000 0.33416  0.11517  0.26614  Biso   1.000  H
  H864     1.0000 0.32956  0.15264  0.25413  Biso   1.000  H
  C841     1.0000 0.24470  0.09458  0.26246  Biso   1.000  C
  H865     1.0000 0.41869  0.25707  0.26243  Biso   1.000  H
  H866     1.0000 0.42808  0.21768  0.27324  Biso   1.000  H
  C842     1.0000 0.43377  0.29558  0.28013  Biso   1.000  C
  H867     1.0000 0.88326  0.78742  0.19334  Biso   1.000  H
  H868     1.0000 0.85748  0.83384  0.19313  Biso   1.000  H
  C843     1.0000 0.92739  0.85835  0.20614  Biso   1.000  C
  H869     1.0000 0.86314  0.84193  0.16773  Biso   1.000  H
  H870     1.0000 0.88085  0.78934  0.16854  Biso   1.000  H
  C844     1.0000 0.93637  0.85905  0.15573  Biso   1.000  C
  C845     1.0000 0.14363  0.13613  0.18127  Biso   1.000  C
  C846     1.0000 0.08492  0.18904  0.18121  Biso   1.000  C
  C847     1.0000 0.13651  0.07156  0.18112  Biso   1.000  C
  H871     1.0000 0.96577  0.14815  0.21943  Biso   1.000  H
  H872     1.0000 0.93207  0.08335  0.22664  Biso   1.000  H
  C848     1.0000 0.86977  0.11044  0.22013  Biso   1.000  C
  H873     1.0000 0.89658  0.11035  0.14253  Biso   1.000  H
  H874     1.0000 0.96940  0.13758  0.14283  Biso   1.000  H
  C849     1.0000 0.92288  0.05345  0.13059  Biso   1.000  C
  C850     1.0000 0.31299  0.31448  0.23890  Biso   1.000  C
  C851     1.0000 0.21098  0.30947  0.23884  Biso   1.000  C
  C852     1.0000 0.30798  0.40454  0.24856  Biso   1.000  C
  C853     1.0000 0.32888  0.27616  0.24573  Biso   1.000  C
  H875     1.0000 0.35208  0.41858  0.31603  Biso   1.000  H
  H876     1.0000 0.32048  0.35004  0.32143  Biso   1.000  H
  C854     1.0000 0.27046  0.39336  0.32581  Biso   1.000  C
  C855     1.0000 0.98770  0.11446  0.29915  Biso   1.000  C
  H877     1.0000 0.04136  0.07535  0.29394  Biso   1.000  H
  H878     1.0000 0.00676  0.08354  0.28193  Biso   1.000  H
  H879     1.0000 0.22900  0.08588  0.27143  Biso   1.000  H
  H880     1.0000 0.22587  0.11624  0.25813  Biso   1.000  H
  C856     1.0000 0.22219  0.03207  0.25544  Biso   1.000  C
  H881     1.0000 0.41666  0.27845  0.28873  Biso   1.000  H
  H882     1.0000 0.47811  0.30938  0.28063  Biso   1.000  H
  C857     1.0000 0.43070  0.35387  0.27915  Biso   1.000  C
  H883     1.0000 0.96795  0.86102  0.20583  Biso   1.000  H
  H884     1.0000 0.93486  0.90083  0.20673  Biso   1.000  H
  C858     1.0000 0.89369  0.82336  0.21919  Biso   1.000  C
  H885     1.0000 0.95297  0.90392  0.15534  Biso   1.000  H
  H886     1.0000 0.97155  0.85194  0.15623  Biso   1.000  H
  C859     1.0000 0.90064  0.82981  0.14306  Biso   1.000  C
  C860     1.0000 0.19827  0.19185  0.18114  Biso   1.000  C
  C861     1.0000 0.13999  0.24537  0.18111  Biso   1.000  C
  H887     1.0000 0.04697  0.18843  0.18124  Biso   1.000  H
  C862     1.0000 0.16863  0.06407  0.19351  Biso   1.000  C
  C863     1.0000 0.16573  0.06379  0.16817  Biso   1.000  C
  H888     1.0000 0.83396  0.06955  0.21893  Biso   1.000  H
  H889     1.0000 0.86776  0.12644  0.22853  Biso   1.000  H
  H890     1.0000 0.87018  0.13786  0.21344  Biso   1.000  H
  H891     1.0000 0.88248  0.01626  0.13083  Biso   1.000  H
  H892     1.0000 0.92769  0.07516  0.12254  Biso   1.000  H
  H893     1.0000 0.95489  0.04227  0.13123  Biso   1.000  H
  C864     1.0000 0.33477  0.33347  0.22619  Biso   1.000  C
  H894     1.0000 0.22127  0.32884  0.23024  Biso   1.000  H
  H895     1.0000 0.18620  0.32426  0.24334  Biso   1.000  H
  C865     1.0000 0.17110  0.23976  0.23703  Biso   1.000  C
  H896     1.0000 0.28057  0.41568  0.25323  Biso   1.000  H
  H897     1.0000 0.31638  0.42433  0.24003  Biso   1.000  H
  C866     1.0000 0.36816  0.43154  0.25585  Biso   1.000  C
  C867     1.0000 0.36776  0.25716  0.23989  Biso   1.000  C
  H898     1.0000 0.23189  0.35528  0.32734  Biso   1.000  H
  H899     1.0000 0.29106  0.41016  0.33403  Biso   1.000  H
  H900     1.0000 0.26207  0.42316  0.32153  Biso   1.000  H
  H901     1.0000 0.97367  0.14006  0.29494  Biso   1.000  H
  H902     1.0000 0.95216  0.07474  0.30144  Biso   1.000  H
  H903     1.0000 0.01030  0.13486  0.30693  Biso   1.000  H
  C868     1.0000 0.23245  0.98744  0.26116  Biso   1.000  C
  H904     1.0000 0.24169  0.04124  0.24684  Biso   1.000  H
  H905     1.0000 0.17750  0.01326  0.25404  Biso   1.000  H
  C869     1.0000 0.47578  0.40286  0.28951  Biso   1.000  C
  H906     1.0000 0.44266  0.37114  0.27043  Biso   1.000  H
  H907     1.0000 0.38808  0.34456  0.28074  Biso   1.000  H
  H908     1.0000 0.85185  0.81765  0.21943  Biso   1.000  H
  H909     1.0000 0.91666  0.84871  0.22664  Biso   1.000  H
  C870     1.0000 0.88956  0.75935  0.22013  Biso   1.000  C
  H910     1.0000 0.88968  0.78625  0.14253  Biso   1.000  H
  H911     1.0000 0.86247  0.83182  0.14283  Biso   1.000  H
  C871     1.0000 0.94655  0.86944  0.13059  Biso   1.000  C
  C872     1.0000 0.19781  0.24813  0.18100  Biso   1.000  C
  H912     1.0000 0.23617  0.19236  0.18114  Biso   1.000  H
  H913     1.0000 0.13857  0.28234  0.18114  Biso   1.000  H
  H914     1.0000 0.21259  0.09584  0.19334  Biso   1.000  H
  H915     1.0000 0.16616  0.02365  0.19313  Biso   1.000  H
  C873     1.0000 0.14165  0.06903  0.20614  Biso   1.000  C
  H916     1.0000 0.15808  0.02126  0.16773  Biso   1.000  H
  H917     1.0000 0.21068  0.09154  0.16854  Biso   1.000  H
  C874     1.0000 0.14099  0.07736  0.15573  Biso   1.000  C
  H918     1.0000 0.32387  0.35925  0.22164  Biso   1.000  H
  C875     1.0000 0.37250  0.31396  0.22037  Biso   1.000  C
  H919     1.0000 0.19676  0.22455  0.23313  Biso   1.000  H
  H920     1.0000 0.15839  0.22067  0.24563  Biso   1.000  H
  C876     1.0000 0.11297  0.21768  0.22872  Biso   1.000  C
  H921     1.0000 0.35998  0.41526  0.26473  Biso   1.000  H
  H922     1.0000 0.39508  0.41844  0.25163  Biso   1.000  H
  C877     1.0000 0.40167  0.50237  0.25635  Biso   1.000  C
  C878     1.0000 0.38805  0.27724  0.22723  Biso   1.000  C
  H923     1.0000 0.37958  0.23185  0.24434  Biso   1.000  H
  H924     1.0000 0.21068  0.97485  0.26933  Biso   1.000  H
  H925     1.0000 0.21758  0.95193  0.25544  Biso   1.000  H
  H926     1.0000 0.27657  0.00484  0.26264  Biso   1.000  H
  H927     1.0000 0.51816  0.41395  0.28763  Biso   1.000  H
  H928     1.0000 0.47191  0.43968  0.28913  Biso   1.000  H
  H929     1.0000 0.46491  0.38508  0.29813  Biso   1.000  H
  H930     1.0000 0.93048  0.76445  0.21893  Biso   1.000  H
  H931     1.0000 0.87359  0.74134  0.22853  Biso   1.000  H
  H932     1.0000 0.86217  0.73236  0.21344  Biso   1.000  H
  H933     1.0000 0.98375  0.86621  0.13083  Biso   1.000  H
  H934     1.0000 0.92486  0.85255  0.12254  Biso   1.000  H
  H935     1.0000 0.95777  0.91263  0.13123  Biso   1.000  H
  C879     1.0000 0.25502  0.30924  0.18023  Biso   1.000  C
  H936     1.0000 0.13898  0.10698  0.20583  Biso   1.000  H
  H937     1.0000 0.09915  0.03404  0.20673  Biso   1.000  H
  C880     1.0000 0.17666  0.07034  0.21919  Biso   1.000  C
  H938     1.0000 0.09608  0.04906  0.15534  Biso   1.000  H
  H939     1.0000 0.14808  0.11966  0.15623  Biso   1.000  H
  C881     1.0000 0.17019  0.07086  0.14306  Biso   1.000  C
  C882     1.0000 0.39540  0.33277  0.20663  Biso   1.000  C
  H940     1.0000 0.09019  0.23775  0.23183  Biso   1.000  H
  H941     1.0000 0.08639  0.17295  0.22993  Biso   1.000  H
  C883     1.0000 0.12489  0.22984  0.21568  Biso   1.000  C
  H942     1.0000 0.41027  0.51917  0.24753  Biso   1.000  H
  H943     1.0000 0.37527  0.51585  0.26063  Biso   1.000  H
  C884     1.0000 0.46747  0.52895  0.26447  Biso   1.000  C
  H944     1.0000 0.41398  0.26474  0.22323  Biso   1.000  H
  N35      1.0000 0.30804  0.31471  0.17842  Biso   1.000  N
  H945     1.0000 0.18237  0.03427  0.21943  Biso   1.000  H
  H946     1.0000 0.15128  0.06796  0.22664  Biso   1.000  H
  C885     1.0000 0.24071  0.13028  0.22013  Biso   1.000  C
  H947     1.0000 0.21377  0.10347  0.14253  Biso   1.000  H
  H948     1.0000 0.16817  0.03067  0.14283  Biso   1.000  H
  C886     1.0000 0.13061  0.07717  0.13059  Biso   1.000  C
  N36      1.0000 0.38703  0.37081  0.20004  Biso   1.000  N
  H949     1.0000 0.14728  0.20996  0.21254  Biso   1.000  H
  H950     1.0000 0.08617  0.21407  0.21104  Biso   1.000  H
  H951     1.0000 0.14988  0.27424  0.21433  Biso   1.000  H
  H952     1.0000 0.49498  0.51866  0.25983  Biso   1.000  H
  H953     1.0000 0.48697  0.57354  0.26533  Biso   1.000  H
  H954     1.0000 0.45908  0.51014  0.27303  Biso   1.000  H
  C887     1.0000 0.36188  0.37895  0.17739  Biso   1.000  C
  H955     1.0000 0.23559  0.16607  0.21893  Biso   1.000  H
  H956     1.0000 0.25867  0.13224  0.22853  Biso   1.000  H
  H957     1.0000 0.26768  0.12986  0.21344  Biso   1.000  H
  H958     1.0000 0.13378  0.11755  0.13083  Biso   1.000  H
  H959     1.0000 0.14748  0.07236  0.12254  Biso   1.000  H
  H960     1.0000 0.08738  0.04517  0.13123  Biso   1.000  H
  C888     1.0000 0.41284  0.38508  0.18669  Biso   1.000  C
  H961     1.0000 0.34840  0.40838  0.18014  Biso   1.000  H
  C889     1.0000 0.38162  0.39168  0.16318  Biso   1.000  C
  H962     1.0000 0.42489  0.35415  0.18424  Biso   1.000  H
  C890     1.0000 0.47051  0.44871  0.18671  Biso   1.000  C
  C891     1.0000 0.39025  0.34915  0.15591  Biso   1.000  C
  C892     1.0000 0.38786  0.44436  0.15688  Biso   1.000  C
  C893     1.0000 0.52800  0.45657  0.18489  Biso   1.000  C
  C894     1.0000 0.46637  0.50195  0.18895  Biso   1.000  C
  H963     1.0000 0.38730  0.31406  0.15994  Biso   1.000  H
  C895     1.0000 0.40356  0.35874  0.14250  Biso   1.000  C
  H964     1.0000 0.38230  0.47327  0.16163  Biso   1.000  H
  C896     1.0000 0.40185  0.45484  0.14375  Biso   1.000  C
  H965     1.0000 0.53216  0.42185  0.18314  Biso   1.000  H
  C897     1.0000 0.58199  0.51618  0.18556  Biso   1.000  C
  H966     1.0000 0.42739  0.49854  0.18993  Biso   1.000  H
  C898     1.0000 0.51957  0.55997  0.18974  Biso   1.000  C
  H967     1.0000 0.40878  0.32996  0.13753  Biso   1.000  H
  C899     1.0000 0.40889  0.41236  0.13665  Biso   1.000  C
  H968     1.0000 0.40649  0.49086  0.13974  Biso   1.000  H
  H969     1.0000 0.62127  0.52067  0.18433  Biso   1.000  H
  C900     1.0000 0.57569  0.56727  0.18805  Biso   1.000  C
  H970     1.0000 0.51570  0.59478  0.19153  Biso   1.000  H
  H971     1.0000 0.41746  0.41905  0.12773  Biso   1.000  H
  H972     1.0000 0.61076  0.60685  0.18853  Biso   1.000  H
  C901     1.0000 0.09713  0.57595  0.65770  Biso   1.000  C
  C902     1.0000 0.06416  0.60238  0.66304  Biso   1.000  C
  H973     1.0000 0.09925  0.57347  0.64867  Biso   1.000  H
  C903     1.0000 0.12564  0.55428  0.66520  Biso   1.000  C
  C904     1.0000 0.06126  0.60809  0.67632  Biso   1.000  C
  H974     1.0000 0.04372  0.61637  0.65756  Biso   1.000  H
  H975     1.0000 0.14542  0.53435  0.66147  Biso   1.000  H
  C905     1.0000 0.12553  0.56135  0.67861  Biso   1.000  C
  C906     1.0000 0.02544  0.63775  0.68219  Biso   1.000  C
  C907     1.0000 0.09325  0.58788  0.68391  Biso   1.000  C
  H976     1.0000 0.14725  0.54839  0.68397  Biso   1.000  H
  N37      1.0000 0.06724  0.69039  0.69083  Biso   1.000  N
  H977     1.0000 0.01041  0.65357  0.67507  Biso   1.000  H
  C908     1.0000 0.96885  0.59078  0.69050  Biso   1.000  C
  H978     1.0000 0.09314  0.59228  0.69296  Biso   1.000  H
  C909     1.0000 0.07952  0.74316  0.68706  Biso   1.000  C
  N38      1.0000 0.93875  0.62376  0.69593  Biso   1.000  N
  H979     1.0000 0.98363  0.57496  0.69767  Biso   1.000  H
  C910     1.0000 0.91874  0.53417  0.68214  Biso   1.000  C
  C911     1.0000 0.11815  0.80057  0.69474  Biso   1.000  C
  C912     1.0000 0.92342  0.61427  0.70813  Biso   1.000  C
  C913     1.0000 0.88063  0.54287  0.67341  Biso   1.000  C
  C914     1.0000 0.90894  0.47648  0.68402  Biso   1.000  C
  C915     1.0000 0.13683  0.79959  0.70730  Biso   1.000  C
  C916     1.0000 0.13553  0.85915  0.68938  Biso   1.000  C
  C917     1.0000 0.88653  0.63967  0.71408  Biso   1.000  C
  H980     1.0000 0.88892  0.58367  0.67207  Biso   1.000  H
  C918     1.0000 0.83256  0.49688  0.66666  Biso   1.000  C
  H981     1.0000 0.93402  0.46918  0.68967  Biso   1.000  H
  C919     1.0000 0.85665  0.42408  0.67675  Biso   1.000  C
  H982     1.0000 0.12571  0.76155  0.71127  Biso   1.000  H
  C920     1.0000 0.17273  0.85526  0.71410  Biso   1.000  C
  H983     1.0000 0.12295  0.86097  0.68086  Biso   1.000  H
  C921     1.0000 0.17025  0.91417  0.69610  Biso   1.000  C
  C922     1.0000 0.87025  0.67818  0.70745  Biso   1.000  C
  C923     1.0000 0.86253  0.61955  0.72682  Biso   1.000  C
  C924     1.0000 0.82445  0.43966  0.66860  Biso   1.000  C
  H984     1.0000 0.80704  0.50436  0.66116  Biso   1.000  H
  H985     1.0000 0.84693  0.38276  0.67786  Biso   1.000  H
  C925     1.0000 0.18993  0.91277  0.70898  Biso   1.000  C
  C926     1.0000 0.19632  0.86088  0.72809  Biso   1.000  C
  H986     1.0000 0.18062  0.95216  0.69217  Biso   1.000  H
  H987     1.0000 0.88503  0.69137  0.69896  Biso   1.000  H
  C927     1.0000 0.83155  0.69745  0.71340  Biso   1.000  C
  H988     1.0000 0.87234  0.59265  0.73127  Biso   1.000  H
  C928     1.0000 0.82526  0.63869  0.73276  Biso   1.000  C
  H989     1.0000 0.79315  0.40737  0.66377  Biso   1.000  H
  C929     1.0000 0.22765  0.96227  0.71871  Biso   1.000  C
  C930     1.0000 0.23165  0.93097  0.73010  Biso   1.000  C
  C931     1.0000 0.13835  0.82387  0.73699  Biso   1.000  C
  C932     1.0000 0.24175  0.83398  0.72863  Biso   1.000  C
  C933     1.0000 0.80922  0.67906  0.72606  Biso   1.000  C
  C934     1.0000 0.80943  0.73816  0.70741  Biso   1.000  C
  H990     1.0000 0.81031  0.62517  0.74117  Biso   1.000  H
  C935     1.0000 0.25814  0.02730  0.71848  Biso   1.000  C
  C936     1.0000 0.26344  0.96578  0.74106  Biso   1.000  C
  H991     1.0000 0.11512  0.78097  0.73386  Biso   1.000  H
  H992     1.0000 0.15262  0.82308  0.74587  Biso   1.000  H
  C937     1.0000 0.09455  0.84988  0.73754  Biso   1.000  C
  H993     1.0000 0.25703  0.83837  0.73757  Biso   1.000  H
  H994     1.0000 0.21764  0.78958  0.72676  Biso   1.000  H
  C938     1.0000 0.29555  0.86177  0.71987  Biso   1.000  C
  C939     1.0000 0.76985  0.70728  0.72947  Biso   1.000  C
  C940     1.0000 0.76914  0.74185  0.71848  Biso   1.000  C
  C941     1.0000 0.76972  0.70606  0.69510  Biso   1.000  C
  C942     1.0000 0.86613  0.80179  0.70381  Biso   1.000  C
  C943     1.0000 0.26186  0.07128  0.70741  Biso   1.000  C
  C944     1.0000 0.29276  0.06258  0.72947  Biso   1.000  C
  C945     1.0000 0.27614  0.94725  0.75427  Biso   1.000  C
  C946     1.0000 0.29572  0.03188  0.74065  Biso   1.000  C
  H995     1.0000 0.08584  0.85686  0.72857  Biso   1.000  H
  H996     1.0000 0.11625  0.89035  0.74187  Biso   1.000  H
  C947     1.0000 0.03205  0.80988  0.74456  Biso   1.000  C
  H997     1.0000 0.27845  0.86177  0.71127  Biso   1.000  H
  H998     1.0000 0.30935  0.83126  0.71937  Biso   1.000  H
  C948     1.0000 0.35384  0.92315  0.72085  Biso   1.000  C
  C949     1.0000 0.73614  0.70428  0.74065  Biso   1.000  C
  C950     1.0000 0.73464  0.77236  0.71871  Biso   1.000  C
  H999     1.0000 0.75543  0.73315  0.69157  Biso   1.000  H
  H1000    1.0000 0.79701  0.70335  0.68857  Biso   1.000  H
  C951     1.0000 0.71695  0.64557  0.69659  Biso   1.000  C
  H1001    1.0000 0.89131  0.79486  0.69746  Biso   1.000  H
  H1002    1.0000 0.85112  0.82696  0.69956  Biso   1.000  H
  C952     1.0000 0.90674  0.83795  0.71487  Biso   1.000  C
  C953     1.0000 0.30253  0.13407  0.71340  Biso   1.000  C
  C954     1.0000 0.29397  0.06370  0.69510  Biso   1.000  C
  C955     1.0000 0.19825  0.06440  0.70381  Biso   1.000  C
  C956     1.0000 0.32093  0.13018  0.72606  Biso   1.000  C
  C957     1.0000 0.25713  0.88937  0.76011  Biso   1.000  C
  C958     1.0000 0.31443  0.00147  0.76110  Biso   1.000  C
  C959     1.0000 0.33213  0.06028  0.75353  Biso   1.000  C
  H1003    1.0000 0.04124  0.79959  0.75316  Biso   1.000  H
  H1004    1.0000 0.01322  0.83575  0.74596  Biso   1.000  H
  C960     1.0000 0.98744  0.75495  0.73884  Biso   1.000  C
  C961     1.0000 0.40284  0.92708  0.71049  Biso   1.000  C
  H1005    1.0000 0.37113  0.92849  0.72957  Biso   1.000  H
  H1006    1.0000 0.34452  0.95646  0.71926  Biso   1.000  H
  C962     1.0000 0.72815  0.66788  0.75353  Biso   1.000  C
  C963     1.0000 0.70232  0.73657  0.74106  Biso   1.000  C
  C964     1.0000 0.72282  0.81007  0.70898  Biso   1.000  C
  C965     1.0000 0.69934  0.76838  0.73010  Biso   1.000  C
  H1007    1.0000 0.68623  0.64758  0.70217  Biso   1.000  H
  H1008    1.0000 0.72931  0.61787  0.70067  Biso   1.000  H
  C966     1.0000 0.68773  0.61979  0.68285  Biso   1.000  C
  H1009    1.0000 0.91633  0.81086  0.72007  Biso   1.000  H
  H1010    1.0000 0.88434  0.85199  0.72047  Biso   1.000  H
  C967     1.0000 0.96904  0.89578  0.71031  Biso   1.000  C
  C968     1.0000 0.32185  0.19208  0.70745  Biso   1.000  C
  H1011    1.0000 0.26686  0.02229  0.69157  Biso   1.000  H
  H1012    1.0000 0.29664  0.09369  0.68857  Biso   1.000  H
  C969     1.0000 0.35445  0.07137  0.69659  Biso   1.000  C
  H1013    1.0000 0.20514  0.09650  0.69746  Biso   1.000  H
  H1014    1.0000 0.17305  0.02421  0.69956  Biso   1.000  H
  C970     1.0000 0.16203  0.06880  0.71487  Biso   1.000  C
  C971     1.0000 0.36134  0.18661  0.73276  Biso   1.000  C
  C972     1.0000 0.27725  0.88918  0.77277  Biso   1.000  C
  H1015    1.0000 0.23185  0.85227  0.75566  Biso   1.000  H
  C973     1.0000 0.33345  0.99867  0.77381  Biso   1.000  C
  C974     1.0000 0.30947  0.09851  0.76116  Biso   1.000  C
  C975     1.0000 0.40454  0.09659  0.75144  Biso   1.000  C
  H1016    1.0000 0.00482  0.72828  0.73736  Biso   1.000  H
  H1017    1.0000 0.97483  0.76417  0.73067  Biso   1.000  H
  H1018    1.0000 0.95195  0.73437  0.74456  Biso   1.000  H
  H1019    1.0000 0.41394  0.89578  0.71237  Biso   1.000  H
  H1020    1.0000 0.43965  0.96779  0.71087  Biso   1.000  H
  H1021    1.0000 0.38504  0.92016  0.70187  Biso   1.000  H
  C976     1.0000 0.68703  0.68557  0.76110  Biso   1.000  C
  C977     1.0000 0.78905  0.69057  0.76116  Biso   1.000  C
  C978     1.0000 0.69202  0.59546  0.75144  Biso   1.000  C
  C979     1.0000 0.67114  0.72389  0.75427  Biso   1.000  C
  C980     1.0000 0.68252  0.82729  0.71410  Biso   1.000  C
  C981     1.0000 0.74393  0.82977  0.69610  Biso   1.000  C
  C982     1.0000 0.66451  0.80366  0.72809  Biso   1.000  C
  H1022    1.0000 0.64795  0.58147  0.68397  Biso   1.000  H
  H1023    1.0000 0.67952  0.64996  0.67857  Biso   1.000  H
  C983     1.0000 0.72956  0.60669  0.67419  Biso   1.000  C
  C984     1.0000 0.01232  0.88558  0.70085  Biso   1.000  C
  H1024    1.0000 0.95864  0.92465  0.70606  Biso   1.000  H
  H1025    1.0000 0.99324  0.91646  0.71807  Biso   1.000  H
  C985     1.0000 0.36035  0.24687  0.71408  Biso   1.000  C
  H1026    1.0000 0.30863  0.19367  0.69896  Biso   1.000  H
  H1027    1.0000 0.35244  0.03867  0.70217  Biso   1.000  H
  H1028    1.0000 0.38215  0.11147  0.70067  Biso   1.000  H
  C986     1.0000 0.38023  0.06800  0.68285  Biso   1.000  C
  H1029    1.0000 0.18913  0.10548  0.72007  Biso   1.000  H
  H1030    1.0000 0.14805  0.03240  0.72047  Biso   1.000  H
  C987     1.0000 0.10423  0.07329  0.71031  Biso   1.000  C
  C988     1.0000 0.38045  0.24299  0.72682  Biso   1.000  C
  H1031    1.0000 0.37486  0.18521  0.74117  Biso   1.000  H
  C989     1.0000 0.31392  0.94145  0.77963  Biso   1.000  C
  H1032    1.0000 0.26473  0.85077  0.77677  Biso   1.000  H
  H1033    1.0000 0.35923  0.03539  0.77836  Biso   1.000  H
  H1034    1.0000 0.32883  0.10759  0.76976  Biso   1.000  H
  H1035    1.0000 0.32423  0.13809  0.75666  Biso   1.000  H
  C990     1.0000 0.23974  0.06871  0.76297  Biso   1.000  C
  H1036    1.0000 0.41564  0.13510  0.74677  Biso   1.000  H
  H1037    1.0000 0.42434  0.10801  0.75997  Biso   1.000  H
  C991     1.0000 0.43152  0.06337  0.74415  Biso   1.000  C
  C992     1.0000 0.66526  0.66657  0.77381  Biso   1.000  C
  H1038    1.0000 0.77873  0.67116  0.76976  Biso   1.000  H
  H1039    1.0000 0.81383  0.67579  0.75666  Biso   1.000  H
  C993     1.0000 0.82893  0.76029  0.76297  Biso   1.000  C
  H1040    1.0000 0.71945  0.58437  0.74677  Biso   1.000  H
  H1041    1.0000 0.68362  0.57567  0.75997  Biso   1.000  H
  C994     1.0000 0.63184  0.56846  0.74415  Biso   1.000  C
  C995     1.0000 0.63226  0.74288  0.76011  Biso   1.000  C
  C996     1.0000 0.66274  0.86317  0.70730  Biso   1.000  C
  C997     1.0000 0.72365  0.86448  0.68938  Biso   1.000  C
  H1042    1.0000 0.77152  0.81938  0.69217  Biso   1.000  H
  C998     1.0000 0.68554  0.86167  0.73699  Biso   1.000  C
  C999     1.0000 0.59223  0.75828  0.72863  Biso   1.000  C
  H1043    1.0000 0.76813  0.64477  0.67266  Biso   1.000  H
  H1044    1.0000 0.70896  0.58989  0.66597  Biso   1.000  H
  H1045    1.0000 0.73795  0.57688  0.67847  Biso   1.000  H
  H1046    1.0000 0.02635  0.85999  0.70506  Biso   1.000  H
  H1047    1.0000 0.04784  0.92526  0.69856  Biso   1.000  H
  H1048    1.0000 0.98972  0.86518  0.69307  Biso   1.000  H
  C1000    1.0000 0.38575  0.30919  0.70813  Biso   1.000  C
  H1049    1.0000 0.41855  0.06651  0.68397  Biso   1.000  H
  H1050    1.0000 0.35005  0.02959  0.67857  Biso   1.000  H
  C1001    1.0000 0.39333  0.12289  0.67419  Biso   1.000  C
  H1051    1.0000 0.07534  0.03399  0.70606  Biso   1.000  H
  H1052    1.0000 0.08354  0.07680  0.71807  Biso   1.000  H
  C1002    1.0000 0.11444  0.12677  0.70085  Biso   1.000  C
  H1053    1.0000 0.40734  0.27967  0.73127  Biso   1.000  H
  C1003    1.0000 0.33275  0.93738  0.79337  Biso   1.000  C
  H1054    1.0000 0.22454  0.02777  0.76687  Biso   1.000  H
  H1055    1.0000 0.22065  0.06230  0.75437  Biso   1.000  H
  C1004    1.0000 0.21766  0.10469  0.77128  Biso   1.000  C
  H1056    1.0000 0.41524  0.05528  0.73527  Biso   1.000  H
  H1057    1.0000 0.41845  0.02337  0.74837  Biso   1.000  H
  C1005    1.0000 0.50234  0.10071  0.74365  Biso   1.000  C
  H1058    1.0000 0.67613  0.64075  0.77836  Biso   1.000  H
  C1006    1.0000 0.62752  0.68608  0.77963  Biso   1.000  C
  H1059    1.0000 0.80324  0.77545  0.76687  Biso   1.000  H
  H1060    1.0000 0.84163  0.77938  0.75437  Biso   1.000  H
  C1007    1.0000 0.88705  0.78237  0.77128  Biso   1.000  C
  H1061    1.0000 0.64004  0.58479  0.73527  Biso   1.000  H
  H1062    1.0000 0.60492  0.58156  0.74837  Biso   1.000  H
  C1008    1.0000 0.59835  0.49767  0.74365  Biso   1.000  C
  C1009    1.0000 0.61195  0.72276  0.77277  Biso   1.000  C
  H1063    1.0000 0.62042  0.76815  0.75566  Biso   1.000  H
  H1064    1.0000 0.63583  0.87426  0.71127  Biso   1.000  H
  C1010    1.0000 0.68243  0.88189  0.69474  Biso   1.000  C
  H1065    1.0000 0.73805  0.87707  0.68086  Biso   1.000  H
  H1066    1.0000 0.66586  0.88488  0.73386  Biso   1.000  H
  H1067    1.0000 0.67044  0.84736  0.74587  Biso   1.000  H
  C1011    1.0000 0.75533  0.90547  0.73754  Biso   1.000  C
  H1068    1.0000 0.58133  0.74298  0.73757  Biso   1.000  H
  H1069    1.0000 0.57194  0.78237  0.72676  Biso   1.000  H
  C1012    1.0000 0.56625  0.70447  0.71987  Biso   1.000  C
  N39      1.0000 0.37626  0.31499  0.69593  Biso   1.000  N
  H1070    1.0000 0.35526  0.12340  0.67266  Biso   1.000  H
  H1071    1.0000 0.41016  0.11910  0.66597  Biso   1.000  H
  H1072    1.0000 0.42314  0.16111  0.67847  Biso   1.000  H
  H1073    1.0000 0.14005  0.16640  0.70506  Biso   1.000  H
  H1074    1.0000 0.07475  0.12260  0.69856  Biso   1.000  H
  H1075    1.0000 0.13485  0.12457  0.69307  Biso   1.000  H
  N40      1.0000 0.37078  0.98379  0.79996  Biso   1.000  N
  H1076    1.0000 0.23773  0.14759  0.76817  Biso   1.000  H
  H1077    1.0000 0.17295  0.08658  0.77007  Biso   1.000  H
  C1013    1.0000 0.22986  0.10501  0.78432  Biso   1.000  C
  H1078    1.0000 0.51916  0.10890  0.75247  Biso   1.000  H
  H1079    1.0000 0.51583  0.14057  0.73937  Biso   1.000  H
  C1014    1.0000 0.52897  0.06150  0.73553  Biso   1.000  C
  C1015    1.0000 0.60463  0.66727  0.79337  Biso   1.000  C
  H1080    1.0000 0.90981  0.76225  0.76817  Biso   1.000  H
  H1081    1.0000 0.91361  0.82705  0.77007  Biso   1.000  H
  C1016    1.0000 0.87511  0.77016  0.78432  Biso   1.000  C
  H1082    1.0000 0.58975  0.48088  0.75247  Biso   1.000  H
  H1083    1.0000 0.62473  0.48415  0.73937  Biso   1.000  H
  C1017    1.0000 0.53253  0.47105  0.73553  Biso   1.000  C
  H1084    1.0000 0.58602  0.73526  0.77677  Biso   1.000  H
  C1018    1.0000 0.66365  0.92049  0.68706  Biso   1.000  C
  H1085    1.0000 0.77102  0.91417  0.72857  Biso   1.000  H
  H1086    1.0000 0.77413  0.88376  0.74187  Biso   1.000  H
  C1019    1.0000 0.77783  0.96797  0.74456  Biso   1.000  C
  H1087    1.0000 0.58334  0.72155  0.71127  Biso   1.000  H
  H1088    1.0000 0.52191  0.69067  0.71937  Biso   1.000  H
  C1020    1.0000 0.56932  0.64617  0.72085  Biso   1.000  C
  C1021    1.0000 0.40927  0.37811  0.69050  Biso   1.000  C
  C1022    1.0000 0.38506  0.97223  0.81331  Biso   1.000  C
  H1089    1.0000 0.20994  0.06267  0.78746  Biso   1.000  H
  H1090    1.0000 0.21403  0.12789  0.78896  Biso   1.000  H
  H1091    1.0000 0.27423  0.12438  0.78567  Biso   1.000  H
  H1092    1.0000 0.51866  0.02370  0.74017  Biso   1.000  H
  H1093    1.0000 0.57356  0.08658  0.73467  Biso   1.000  H
  H1094    1.0000 0.51014  0.05107  0.72697  Biso   1.000  H
  N41      1.0000 0.61300  0.62924  0.79996  Biso   1.000  N
  H1095    1.0000 0.85272  0.79004  0.78746  Biso   1.000  H
  H1096    1.0000 0.91385  0.78597  0.78896  Biso   1.000  H
  H1097    1.0000 0.85012  0.72576  0.78567  Biso   1.000  H
  H1098    1.0000 0.50502  0.48134  0.74017  Biso   1.000  H
  H1099    1.0000 0.51303  0.42646  0.73467  Biso   1.000  H
  H1100    1.0000 0.54092  0.48986  0.72697  Biso   1.000  H
  N42      1.0000 0.62316  0.93279  0.69083  Biso   1.000  N
  H1101    1.0000 0.75831  0.95876  0.75316  Biso   1.000  H
  H1102    1.0000 0.82252  0.98678  0.74596  Biso   1.000  H
  C1023    1.0000 0.76757  0.01261  0.73884  Biso   1.000  C
  C1024    1.0000 0.52424  0.59719  0.71049  Biso   1.000  C
  H1103    1.0000 0.55734  0.62886  0.72957  Biso   1.000  H
  H1104    1.0000 0.61194  0.65548  0.71926  Biso   1.000  H
  C1025    1.0000 0.36225  0.38770  0.68219  Biso   1.000  C
  H1105    1.0000 0.42506  0.40871  0.69767  Biso   1.000  H
  C1026    1.0000 0.46585  0.38461  0.68214  Biso   1.000  C
  H1106    1.0000 0.35415  0.92928  0.81576  Biso   1.000  H
  C1027    1.0000 0.44869  0.97817  0.81329  Biso   1.000  C
  C1028    1.0000 0.37893  0.01710  0.82261  Biso   1.000  C
  C1029    1.0000 0.58718  0.61497  0.81331  Biso   1.000  C
  C1030    1.0000 0.61233  0.97457  0.68219  Biso   1.000  C
  H1107    1.0000 0.72343  0.99516  0.73736  Biso   1.000  H
  H1108    1.0000 0.78934  0.02519  0.73067  Biso   1.000  H
  H1109    1.0000 0.78242  0.04807  0.74456  Biso   1.000  H
  H1110    1.0000 0.48184  0.58605  0.71237  Biso   1.000  H
  H1111    1.0000 0.52812  0.56037  0.71087  Biso   1.000  H
  H1112    1.0000 0.53512  0.61497  0.70187  Biso   1.000  H
  N43      1.0000 0.30964  0.37689  0.69083  Biso   1.000  N
  H1113    1.0000 0.34642  0.35687  0.67507  Biso   1.000  H
  C1031    1.0000 0.39196  0.45320  0.67632  Biso   1.000  C
  C1032    1.0000 0.45714  0.33778  0.67341  Biso   1.000  C
  C1033    1.0000 0.52353  0.43247  0.68402  Biso   1.000  C
  C1034    1.0000 0.45655  0.92858  0.81511  Biso   1.000  C
  C1035    1.0000 0.50195  0.03558  0.81105  Biso   1.000  C
  N44      1.0000 0.31472  0.00667  0.82158  Biso   1.000  N
  H1114    1.0000 0.40836  0.06000  0.81986  Biso   1.000  H
  C1036    1.0000 0.39167  0.01008  0.83682  Biso   1.000  C
  H1115    1.0000 0.57511  0.64585  0.81576  Biso   1.000  H
  C1037    1.0000 0.63814  0.62110  0.82261  Biso   1.000  C
  C1038    1.0000 0.52949  0.55129  0.81329  Biso   1.000  C
  H1116    1.0000 0.64313  0.98959  0.67507  Biso   1.000  H
  C1039    1.0000 0.54682  0.93878  0.67632  Biso   1.000  C
  C1040    1.0000 0.62195  0.03118  0.69050  Biso   1.000  C
  C1041    1.0000 0.25684  0.33637  0.68706  Biso   1.000  C
  C1042    1.0000 0.39764  0.46181  0.66304  Biso   1.000  C
  C1043    1.0000 0.41212  0.50537  0.68391  Biso   1.000  C
  H1117    1.0000 0.41635  0.30531  0.67207  Biso   1.000  H
  C1044    1.0000 0.50313  0.33567  0.66666  Biso   1.000  C
  H1118    1.0000 0.53087  0.46490  0.68967  Biso   1.000  H
  C1045    1.0000 0.57593  0.43257  0.67675  Biso   1.000  C
  H1119    1.0000 0.42181  0.88965  0.81686  Biso   1.000  H
  C1046    1.0000 0.51614  0.93415  0.81444  Biso   1.000  C
  H1120    1.0000 0.49856  0.07119  0.81007  Biso   1.000  H
  C1047    1.0000 0.55995  0.04040  0.81026  Biso   1.000  C
  C1048    1.0000 0.30923  0.05420  0.81977  Biso   1.000  C
  C1049    1.0000 0.34914  0.95890  0.84409  Biso   1.000  C
  C1050    1.0000 0.44433  0.05649  0.84312  Biso   1.000  C
  N45      1.0000 0.69195  0.68529  0.82158  Biso   1.000  N
  H1121    1.0000 0.65163  0.59167  0.81986  Biso   1.000  H
  C1051    1.0000 0.61841  0.60837  0.83682  Biso   1.000  C
  C1052    1.0000 0.47202  0.54348  0.81511  Biso   1.000  C
  C1053    1.0000 0.53363  0.49805  0.81105  Biso   1.000  C
  C1054    1.0000 0.53824  0.93588  0.66304  Biso   1.000  C
  C1055    1.0000 0.49464  0.90678  0.68391  Biso   1.000  C
  N46      1.0000 0.68501  0.06127  0.69593  Biso   1.000  N
  H1122    1.0000 0.59134  0.01640  0.69767  Biso   1.000  H
  C1056    1.0000 0.61544  0.08129  0.68214  Biso   1.000  C
  C1057    1.0000 0.19945  0.31761  0.69474  Biso   1.000  C
  H1123    1.0000 0.38362  0.42737  0.65756  Biso   1.000  H
  C1058    1.0000 0.42404  0.52118  0.65770  Biso   1.000  C
  H1124    1.0000 0.40773  0.50088  0.69296  Biso   1.000  H
  C1059    1.0000 0.43865  0.56418  0.67861  Biso   1.000  C
  C1060    1.0000 0.56035  0.38480  0.66860  Biso   1.000  C
  H1125    1.0000 0.49563  0.30269  0.66116  Biso   1.000  H
  H1126    1.0000 0.61727  0.46420  0.67786  Biso   1.000  H
  H1127    1.0000 0.52064  0.89938  0.81567  Biso   1.000  H
  C1061    1.0000 0.56721  0.99155  0.81195  Biso   1.000  C
  H1128    1.0000 0.59473  0.07909  0.80847  Biso   1.000  H
  C1062    1.0000 0.24816  0.05037  0.81900  Biso   1.000  C
  H1129    1.0000 0.31403  0.92675  0.84006  Biso   1.000  H
  C1063    1.0000 0.35874  0.95515  0.85750  Biso   1.000  C
  H1130    1.0000 0.47324  0.09098  0.83837  Biso   1.000  H
  C1064    1.0000 0.45486  0.05299  0.85625  Biso   1.000  C
  C1065    1.0000 0.74500  0.69081  0.81977  Biso   1.000  C
  C1066    1.0000 0.60975  0.65085  0.84409  Biso   1.000  C
  C1067    1.0000 0.61216  0.55569  0.84312  Biso   1.000  C
  H1131    1.0000 0.46784  0.57815  0.81686  Biso   1.000  H
  C1068    1.0000 0.41803  0.48387  0.81444  Biso   1.000  C
  H1132    1.0000 0.57261  0.50146  0.81007  Biso   1.000  H
  C1069    1.0000 0.48045  0.44008  0.81026  Biso   1.000  C
  H1133    1.0000 0.57263  0.95628  0.65756  Biso   1.000  H
  C1070    1.0000 0.47881  0.90285  0.65770  Biso   1.000  C
  H1134    1.0000 0.49914  0.90687  0.69296  Biso   1.000  H
  C1071    1.0000 0.43581  0.87445  0.67861  Biso   1.000  C
  C1072    1.0000 0.69084  0.07657  0.70813  Biso   1.000  C
  C1073    1.0000 0.66224  0.11938  0.67341  Biso   1.000  C
  C1074    1.0000 0.56754  0.09107  0.68402  Biso   1.000  C
  C1075    1.0000 0.20046  0.33731  0.70730  Biso   1.000  C
  C1076    1.0000 0.14083  0.27639  0.68938  Biso   1.000  C
  H1135    1.0000 0.42654  0.52577  0.64867  Biso   1.000  H
  C1077    1.0000 0.44574  0.57138  0.66520  Biso   1.000  C
  H1136    1.0000 0.45164  0.59890  0.68397  Biso   1.000  H
  H1137    1.0000 0.59265  0.38578  0.66377  Biso   1.000  H
  H1138    1.0000 0.60682  0.99605  0.81147  Biso   1.000  H
  C1078    1.0000 0.19184  0.99357  0.81886  Biso   1.000  C
  C1079    1.0000 0.24536  0.10539  0.81889  Biso   1.000  C
  H1139    1.0000 0.32996  0.92119  0.86247  Biso   1.000  H
  C1080    1.0000 0.41236  0.00349  0.86335  Biso   1.000  C
  H1140    1.0000 0.49085  0.08438  0.86026  Biso   1.000  H
  C1081    1.0000 0.80219  0.75187  0.81900  Biso   1.000  C
  H1141    1.0000 0.61273  0.68599  0.84006  Biso   1.000  H
  C1082    1.0000 0.59644  0.64126  0.85750  Biso   1.000  C
  H1142    1.0000 0.61772  0.52677  0.83837  Biso   1.000  H
  C1083    1.0000 0.59815  0.54516  0.85625  Biso   1.000  C
  H1143    1.0000 0.37875  0.47938  0.81567  Biso   1.000  H
  C1084    1.0000 0.42433  0.43278  0.81195  Biso   1.000  C
  H1144    1.0000 0.48432  0.40527  0.80847  Biso   1.000  H
  H1145    1.0000 0.47426  0.90079  0.64867  Biso   1.000  H
  C1085    1.0000 0.42863  0.87435  0.66520  Biso   1.000  C
  H1146    1.0000 0.40115  0.85278  0.68397  Biso   1.000  H
  C1086    1.0000 0.75313  0.11348  0.71408  Biso   1.000  C
  H1147    1.0000 0.69473  0.11110  0.67207  Biso   1.000  H
  C1087    1.0000 0.66433  0.16747  0.66666  Biso   1.000  C
  H1148    1.0000 0.53514  0.06599  0.68967  Biso   1.000  H
  C1088    1.0000 0.56743  0.14338  0.67675  Biso   1.000  C
  H1149    1.0000 0.23847  0.36421  0.71127  Biso   1.000  H
  C1089    1.0000 0.14472  0.31747  0.71410  Biso   1.000  C
  H1150    1.0000 0.13905  0.26198  0.68086  Biso   1.000  H
  C1090    1.0000 0.08586  0.25609  0.69610  Biso   1.000  C
  H1151    1.0000 0.46564  0.61111  0.66147  Biso   1.000  H
  H1152    1.0000 0.19235  0.95618  0.81886  Biso   1.000  H
  C1091    1.0000 0.13609  0.99244  0.81873  Biso   1.000  C
  H1153    1.0000 0.28235  0.14380  0.81886  Biso   1.000  H
  C1092    1.0000 0.18901  0.10412  0.81879  Biso   1.000  C
  H1154    1.0000 0.41902  0.00157  0.87227  Biso   1.000  H
  C1093    1.0000 0.80172  0.80815  0.81886  Biso   1.000  C
  C1094    1.0000 0.86001  0.75463  0.81889  Biso   1.000  C
  H1155    1.0000 0.59124  0.67008  0.86247  Biso   1.000  H
  C1095    1.0000 0.59111  0.58764  0.86335  Biso   1.000  C
  H1156    1.0000 0.59353  0.50918  0.86026  Biso   1.000  H
  H1157    1.0000 0.38924  0.39315  0.81147  Biso   1.000  H
  H1158    1.0000 0.38895  0.85456  0.66147  Biso   1.000  H
  C1096    1.0000 0.80794  0.12981  0.70745  Biso   1.000  C
  C1097    1.0000 0.75703  0.13748  0.72682  Biso   1.000  C
  C1098    1.0000 0.61521  0.17557  0.66860  Biso   1.000  C
  H1159    1.0000 0.69734  0.19297  0.66116  Biso   1.000  H
  H1160    1.0000 0.53587  0.15311  0.67786  Biso   1.000  H
  C1099    1.0000 0.08726  0.27719  0.70898  Biso   1.000  C
  C1100    1.0000 0.13914  0.33549  0.72809  Biso   1.000  C
  H1161    1.0000 0.04783  0.22848  0.69217  Biso   1.000  H
  C1101    1.0000 0.07153  0.93504  0.81888  Biso   1.000  C
  C1102    1.0000 0.13256  0.04737  0.81872  Biso   1.000  C
  H1162    1.0000 0.18846  0.14151  0.81876  Biso   1.000  H
  H1163    1.0000 0.76385  0.80768  0.81886  Biso   1.000  H
  C1103    1.0000 0.85639  0.86392  0.81873  Biso   1.000  C
  H1164    1.0000 0.86143  0.71766  0.81886  Biso   1.000  H
  C1104    1.0000 0.91510  0.81100  0.81879  Biso   1.000  C
  H1165    1.0000 0.58253  0.58095  0.87227  Biso   1.000  H
  H1166    1.0000 0.80635  0.11498  0.69896  Biso   1.000  H
  C1105    1.0000 0.86594  0.16850  0.71340  Biso   1.000  C
  H1167    1.0000 0.72034  0.12770  0.73127  Biso   1.000  H
  C1106    1.0000 0.81344  0.17477  0.73276  Biso   1.000  C
  H1168    1.0000 0.61425  0.20687  0.66377  Biso   1.000  H
  C1107    1.0000 0.03776  0.26540  0.71871  Biso   1.000  C
  C1108    1.0000 0.06906  0.30068  0.73010  Biso   1.000  C
  C1109    1.0000 0.17612  0.31448  0.73699  Biso   1.000  C
  C1110    1.0000 0.16604  0.40777  0.72863  Biso   1.000  C
  C1111    1.0000 0.02960  0.96381  0.81865  Biso   1.000  C
  C1112    1.0000 0.06407  0.89541  0.80649  Biso   1.000  C
  C1113    1.0000 0.06376  0.89803  0.83183  Biso   1.000  C
  C1114    1.0000 0.06619  0.03011  0.81850  Biso   1.000  C
  C1115    1.0000 0.91479  0.86743  0.81872  Biso   1.000  C
  C1116    1.0000 0.86351  0.92849  0.81888  Biso   1.000  C
  H1169    1.0000 0.95303  0.81157  0.81876  Biso   1.000  H
  C1117    1.0000 0.86982  0.19077  0.72606  Biso   1.000  C
  C1118    1.0000 0.92876  0.19059  0.70741  Biso   1.000  C
  H1170    1.0000 0.81486  0.18970  0.74117  Biso   1.000  H
  C1119    1.0000 0.97273  0.23087  0.71848  Biso   1.000  C
  C1120    1.0000 0.03425  0.29768  0.74106  Biso   1.000  C
  H1171    1.0000 0.21903  0.33418  0.73386  Biso   1.000  H
  H1172    1.0000 0.17695  0.32959  0.74587  Biso   1.000  H
  C1121    1.0000 0.15013  0.24467  0.73754  Biso   1.000  C
  H1173    1.0000 0.16165  0.41867  0.73757  Biso   1.000  H
  H1174    1.0000 0.21043  0.42808  0.72676  Biso   1.000  H
  C1122    1.0000 0.13825  0.43378  0.71987  Biso   1.000  C
  C1123    1.0000 0.96391  0.93382  0.81850  Biso   1.000  C
  H1175    1.0000 0.09586  0.88329  0.80666  Biso   1.000  H
  H1176    1.0000 0.02363  0.85746  0.80687  Biso   1.000  H
  C1124    1.0000 0.06903  0.92736  0.79386  Biso   1.000  C
  H1177    1.0000 0.02125  0.86317  0.83227  Biso   1.000  H
  H1178    1.0000 0.09152  0.88086  0.83146  Biso   1.000  H
  C1125    1.0000 0.07733  0.93635  0.84427  Biso   1.000  C
  C1126    1.0000 0.03618  0.06581  0.81865  Biso   1.000  C
  C1127    1.0000 0.93423  0.97041  0.81865  Biso   1.000  C
  C1128    1.0000 0.83137  0.93593  0.80649  Biso   1.000  C
  C1129    1.0000 0.83427  0.93621  0.83183  Biso   1.000  C
  C1130    1.0000 0.93745  0.23017  0.72947  Biso   1.000  C
  C1131    1.0000 0.93635  0.23031  0.69510  Biso   1.000  C
  C1132    1.0000 0.93566  0.13388  0.70381  Biso   1.000  C
  C1133    1.0000 0.96813  0.26390  0.74065  Biso   1.000  C
  C1134    1.0000 0.05273  0.32889  0.75427  Biso   1.000  C
  H1179    1.0000 0.14315  0.22900  0.72857  Biso   1.000  H
  H1180    1.0000 0.10967  0.22591  0.74187  Biso   1.000  H
  C1135    1.0000 0.19014  0.22217  0.74456  Biso   1.000  C
  H1181    1.0000 0.13826  0.41671  0.71127  Biso   1.000  H
  H1182    1.0000 0.16875  0.47809  0.71937  Biso   1.000  H
  C1136    1.0000 0.07686  0.43070  0.72085  Biso   1.000  C
  H1183    1.0000 0.10692  0.96797  0.79417  Biso   1.000  H
  H1184    1.0000 0.03404  0.93485  0.79327  Biso   1.000  H
  C1137    1.0000 0.07034  0.89368  0.78081  Biso   1.000  C
  H1185    1.0000 0.04905  0.95296  0.84466  Biso   1.000  H
  H1186    1.0000 0.11962  0.97158  0.84377  Biso   1.000  H
  C1138    1.0000 0.07083  0.90065  0.85694  Biso   1.000  C
  C1139    1.0000 0.96991  0.03610  0.81850  Biso   1.000  C
  C1140    1.0000 0.06497  0.13650  0.81888  Biso   1.000  C
  H1187    1.0000 0.78741  0.90416  0.80666  Biso   1.000  H
  H1188    1.0000 0.83384  0.97635  0.80687  Biso   1.000  H
  C1141    1.0000 0.85835  0.93097  0.79386  Biso   1.000  C
  H1189    1.0000 0.84194  0.97878  0.83227  Biso   1.000  H
  H1190    1.0000 0.78932  0.90846  0.83146  Biso   1.000  H
  C1142    1.0000 0.85903  0.92268  0.84427  Biso   1.000  C
  H1191    1.0000 0.97776  0.24458  0.69157  Biso   1.000  H
  H1192    1.0000 0.90635  0.20298  0.68857  Biso   1.000  H
  C1143    1.0000 0.92866  0.28308  0.69659  Biso   1.000  C
  H1193    1.0000 0.90354  0.10871  0.69746  Biso   1.000  H
  H1194    1.0000 0.97587  0.14890  0.69956  Biso   1.000  H
  C1144    1.0000 0.93124  0.09327  0.71487  Biso   1.000  C
  C1145    1.0000 0.93976  0.27190  0.75353  Biso   1.000  C
  C1146    1.0000 0.99855  0.31298  0.76110  Biso   1.000  C
  C1147    1.0000 0.11063  0.36777  0.76011  Biso   1.000  C
  H1195    1.0000 0.20046  0.24168  0.75316  Biso   1.000  H
  H1196    1.0000 0.16423  0.17749  0.74596  Biso   1.000  H
  C1148    1.0000 0.24506  0.23251  0.73884  Biso   1.000  C
  C1149    1.0000 0.07295  0.47580  0.71049  Biso   1.000  C
  H1197    1.0000 0.07154  0.44267  0.72957  Biso   1.000  H
  H1198    1.0000 0.04355  0.38807  0.71926  Biso   1.000  H
  H1199    1.0000 0.03423  0.85185  0.78057  Biso   1.000  H
  H1200    1.0000 0.06793  0.91665  0.77336  Biso   1.000  H
  C1150    1.0000 0.13023  0.88956  0.77987  Biso   1.000  C
  H1201    1.0000 0.10342  0.88965  0.85747  Biso   1.000  H
  H1202    1.0000 0.03063  0.86247  0.85717  Biso   1.000  H
  C1151    1.0000 0.07712  0.94655  0.86941  Biso   1.000  C
  C1152    1.0000 0.95266  0.08522  0.81872  Biso   1.000  C
  C1153    1.0000 0.00757  0.14366  0.81873  Biso   1.000  C
  C1154    1.0000 0.10458  0.16864  0.80649  Biso   1.000  C
  C1155    1.0000 0.10196  0.16574  0.83183  Biso   1.000  C
  H1203    1.0000 0.86104  0.89307  0.79417  Biso   1.000  H
  H1204    1.0000 0.90085  0.96596  0.79327  Biso   1.000  H
  C1156    1.0000 0.82334  0.92966  0.78081  Biso   1.000  C
  H1205    1.0000 0.90392  0.95094  0.84466  Biso   1.000  H
  H1206    1.0000 0.85194  0.88039  0.84377  Biso   1.000  H
  C1157    1.0000 0.82983  0.92919  0.85694  Biso   1.000  C
  H1207    1.0000 0.96135  0.31378  0.70217  Biso   1.000  H
  H1208    1.0000 0.88854  0.27069  0.70067  Biso   1.000  H
  C1158    1.0000 0.93203  0.31228  0.68285  Biso   1.000  C
  H1209    1.0000 0.89455  0.08368  0.72007  Biso   1.000  H
  H1210    1.0000 0.96765  0.11568  0.72047  Biso   1.000  H
  C1159    1.0000 0.92676  0.03100  0.71031  Biso   1.000  C
  C1160    1.0000 0.90156  0.21099  0.76116  Biso   1.000  C
  C1161    1.0000 0.90342  0.30797  0.75144  Biso   1.000  C
  C1162    1.0000 0.00135  0.33478  0.77381  Biso   1.000  C
  C1163    1.0000 0.11085  0.38807  0.77277  Biso   1.000  C
  H1211    1.0000 0.14774  0.37961  0.75566  Biso   1.000  H
  H1212    1.0000 0.23586  0.21070  0.73067  Biso   1.000  H
  H1213    1.0000 0.26564  0.21758  0.74456  Biso   1.000  H
  H1214    1.0000 0.27176  0.27658  0.73736  Biso   1.000  H
  H1215    1.0000 0.10423  0.51819  0.71237  Biso   1.000  H
  H1216    1.0000 0.03225  0.47187  0.71087  Biso   1.000  H
  H1217    1.0000 0.07986  0.46490  0.70187  Biso   1.000  H
  H1218    1.0000 0.16604  0.93045  0.78107  Biso   1.000  H
  H1219    1.0000 0.13224  0.87356  0.77147  Biso   1.000  H
  H1220    1.0000 0.12984  0.86219  0.78656  Biso   1.000  H
  H1221    1.0000 0.11754  0.98379  0.86917  Biso   1.000  H
  H1222    1.0000 0.07233  0.92488  0.87746  Biso   1.000  H
  H1223    1.0000 0.04514  0.95777  0.86877  Biso   1.000  H
  C1164    1.0000 0.89591  0.08494  0.81879  Biso   1.000  C
  C1165    1.0000 0.00642  0.19826  0.81886  Biso   1.000  C
  H1224    1.0000 0.11674  0.21258  0.80666  Biso   1.000  H
  H1225    1.0000 0.14255  0.16621  0.80687  Biso   1.000  H
  C1166    1.0000 0.07263  0.14169  0.79386  Biso   1.000  C
  H1226    1.0000 0.13685  0.15807  0.83227  Biso   1.000  H
  H1227    1.0000 0.11917  0.21070  0.83146  Biso   1.000  H
  C1167    1.0000 0.06365  0.14099  0.84427  Biso   1.000  C
  H1228    1.0000 0.81765  0.96578  0.78057  Biso   1.000  H
  H1229    1.0000 0.84874  0.93209  0.77336  Biso   1.000  H
  C1168    1.0000 0.75932  0.86977  0.77987  Biso   1.000  C
  H1230    1.0000 0.78625  0.89658  0.85747  Biso   1.000  H
  H1231    1.0000 0.83185  0.96938  0.85717  Biso   1.000  H
  C1169    1.0000 0.86942  0.92287  0.86941  Biso   1.000  C
  H1232    1.0000 0.93354  0.35209  0.68397  Biso   1.000  H
  H1233    1.0000 0.97044  0.32047  0.67857  Biso   1.000  H
  C1170    1.0000 0.87715  0.27050  0.67419  Biso   1.000  C
  C1171    1.0000 0.87325  0.98767  0.70085  Biso   1.000  C
  H1234    1.0000 0.96603  0.04138  0.70606  Biso   1.000  H
  H1235    1.0000 0.92326  0.00681  0.71807  Biso   1.000  H
  H1236    1.0000 0.89245  0.22128  0.76976  Biso   1.000  H
  H1237    1.0000 0.86194  0.18619  0.75666  Biso   1.000  H
  C1172    1.0000 0.93132  0.17108  0.76297  Biso   1.000  C
  H1238    1.0000 0.86494  0.28060  0.74677  Biso   1.000  H
  H1239    1.0000 0.89203  0.31640  0.75997  Biso   1.000  H
  C1173    1.0000 0.93665  0.36819  0.74415  Biso   1.000  C
  H1240    1.0000 0.96466  0.32388  0.77836  Biso   1.000  H
  C1174    1.0000 0.05853  0.37249  0.77963  Biso   1.000  C
  H1241    1.0000 0.14926  0.41399  0.77677  Biso   1.000  H
  C1175    1.0000 0.89464  0.14001  0.81889  Biso   1.000  C
  H1242    1.0000 0.85855  0.04700  0.81876  Biso   1.000  H
  C1176    1.0000 0.94967  0.19779  0.81900  Biso   1.000  C
  H1243    1.0000 0.04387  0.23620  0.81886  Biso   1.000  H
  H1244    1.0000 0.03205  0.13898  0.79417  Biso   1.000  H
  H1245    1.0000 0.06516  0.09921  0.79327  Biso   1.000  H
  C1177    1.0000 0.10634  0.17669  0.78081  Biso   1.000  C
  H1246    1.0000 0.04703  0.09608  0.84466  Biso   1.000  H
  H1247    1.0000 0.02847  0.14810  0.84377  Biso   1.000  H
  C1178    1.0000 0.09936  0.17019  0.85694  Biso   1.000  C
  H1248    1.0000 0.76444  0.83398  0.78107  Biso   1.000  H
  H1249    1.0000 0.74133  0.86776  0.77147  Biso   1.000  H
  H1250    1.0000 0.73234  0.87019  0.78656  Biso   1.000  H
  H1251    1.0000 0.86622  0.88245  0.86917  Biso   1.000  H
  H1252    1.0000 0.85252  0.92764  0.87746  Biso   1.000  H
  H1253    1.0000 0.91265  0.95487  0.86877  Biso   1.000  H
  H1254    1.0000 0.87665  0.23190  0.67266  Biso   1.000  H
  H1255    1.0000 0.88096  0.29108  0.66597  Biso   1.000  H
  H1256    1.0000 0.83894  0.26208  0.67847  Biso   1.000  H
  H1257    1.0000 0.83364  0.97368  0.70506  Biso   1.000  H
  H1258    1.0000 0.87742  0.95216  0.69856  Biso   1.000  H
  H1259    1.0000 0.87543  0.01027  0.69307  Biso   1.000  H
  H1260    1.0000 0.97227  0.19681  0.76687  Biso   1.000  H
  H1261    1.0000 0.93775  0.15840  0.75437  Biso   1.000  H
  C1179    1.0000 0.89534  0.11297  0.77128  Biso   1.000  C
  H1262    1.0000 0.94475  0.36000  0.73527  Biso   1.000  H
  H1263    1.0000 0.97664  0.39509  0.74837  Biso   1.000  H
  C1180    1.0000 0.89935  0.40169  0.74365  Biso   1.000  C
  C1181    1.0000 0.06264  0.39537  0.79337  Biso   1.000  C
  H1264    1.0000 0.85626  0.13861  0.81886  Biso   1.000  H
  C1182    1.0000 0.94584  0.25506  0.81977  Biso   1.000  C
  H1265    1.0000 0.14817  0.18240  0.78057  Biso   1.000  H
  H1266    1.0000 0.08334  0.15129  0.77336  Biso   1.000  H
  C1183    1.0000 0.11046  0.24069  0.77987  Biso   1.000  C
  H1267    1.0000 0.11034  0.21379  0.85747  Biso   1.000  H
  H1268    1.0000 0.13753  0.16818  0.85717  Biso   1.000  H
  C1184    1.0000 0.05347  0.13061  0.86941  Biso   1.000  C
  H1269    1.0000 0.85242  0.09018  0.76817  Biso   1.000  H
  H1270    1.0000 0.91346  0.08639  0.77007  Biso   1.000  H
  C1185    1.0000 0.89507  0.12490  0.78432  Biso   1.000  C
  H1271    1.0000 0.89113  0.41030  0.75247  Biso   1.000  H
  H1272    1.0000 0.85945  0.37530  0.73937  Biso   1.000  H
  C1186    1.0000 0.93852  0.46747  0.73553  Biso   1.000  C
  N47      1.0000 0.01625  0.38704  0.79996  Biso   1.000  N
  N48      1.0000 0.99338  0.30807  0.82158  Biso   1.000  N
  H1273    1.0000 0.06954  0.23560  0.78107  Biso   1.000  H
  H1274    1.0000 0.12644  0.25871  0.77147  Biso   1.000  H
  H1275    1.0000 0.13786  0.26769  0.78656  Biso   1.000  H
  H1276    1.0000 0.01625  0.13379  0.86917  Biso   1.000  H
  H1277    1.0000 0.07517  0.14750  0.87746  Biso   1.000  H
  H1278    1.0000 0.04223  0.08737  0.86877  Biso   1.000  H
  H1279    1.0000 0.93735  0.14731  0.78746  Biso   1.000  H
  H1280    1.0000 0.87215  0.08620  0.78896  Biso   1.000  H
  H1281    1.0000 0.87563  0.14988  0.78567  Biso   1.000  H
  H1282    1.0000 0.97634  0.49498  0.74017  Biso   1.000  H
  H1283    1.0000 0.91343  0.48698  0.73467  Biso   1.000  H
  H1284    1.0000 0.94896  0.45910  0.72697  Biso   1.000  H
  C1187    1.0000 0.02779  0.41287  0.81331  Biso   1.000  C
  C1188    1.0000 0.98296  0.36187  0.82261  Biso   1.000  C
  H1285    1.0000 0.07075  0.42489  0.81576  Biso   1.000  H
  C1189    1.0000 0.02183  0.47056  0.81329  Biso   1.000  C
  H1286    1.0000 0.94004  0.34840  0.81986  Biso   1.000  H
  C1190    1.0000 0.98996  0.38162  0.83682  Biso   1.000  C
  C1191    1.0000 0.96444  0.46639  0.81105  Biso   1.000  C
  C1192    1.0000 0.07144  0.52797  0.81511  Biso   1.000  C
  C1193    1.0000 0.94354  0.38789  0.84312  Biso   1.000  C
  C1194    1.0000 0.04112  0.39027  0.84409  Biso   1.000  C
  H1287    1.0000 0.92884  0.42737  0.81007  Biso   1.000  H
  C1195    1.0000 0.95963  0.51959  0.81026  Biso   1.000  C
  H1288    1.0000 0.11033  0.53218  0.81686  Biso   1.000  H
  C1196    1.0000 0.06584  0.58201  0.81444  Biso   1.000  C
  H1289    1.0000 0.90905  0.38227  0.83837  Biso   1.000  H
  C1197    1.0000 0.94705  0.40188  0.85625  Biso   1.000  C
  H1290    1.0000 0.07326  0.38728  0.84006  Biso   1.000  H
  C1198    1.0000 0.04483  0.40361  0.85750  Biso   1.000  C
  H1291    1.0000 0.92094  0.51571  0.80847  Biso   1.000  H
  C1199    1.0000 0.00843  0.57569  0.81195  Biso   1.000  C
  H1292    1.0000 0.10065  0.62131  0.81567  Biso   1.000  H
  C1200    1.0000 0.99655  0.40889  0.86335  Biso   1.000  C
  H1293    1.0000 0.91565  0.40651  0.86026  Biso   1.000  H
  H1294    1.0000 0.07883  0.40880  0.86247  Biso   1.000  H
  H1295    1.0000 0.00393  0.61078  0.81147  Biso   1.000  H
  H1296    1.0000 0.99846  0.41750  0.87227  Biso   1.000  H
  C1201    1.0000 0.46393  0.74382  0.79725  Biso   1.000  C
  C1202    1.0000 0.50352  0.73750  0.80973  Biso   1.000  C
  H1297    1.0000 0.46710  0.78420  0.79750  Biso   1.000  H
  H1298    1.0000 0.48080  0.73900  0.78920  Biso   1.000  H
  H1299    1.0000 0.42070  0.71182  0.79790  Biso   1.000  H
  C1203    1.0000 0.47431  0.74401  0.82240  Biso   1.000  C
  H1300    1.0000 0.54709  0.77011  0.80920  Biso   1.000  H
  H1301    1.0000 0.50149  0.69731  0.80950  Biso   1.000  H
  C1204    1.0000 0.49905  0.73044  0.83484  Biso   1.000  C
  H1302    1.0000 0.42941  0.71570  0.82200  Biso   1.000  H
  H1303    1.0000 0.48140  0.78630  0.82290  Biso   1.000  H
  C1205    1.0000 0.46983  0.73820  0.84778  Biso   1.000  C
  H1304    1.0000 0.49140  0.68791  0.83440  Biso   1.000  H
  H1305    1.0000 0.54400  0.75818  0.83520  Biso   1.000  H
  C1206    1.0000 0.39909  0.69624  0.84802  Biso   1.000  C
  C1207    1.0000 0.47695  0.80277  0.84794  Biso   1.000  C
  C1208    1.0000 0.50195  0.73072  0.86018  Biso   1.000  C
  C1209    1.0000 0.36343  0.63059  0.84817  Biso   1.000  C
  C1210    1.0000 0.36941  0.73282  0.84817  Biso   1.000  C
  C1211    1.0000 0.41853  0.79921  0.84795  Biso   1.000  C
  C1212    1.0000 0.53160  0.85849  0.84780  Biso   1.000  C
  H1306    1.0000 0.54591  0.76249  0.86000  Biso   1.000  H
  H1307    1.0000 0.49948  0.69029  0.85980  Biso   1.000  H
  C1213    1.0000 0.47497  0.73568  0.87281  Biso   1.000  C
  C1214    1.0000 0.29716  0.60088  0.84802  Biso   1.000  C
  C1215    1.0000 0.38069  0.58147  0.84795  Biso   1.000  C
  C1216    1.0000 0.30373  0.70283  0.84802  Biso   1.000  C
  C1217    1.0000 0.41824  0.85569  0.84787  Biso   1.000  C
  C1218    1.0000 0.53113  0.91478  0.84767  Biso   1.000  C
  H1308    1.0000 0.56950  0.85901  0.84780  Biso   1.000  H
  H1309    1.0000 0.47230  0.77362  0.87250  Biso   1.000  H
  H1310    1.0000 0.43247  0.70068  0.87340  Biso   1.000  H
  C1219    1.0000 0.50998  0.73699  0.88586  Biso   1.000  C
  C1220    1.0000 0.26838  0.53019  0.84778  Biso   1.000  C
  C1221    1.0000 0.26716  0.63658  0.84817  Biso   1.000  C
  C1222    1.0000 0.32578  0.52303  0.84794  Biso   1.000  C
  C1223    1.0000 0.43743  0.58175  0.84787  Biso   1.000  C
  C1224    1.0000 0.26179  0.73161  0.84778  Biso   1.000  C
  C1225    1.0000 0.47331  0.91202  0.84777  Biso   1.000  C
  H1311    1.0000 0.38029  0.85508  0.84790  Biso   1.000  H
  C1226    1.0000 0.58835  0.97588  0.84689  Biso   1.000  C
  H1312    1.0000 0.51569  0.70091  0.88610  Biso   1.000  H
  H1313    1.0000 0.48460  0.73460  0.89330  Biso   1.000  H
  C1227    1.0000 0.57403  0.79692  0.88679  Biso   1.000  C
  C1228    1.0000 0.23139  0.50095  0.83484  Biso   1.000  C
  C1229    1.0000 0.22876  0.49805  0.86018  Biso   1.000  C
  C1230    1.0000 0.20079  0.61932  0.84795  Biso   1.000  C
  C1231    1.0000 0.32692  0.46843  0.84780  Biso   1.000  C
  C1232    1.0000 0.43870  0.52668  0.84777  Biso   1.000  C
  H1314    1.0000 0.47480  0.61969  0.84790  Biso   1.000  H
  C1233    1.0000 0.19723  0.67420  0.84794  Biso   1.000  C
  C1234    1.0000 0.26925  0.77124  0.86018  Biso   1.000  C
  C1235    1.0000 0.26956  0.76862  0.83484  Biso   1.000  C
  H1315    1.0000 0.47190  0.94898  0.84780  Biso   1.000  H
  N49      1.0000 0.64137  0.98136  0.84509  Biso   1.000  N
  H1316    1.0000 0.56891  0.83271  0.88560  Biso   1.000  H
  H1317    1.0000 0.59199  0.79889  0.89520  Biso   1.000  H
  H1318    1.0000 0.60101  0.79650  0.88010  Biso   1.000  H
  C1236    1.0000 0.26970  0.52570  0.82240  Biso   1.000  C
  H1319    1.0000 0.19649  0.50862  0.83440  Biso   1.000  H
  H1320    1.0000 0.21418  0.45599  0.83520  Biso   1.000  H
  H1321    1.0000 0.21660  0.45411  0.86000  Biso   1.000  H
  H1322    1.0000 0.19080  0.50048  0.85980  Biso   1.000  H
  C1237    1.0000 0.26072  0.52500  0.87281  Biso   1.000  C
  C1238    1.0000 0.14433  0.56257  0.84787  Biso   1.000  C
  C1239    1.0000 0.38368  0.46890  0.84767  Biso   1.000  C
  H1323    1.0000 0.28947  0.43049  0.84780  Biso   1.000  H
  H1324    1.0000 0.47709  0.52808  0.84780  Biso   1.000  H
  C1240    1.0000 0.14148  0.67308  0.84780  Biso   1.000  C
  H1325    1.0000 0.23749  0.78340  0.86000  Biso   1.000  H
  H1326    1.0000 0.30970  0.80918  0.85980  Biso   1.000  H
  C1241    1.0000 0.26429  0.73928  0.87281  Biso   1.000  C
  H1327    1.0000 0.31209  0.80352  0.83440  Biso   1.000  H
  H1328    1.0000 0.24180  0.78579  0.83520  Biso   1.000  H
  C1242    1.0000 0.25599  0.73030  0.82240  Biso   1.000  C
  C1243    1.0000 0.69520  0.04559  0.84406  Biso   1.000  C
  C1244    1.0000 0.23399  0.49650  0.80973  Biso   1.000  C
  H1329    1.0000 0.28632  0.57061  0.82200  Biso   1.000  H
  H1330    1.0000 0.30488  0.51859  0.82290  Biso   1.000  H
  H1331    1.0000 0.30129  0.52771  0.87250  Biso   1.000  H
  H1332    1.0000 0.26818  0.56748  0.87340  Biso   1.000  H
  C1245    1.0000 0.22701  0.49000  0.88586  Biso   1.000  C
  C1246    1.0000 0.08799  0.56130  0.84777  Biso   1.000  C
  H1333    1.0000 0.14488  0.52518  0.84790  Biso   1.000  H
  C1247    1.0000 0.38750  0.41163  0.84689  Biso   1.000  C
  C1248    1.0000 0.08519  0.61632  0.84767  Biso   1.000  C
  H1334    1.0000 0.14099  0.71051  0.84780  Biso   1.000  H
  H1335    1.0000 0.22642  0.69872  0.87250  Biso   1.000  H
  H1336    1.0000 0.29928  0.73179  0.87340  Biso   1.000  H
  C1249    1.0000 0.26301  0.77301  0.88586  Biso   1.000  C
  H1337    1.0000 0.28427  0.71369  0.82200  Biso   1.000  H
  H1338    1.0000 0.21372  0.69511  0.82290  Biso   1.000  H
  C1250    1.0000 0.26250  0.76600  0.80973  Biso   1.000  C
  C1251    1.0000 0.74616  0.05172  0.85335  Biso   1.000  C
  H1339    1.0000 0.68172  0.07502  0.84680  Biso   1.000  H
  C1252    1.0000 0.71496  0.05837  0.82985  Biso   1.000  C
  C1253    1.0000 0.27987  0.53608  0.79725  Biso   1.000  C
  H1340    1.0000 0.22300  0.45290  0.80920  Biso   1.000  H
  H1341    1.0000 0.19581  0.49851  0.80950  Biso   1.000  H
  H1342    1.0000 0.18518  0.48429  0.88610  Biso   1.000  H
  H1343    1.0000 0.25000  0.51540  0.89330  Biso   1.000  H
  C1254    1.0000 0.22288  0.42599  0.88679  Biso   1.000  C
  H1344    1.0000 0.05099  0.52289  0.84780  Biso   1.000  H
  N50      1.0000 0.33997  0.35862  0.84509  Biso   1.000  N
  C1255    1.0000 0.02411  0.61249  0.84689  Biso   1.000  C
  H1345    1.0000 0.29909  0.81479  0.88610  Biso   1.000  H
  H1346    1.0000 0.26539  0.74999  0.89330  Biso   1.000  H
  C1256    1.0000 0.20309  0.77708  0.88679  Biso   1.000  C
  H1347    1.0000 0.22991  0.77699  0.80920  Biso   1.000  H
  H1348    1.0000 0.30272  0.80422  0.80950  Biso   1.000  H
  C1257    1.0000 0.25620  0.72010  0.79725  Biso   1.000  C
  N51      1.0000 0.72035  0.03745  0.86671  Biso   1.000  N
  H1349    1.0000 0.75823  0.02084  0.85090  Biso   1.000  H
  C1258    1.0000 0.80385  0.11540  0.85337  Biso   1.000  C
  C1259    1.0000 0.72360  0.01584  0.82257  Biso   1.000  C
  C1260    1.0000 0.72118  0.11100  0.82354  Biso   1.000  C
  H1350    1.0000 0.31710  0.53290  0.79750  Biso   1.000  H
  H1351    1.0000 0.25818  0.51919  0.78920  Biso   1.000  H
  H1352    1.0000 0.29112  0.57932  0.79790  Biso   1.000  H
  H1353    1.0000 0.26380  0.43109  0.88560  Biso   1.000  H
  H1354    1.0000 0.20691  0.40798  0.89520  Biso   1.000  H
  H1355    1.0000 0.19549  0.39900  0.88010  Biso   1.000  H
  C1261    1.0000 0.35038  0.30482  0.84406  Biso   1.000  C
  N52      1.0000 0.01863  0.66002  0.84509  Biso   1.000  N
  H1356    1.0000 0.16729  0.73619  0.88560  Biso   1.000  H
  H1357    1.0000 0.20108  0.79308  0.89520  Biso   1.000  H
  H1358    1.0000 0.20351  0.80450  0.88010  Biso   1.000  H
  H1359    1.0000 0.21580  0.68290  0.79750  Biso   1.000  H
  H1360    1.0000 0.26102  0.74181  0.78920  Biso   1.000  H
  H1361    1.0000 0.28821  0.70892  0.79790  Biso   1.000  H
  C1262    1.0000 0.72872  0.99941  0.87330  Biso   1.000  C
  C1263    1.0000 0.86132  0.12321  0.85156  Biso   1.000  C
  C1264    1.0000 0.79972  0.16864  0.85562  Biso   1.000  C
  H1362    1.0000 0.72062  0.98070  0.82660  Biso   1.000  H
  C1265    1.0000 0.73690  0.02543  0.80917  Biso   1.000  C
  H1363    1.0000 0.71562  0.13992  0.82830  Biso   1.000  H
  C1266    1.0000 0.73520  0.12153  0.81041  Biso   1.000  C
  C1267    1.0000 0.30556  0.25382  0.85335  Biso   1.000  C
  H1364    1.0000 0.39330  0.31829  0.84680  Biso   1.000  H
  C1268    1.0000 0.34339  0.28507  0.82985  Biso   1.000  C
  C1269    1.0000 0.95441  0.64959  0.84406  Biso   1.000  C
  C1270    1.0000 0.70582  0.98061  0.88704  Biso   1.000  C
  H1365    1.0000 0.86550  0.08854  0.84980  Biso   1.000  H
  C1271    1.0000 0.91532  0.18282  0.85223  Biso   1.000  C
  H1366    1.0000 0.76073  0.16523  0.85660  Biso   1.000  H
  C1272    1.0000 0.85289  0.22661  0.85640  Biso   1.000  C
  H1367    1.0000 0.74210  0.99661  0.80420  Biso   1.000  H
  C1273    1.0000 0.74224  0.07905  0.80331  Biso   1.000  C
  H1368    1.0000 0.73982  0.15751  0.80640  Biso   1.000  H
  N53      1.0000 0.31709  0.27965  0.86671  Biso   1.000  N
  H1369    1.0000 0.26259  0.24179  0.85090  Biso   1.000  H
  C1274    1.0000 0.31152  0.19613  0.85337  Biso   1.000  C
  C1275    1.0000 0.29222  0.27642  0.82257  Biso   1.000  C
  C1276    1.0000 0.38981  0.27880  0.82354  Biso   1.000  C
  C1277    1.0000 0.94828  0.69446  0.85335  Biso   1.000  C
  H1370    1.0000 0.92498  0.60669  0.84680  Biso   1.000  H
  C1278    1.0000 0.94167  0.65661  0.82985  Biso   1.000  C
  C1279    1.0000 0.72137  0.94388  0.89389  Biso   1.000  C
  C1280    1.0000 0.66809  0.00012  0.89285  Biso   1.000  C
  H1371    1.0000 0.95460  0.18731  0.85100  Biso   1.000  H
  C1281    1.0000 0.90901  0.23391  0.85472  Biso   1.000  C
  H1372    1.0000 0.84903  0.26142  0.85820  Biso   1.000  H
  H1373    1.0000 0.75081  0.08574  0.79440  Biso   1.000  H
  C1282    1.0000 0.27071  0.27132  0.87330  Biso   1.000  C
  C1283    1.0000 0.26191  0.13872  0.85156  Biso   1.000  C
  C1284    1.0000 0.36891  0.20029  0.85562  Biso   1.000  C
  H1374    1.0000 0.26009  0.27941  0.82660  Biso   1.000  H
  C1285    1.0000 0.28851  0.26308  0.80917  Biso   1.000  C
  H1375    1.0000 0.42430  0.28442  0.82830  Biso   1.000  H
  C1286    1.0000 0.38630  0.26481  0.81041  Biso   1.000  C
  N54      1.0000 0.96256  0.68290  0.86671  Biso   1.000  N
  H1376    1.0000 0.97920  0.73741  0.85090  Biso   1.000  H
  C1287    1.0000 0.88463  0.68847  0.85337  Biso   1.000  C
  C1288    1.0000 0.98420  0.70779  0.82257  Biso   1.000  C
  C1289    1.0000 0.88901  0.61019  0.82354  Biso   1.000  C
  H1377    1.0000 0.74730  0.93139  0.88990  Biso   1.000  H
  C1290    1.0000 0.70109  0.92381  0.90655  Biso   1.000  C
  C1291    1.0000 0.64631  0.98112  0.90557  Biso   1.000  C
  H1378    1.0000 0.65722  0.02594  0.88830  Biso   1.000  H
  H1379    1.0000 0.94410  0.27354  0.85520  Biso   1.000  H
  C1292    1.0000 0.27481  0.29420  0.88704  Biso   1.000  C
  H1380    1.0000 0.22301  0.13451  0.84980  Biso   1.000  H
  C1293    1.0000 0.26750  0.08468  0.85223  Biso   1.000  C
  H1381    1.0000 0.40450  0.23931  0.85660  Biso   1.000  H
  C1294    1.0000 0.37371  0.14710  0.85640  Biso   1.000  C
  H1382    1.0000 0.25451  0.25789  0.80420  Biso   1.000  H
  C1295    1.0000 0.33680  0.25780  0.80331  Biso   1.000  C
  H1383    1.0000 0.41769  0.26018  0.80640  Biso   1.000  H
  C1296    1.0000 0.00060  0.72931  0.87330  Biso   1.000  C
  C1297    1.0000 0.87679  0.73811  0.85156  Biso   1.000  C
  C1298    1.0000 0.83140  0.63111  0.85562  Biso   1.000  C
  H1384    1.0000 0.01930  0.73989  0.82660  Biso   1.000  H
  C1299    1.0000 0.97459  0.71149  0.80917  Biso   1.000  C
  H1385    1.0000 0.86010  0.57571  0.82830  Biso   1.000  H
  C1300    1.0000 0.87849  0.61370  0.81041  Biso   1.000  C
  C1301    1.0000 0.66220  0.94280  0.91240  Biso   1.000  C
  H1386    1.0000 0.71290  0.89850  0.91100  Biso   1.000  H
  C1302    1.0000 0.60520  0.99881  0.91314  Biso   1.000  C
  C1303    1.0000 0.33200  0.33191  0.89285  Biso   1.000  C
  C1304    1.0000 0.22249  0.27862  0.89389  Biso   1.000  C
  H1387    1.0000 0.23270  0.04538  0.85100  Biso   1.000  H
  C1305    1.0000 0.32492  0.09100  0.85472  Biso   1.000  C
  H1388    1.0000 0.41240  0.15098  0.85820  Biso   1.000  H
  H1389    1.0000 0.33489  0.24919  0.79440  Biso   1.000  H
  C1306    1.0000 0.01941  0.72520  0.88704  Biso   1.000  C
  H1390    1.0000 0.91151  0.77699  0.84980  Biso   1.000  H
  C1307    1.0000 0.81718  0.73250  0.85223  Biso   1.000  C
  H1391    1.0000 0.83479  0.59550  0.85660  Biso   1.000  H
  C1308    1.0000 0.77340  0.62629  0.85640  Biso   1.000  C
  H1392    1.0000 0.00338  0.74550  0.80420  Biso   1.000  H
  C1309    1.0000 0.92099  0.66320  0.80331  Biso   1.000  C
  H1393    1.0000 0.84249  0.58231  0.80640  Biso   1.000  H
  C1310    1.0000 0.63100  0.93008  0.92560  Biso   1.000  C
  C1311    1.0000 0.54430  0.97611  0.90550  Biso   1.000  C
  C1312    1.0000 0.59721  0.96241  0.92602  Biso   1.000  C
  C1313    1.0000 0.64133  0.07123  0.91523  Biso   1.000  C
  H1394    1.0000 0.36869  0.34281  0.88830  Biso   1.000  H
  C1314    1.0000 0.33480  0.35371  0.90557  Biso   1.000  C
  H1395    1.0000 0.18409  0.25270  0.88990  Biso   1.000  H
  C1315    1.0000 0.22272  0.29892  0.90655  Biso   1.000  C
  H1396    1.0000 0.32941  0.05591  0.85520  Biso   1.000  H
  C1316    1.0000 0.05609  0.77750  0.89389  Biso   1.000  C
  C1317    1.0000 0.99989  0.66802  0.89285  Biso   1.000  C
  H1397    1.0000 0.81270  0.76731  0.85100  Biso   1.000  H
  C1318    1.0000 0.76611  0.67509  0.85472  Biso   1.000  C
  H1398    1.0000 0.73861  0.58760  0.85820  Biso   1.000  H
  H1399    1.0000 0.91433  0.66512  0.79440  Biso   1.000  H
  C1319    1.0000 0.63400  0.89831  0.93657  Biso   1.000  C
  H1400    1.0000 0.55459  0.99548  0.89690  Biso   1.000  H
  H1401    1.0000 0.51952  0.99090  0.91000  Biso   1.000  H
  C1320    1.0000 0.50442  0.90640  0.90370  Biso   1.000  C
  C1321    1.0000 0.56350  0.95941  0.93720  Biso   1.000  C
  H1402    1.0000 0.61389  0.08232  0.91990  Biso   1.000  H
  H1403    1.0000 0.64973  0.09102  0.90670  Biso   1.000  H
  C1322    1.0000 0.70150  0.09823  0.92252  Biso   1.000  C
  C1323    1.0000 0.28061  0.33780  0.91240  Biso   1.000  C
  C1324    1.0000 0.39359  0.39479  0.91314  Biso   1.000  C
  H1404    1.0000 0.18560  0.28708  0.91100  Biso   1.000  H
  H1405    1.0000 0.06861  0.81592  0.88990  Biso   1.000  H
  C1325    1.0000 0.07622  0.77732  0.90655  Biso   1.000  C
  C1326    1.0000 0.01891  0.66522  0.90557  Biso   1.000  C
  H1406    1.0000 0.97412  0.63130  0.88830  Biso   1.000  H
  H1407    1.0000 0.72651  0.67060  0.85520  Biso   1.000  H
  C1327    1.0000 0.66881  0.86298  0.93858  Biso   1.000  C
  C1328    1.0000 0.59868  0.89428  0.94795  Biso   1.000  C
  H1408    1.0000 0.53008  0.89120  0.89980  Biso   1.000  H
  H1409    1.0000 0.49171  0.88731  0.91230  Biso   1.000  H
  C1329    1.0000 0.44629  0.88432  0.89538  Biso   1.000  C
  C1330    1.0000 0.52410  0.98758  0.94061  Biso   1.000  C
  C1331    1.0000 0.56418  0.92479  0.94819  Biso   1.000  C
  H1410    1.0000 0.69330  0.08190  0.93140  Biso   1.000  H
  H1411    1.0000 0.72842  0.08513  0.91830  Biso   1.000  H
  C1332    1.0000 0.73499  0.16902  0.92302  Biso   1.000  C
  C1333    1.0000 0.29909  0.36901  0.92560  Biso   1.000  C
  C1334    1.0000 0.43178  0.45570  0.90550  Biso   1.000  C
  C1335    1.0000 0.36521  0.40279  0.92602  Biso   1.000  C
  C1336    1.0000 0.42992  0.35872  0.91523  Biso   1.000  C
  C1337    1.0000 0.05719  0.71940  0.91240  Biso   1.000  C
  H1412    1.0000 0.10150  0.81442  0.91100  Biso   1.000  H
  C1338    1.0000 0.00122  0.60640  0.91314  Biso   1.000  C
  C1339    1.0000 0.65082  0.83940  0.95257  Biso   1.000  C
  C1340    1.0000 0.64781  0.80502  0.92967  Biso   1.000  C
  C1341    1.0000 0.74112  0.90841  0.93804  Biso   1.000  C
  C1342    1.0000 0.61052  0.85662  0.95769  Biso   1.000  C
  H1413    1.0000 0.42351  0.90439  0.89850  Biso   1.000  H
  H1414    1.0000 0.41971  0.83959  0.89660  Biso   1.000  H
  C1343    1.0000 0.45821  0.89648  0.88235  Biso   1.000  C
  C1344    1.0000 0.50178  0.96919  0.95327  Biso   1.000  C
  C1345    1.0000 0.50809  0.02800  0.93391  Biso   1.000  C
  C1346    1.0000 0.52389  0.92849  0.95926  Biso   1.000  C
  H1415    1.0000 0.74360  0.18581  0.91420  Biso   1.000  H
  H1416    1.0000 0.70861  0.18254  0.92730  Biso   1.000  H
  C1347    1.0000 0.80082  0.19564  0.93114  Biso   1.000  C
  C1348    1.0000 0.26429  0.36601  0.93657  Biso   1.000  C
  H1417    1.0000 0.44090  0.44541  0.89690  Biso   1.000  H
  H1418    1.0000 0.47141  0.48050  0.91000  Biso   1.000  H
  C1349    1.0000 0.40202  0.49561  0.90370  Biso   1.000  C
  C1350    1.0000 0.39589  0.43652  0.93720  Biso   1.000  C
  H1419    1.0000 0.46841  0.38609  0.91990  Biso   1.000  H
  H1420    1.0000 0.44131  0.35029  0.90670  Biso   1.000  H
  C1351    1.0000 0.39670  0.29850  0.92252  Biso   1.000  C
  C1352    1.0000 0.06991  0.70091  0.92560  Biso   1.000  C
  C1353    1.0000 0.02388  0.56818  0.90550  Biso   1.000  C
  C1354    1.0000 0.03762  0.63480  0.92602  Biso   1.000  C
  C1355    1.0000 0.92881  0.57010  0.91523  Biso   1.000  C
  C1356    1.0000 0.67060  0.80352  0.95937  Biso   1.000  C
  H1421    1.0000 0.66748  0.78181  0.93280  Biso   1.000  H
  H1422    1.0000 0.66288  0.81929  0.92080  Biso   1.000  H
  C1357    1.0000 0.57802  0.76122  0.92913  Biso   1.000  C
  H1423    1.0000 0.75201  0.92371  0.92910  Biso   1.000  H
  H1424    1.0000 0.76141  0.88432  0.93990  Biso   1.000  H
  C1358    1.0000 0.76709  0.96222  0.94680  Biso   1.000  C
  C1359    1.0000 0.58939  0.83688  0.97057  Biso   1.000  C
  H1425    1.0000 0.48060  0.87660  0.87920  Biso   1.000  H
  H1426    1.0000 0.41949  0.88072  0.87770  Biso   1.000  H
  H1427    1.0000 0.48321  0.94088  0.88100  Biso   1.000  H
  C1360    1.0000 0.46310  0.98851  0.95922  Biso   1.000  C
  C1361    1.0000 0.47081  0.04714  0.93984  Biso   1.000  C
  H1428    1.0000 0.52303  0.04152  0.92550  Biso   1.000  H
  C1362    1.0000 0.56360  0.96058  0.97157  Biso   1.000  C
  C1363    1.0000 0.46722  0.86490  0.96286  Biso   1.000  C
  H1429    1.0000 0.82833  0.18535  0.92650  Biso   1.000  H
  H1430    1.0000 0.82032  0.24023  0.93200  Biso   1.000  H
  H1431    1.0000 0.79243  0.17683  0.93970  Biso   1.000  H
  C1364    1.0000 0.19421  0.33120  0.93858  Biso   1.000  C
  C1365    1.0000 0.29558  0.40129  0.94795  Biso   1.000  C
  H1432    1.0000 0.36107  0.46988  0.89980  Biso   1.000  H
  H1433    1.0000 0.39560  0.50829  0.91230  Biso   1.000  H
  C1366    1.0000 0.43800  0.55372  0.89538  Biso   1.000  C
  C1367    1.0000 0.46353  0.47592  0.94061  Biso   1.000  C
  C1368    1.0000 0.36062  0.43582  0.94819  Biso   1.000  C
  H1434    1.0000 0.38860  0.30669  0.93140  Biso   1.000  H
  H1435    1.0000 0.35671  0.27160  0.91830  Biso   1.000  H
  C1369    1.0000 0.43400  0.26500  0.92302  Biso   1.000  C
  C1370    1.0000 0.10167  0.73568  0.93657  Biso   1.000  C
  H1436    1.0000 0.00451  0.55910  0.89690  Biso   1.000  H
  H1437    1.0000 0.00911  0.52860  0.91000  Biso   1.000  H
  C1371    1.0000 0.09360  0.59798  0.90370  Biso   1.000  C
  C1372    1.0000 0.04059  0.60411  0.93720  Biso   1.000  C
  H1438    1.0000 0.91770  0.53159  0.91990  Biso   1.000  H
  H1439    1.0000 0.90900  0.55868  0.90670  Biso   1.000  H
  C1373    1.0000 0.90182  0.60332  0.92252  Biso   1.000  C
  H1440    1.0000 0.69749  0.79238  0.95540  Biso   1.000  H
  C1374    1.0000 0.65091  0.78480  0.97193  Biso   1.000  C
  H1441    1.0000 0.56232  0.75252  0.93810  Biso   1.000  H
  H1442    1.0000 0.55919  0.78289  0.92480  Biso   1.000  H
  C1375    1.0000 0.55552  0.69872  0.92210  Biso   1.000  C
  H1443    1.0000 0.74998  0.94510  0.95540  Biso   1.000  H
  H1444    1.0000 0.81143  0.97602  0.94730  Biso   1.000  H
  C1376    1.0000 0.76403  0.02052  0.94582  Biso   1.000  C
  C1377    1.0000 0.60969  0.80221  0.97728  Biso   1.000  C
  H1445    1.0000 0.56182  0.84731  0.97450  Biso   1.000  H
  H1446    1.0000 0.44832  0.97532  0.96770  Biso   1.000  H
  C1378    1.0000 0.44682  0.02702  0.95259  Biso   1.000  C
  H1447    1.0000 0.46101  0.07404  0.93540  Biso   1.000  H
  H1448    1.0000 0.57789  0.93349  0.97510  Biso   1.000  H
  H1449    1.0000 0.53631  0.96330  0.97810  Biso   1.000  H
  C1379    1.0000 0.61640  0.02112  0.97008  Biso   1.000  C
  H1450    1.0000 0.44201  0.87178  0.96920  Biso   1.000  H
  H1451    1.0000 0.48220  0.83968  0.96710  Biso   1.000  H
  C1380    1.0000 0.42658  0.82869  0.95180  Biso   1.000  C
  C1381    1.0000 0.18863  0.34922  0.95257  Biso   1.000  C
  C1382    1.0000 0.15722  0.35221  0.92967  Biso   1.000  C
  C1383    1.0000 0.16730  0.25892  0.93804  Biso   1.000  C
  C1384    1.0000 0.24609  0.38950  0.95769  Biso   1.000  C
  H1452    1.0000 0.48092  0.57651  0.89850  Biso   1.000  H
  H1453    1.0000 0.41989  0.58030  0.89660  Biso   1.000  H
  C1385    1.0000 0.43828  0.54179  0.88235  Biso   1.000  C
  C1386    1.0000 0.46741  0.49819  0.95327  Biso   1.000  C
  C1387    1.0000 0.51991  0.49192  0.93391  Biso   1.000  C
  C1388    1.0000 0.40458  0.47610  0.95926  Biso   1.000  C
  H1454    1.0000 0.44222  0.25639  0.91420  Biso   1.000  H
  H1455    1.0000 0.47390  0.29139  0.92730  Biso   1.000  H
  C1389    1.0000 0.39483  0.19922  0.93114  Biso   1.000  C
  C1390    1.0000 0.13702  0.80581  0.93858  Biso   1.000  C
  C1391    1.0000 0.10567  0.70438  0.94795  Biso   1.000  C
  H1456    1.0000 0.10880  0.63892  0.89980  Biso   1.000  H
  H1457    1.0000 0.11269  0.60439  0.91230  Biso   1.000  H
  C1392    1.0000 0.11569  0.56200  0.89538  Biso   1.000  C
  C1393    1.0000 0.01242  0.53651  0.94061  Biso   1.000  C
  C1394    1.0000 0.07521  0.63939  0.94819  Biso   1.000  C
  H1458    1.0000 0.91810  0.61141  0.93140  Biso   1.000  H
  H1459    1.0000 0.91489  0.64332  0.91830  Biso   1.000  H
  C1395    1.0000 0.83101  0.56598  0.92302  Biso   1.000  C
  C1396    1.0000 0.66970  0.74620  0.97961  Biso   1.000  C
  H1460    1.0000 0.57501  0.70789  0.91350  Biso   1.000  H
  H1461    1.0000 0.51082  0.67991  0.92070  Biso   1.000  H
  C1397    1.0000 0.56578  0.65408  0.92783  Biso   1.000  C
  C1398    1.0000 0.80910  0.06950  0.95618  Biso   1.000  C
  H1462    1.0000 0.77600  0.03783  0.93710  Biso   1.000  H
  H1463    1.0000 0.72140  0.01121  0.94740  Biso   1.000  H
  H1464    1.0000 0.59530  0.78962  0.98580  Biso   1.000  H
  C1399    1.0000 0.40992  0.05242  0.95853  Biso   1.000  C
  H1465    1.0000 0.64712  0.01911  0.96450  Biso   1.000  H
  H1466    1.0000 0.60403  0.04882  0.96600  Biso   1.000  H
  C1400    1.0000 0.64562  0.04690  0.98381  Biso   1.000  C
  H1467    1.0000 0.41699  0.85578  0.94660  Biso   1.000  H
  H1468    1.0000 0.44900  0.81470  0.94620  Biso   1.000  H
  C1401    1.0000 0.36430  0.77091  0.95636  Biso   1.000  C
  C1402    1.0000 0.13288  0.32938  0.95937  Biso   1.000  C
  H1469    1.0000 0.11431  0.33251  0.93280  Biso   1.000  H
  H1470    1.0000 0.15639  0.33710  0.92080  Biso   1.000  H
  C1403    1.0000 0.18321  0.42202  0.92913  Biso   1.000  C
  H1471    1.0000 0.17170  0.24802  0.92910  Biso   1.000  H
  H1472    1.0000 0.12291  0.23861  0.93990  Biso   1.000  H
  C1404    1.0000 0.19510  0.23291  0.94680  Biso   1.000  C
  C1405    1.0000 0.24748  0.41060  0.97057  Biso   1.000  C
  H1473    1.0000 0.39600  0.51938  0.87920  Biso   1.000  H
  H1474    1.0000 0.46119  0.58048  0.87770  Biso   1.000  H
  H1475    1.0000 0.45772  0.51681  0.88100  Biso   1.000  H
  C1406    1.0000 0.52541  0.53688  0.95922  Biso   1.000  C
  C1407    1.0000 0.57631  0.52921  0.93984  Biso   1.000  C
  H1476    1.0000 0.51848  0.47699  0.92550  Biso   1.000  H
  C1408    1.0000 0.39700  0.43638  0.97157  Biso   1.000  C
  C1409    1.0000 0.39768  0.53281  0.96286  Biso   1.000  C
  H1477    1.0000 0.35700  0.17171  0.92650  Biso   1.000  H
  H1478    1.0000 0.41992  0.17971  0.93200  Biso   1.000  H
  H1479    1.0000 0.38439  0.20759  0.93970  Biso   1.000  H
  C1410    1.0000 0.16059  0.81138  0.95257  Biso   1.000  C
  C1411    1.0000 0.19499  0.84282  0.92967  Biso   1.000  C
  C1412    1.0000 0.09160  0.83271  0.93804  Biso   1.000  C
  C1413    1.0000 0.14339  0.75388  0.95769  Biso   1.000  C
  H1480    1.0000 0.09561  0.51910  0.89850  Biso   1.000  H
  H1481    1.0000 0.16040  0.58011  0.89660  Biso   1.000  H
  C1414    1.0000 0.10349  0.56168  0.88235  Biso   1.000  C
  C1415    1.0000 0.03082  0.53262  0.95327  Biso   1.000  C
  C1416    1.0000 0.97201  0.48008  0.93391  Biso   1.000  C
  C1417    1.0000 0.07149  0.59541  0.95926  Biso   1.000  C
  H1482    1.0000 0.81419  0.55779  0.91420  Biso   1.000  H
  H1483    1.0000 0.81752  0.52612  0.92730  Biso   1.000  H
  C1418    1.0000 0.80438  0.60519  0.93114  Biso   1.000  C
  N55      1.0000 0.71018  0.73390  0.97584  Biso   1.000  N
  H1484    1.0000 0.54401  0.64150  0.93600  Biso   1.000  H
  H1485    1.0000 0.55092  0.61862  0.92210  Biso   1.000  H
  H1486    1.0000 0.60989  0.67149  0.92930  Biso   1.000  H
  H1487    1.0000 0.85150  0.08064  0.95430  Biso   1.000  H
  H1488    1.0000 0.80523  0.10632  0.95580  Biso   1.000  H
  H1489    1.0000 0.79823  0.05172  0.96480  Biso   1.000  H
  N56      1.0000 0.39460  0.04293  0.97073  Biso   1.000  N
  H1490    1.0000 0.68540  0.08522  0.98270  Biso   1.000  H
  H1491    1.0000 0.65382  0.01673  0.98810  Biso   1.000  H
  C1419    1.0000 0.60379  0.06000  0.99247  Biso   1.000  C
  H1492    1.0000 0.37468  0.74199  0.96060  Biso   1.000  H
  H1493    1.0000 0.34008  0.75018  0.94860  Biso   1.000  H
  C1420    1.0000 0.32102  0.78111  0.96582  Biso   1.000  C
  H1494    1.0000 0.09488  0.30248  0.95540  Biso   1.000  H
  C1421    1.0000 0.13390  0.34908  0.97193  Biso   1.000  C
  H1495    1.0000 0.19020  0.43769  0.93810  Biso   1.000  H
  H1496    1.0000 0.22367  0.44078  0.92480  Biso   1.000  H
  C1422    1.0000 0.14321  0.44452  0.92210  Biso   1.000  C
  H1497    1.0000 0.19509  0.24998  0.95540  Biso   1.000  H
  H1498    1.0000 0.16460  0.18860  0.94730  Biso   1.000  H
  C1423    1.0000 0.25649  0.23599  0.94582  Biso   1.000  C
  C1424    1.0000 0.19251  0.39030  0.97728  Biso   1.000  C
  H1499    1.0000 0.28551  0.43821  0.97450  Biso   1.000  H
  C1425    1.0000 0.58021  0.55321  0.95259  Biso   1.000  C
  H1500    1.0000 0.52699  0.55171  0.96770  Biso   1.000  H
  H1501    1.0000 0.61301  0.53899  0.93540  Biso   1.000  H
  H1502    1.0000 0.35559  0.42211  0.97510  Biso   1.000  H
  H1503    1.0000 0.42699  0.46370  0.97810  Biso   1.000  H
  C1426    1.0000 0.40469  0.38361  0.97008  Biso   1.000  C
  H1504    1.0000 0.42980  0.55798  0.96920  Biso   1.000  H
  H1505    1.0000 0.35748  0.51779  0.96710  Biso   1.000  H
  C1427    1.0000 0.40211  0.57342  0.95180  Biso   1.000  C
  C1428    1.0000 0.19652  0.86710  0.95937  Biso   1.000  C
  H1506    1.0000 0.21823  0.88572  0.93280  Biso   1.000  H
  H1507    1.0000 0.18072  0.84361  0.92080  Biso   1.000  H
  C1429    1.0000 0.23879  0.81681  0.92913  Biso   1.000  C
  H1508    1.0000 0.07631  0.82832  0.92910  Biso   1.000  H
  H1509    1.0000 0.11570  0.87711  0.93990  Biso   1.000  H
  C1430    1.0000 0.03779  0.80492  0.94680  Biso   1.000  C
  C1431    1.0000 0.16309  0.75252  0.97057  Biso   1.000  C
  H1510    1.0000 0.12340  0.60402  0.87920  Biso   1.000  H
  H1511    1.0000 0.11932  0.53880  0.87770  Biso   1.000  H
  H1512    1.0000 0.05912  0.54231  0.88100  Biso   1.000  H
  C1432    1.0000 0.01149  0.47461  0.95922  Biso   1.000  C
  C1433    1.0000 0.95290  0.42370  0.93984  Biso   1.000  C
  H1513    1.0000 0.95849  0.48148  0.92550  Biso   1.000  H
  C1434    1.0000 0.03938  0.60299  0.97157  Biso   1.000  C
  C1435    1.0000 0.13510  0.60229  0.96286  Biso   1.000  C
  H1514    1.0000 0.81469  0.64299  0.92650  Biso   1.000  H
  H1515    1.0000 0.75979  0.58011  0.93200  Biso   1.000  H
  H1516    1.0000 0.82321  0.61562  0.93970  Biso   1.000  H
  C1436    1.0000 0.72102  0.69212  0.98448  Biso   1.000  C
  C1437    1.0000 0.36450  0.07591  0.97616  Biso   1.000  C
  H1517    1.0000 0.56521  0.02192  0.99400  Biso   1.000  H
  H1518    1.0000 0.59539  0.08981  0.98820  Biso   1.000  H
  H1519    1.0000 0.62438  0.07680  0.00070  Biso   1.000  H
  H1520    1.0000 0.30700  0.80670  0.96160  Biso   1.000  H
  H1521    1.0000 0.28548  0.74139  0.96810  Biso   1.000  H
  H1522    1.0000 0.34362  0.80151  0.97360  Biso   1.000  H
  C1438    1.0000 0.07650  0.33032  0.97961  Biso   1.000  C
  H1523    1.0000 0.13289  0.42501  0.91350  Biso   1.000  H
  H1524    1.0000 0.16912  0.48920  0.92070  Biso   1.000  H
  C1439    1.0000 0.08828  0.43418  0.92783  Biso   1.000  C
  C1440    1.0000 0.26040  0.19089  0.95618  Biso   1.000  C
  H1525    1.0000 0.26181  0.22402  0.93710  Biso   1.000  H
  H1526    1.0000 0.28979  0.27862  0.94740  Biso   1.000  H
  H1527    1.0000 0.19429  0.40471  0.98580  Biso   1.000  H
  C1441    1.0000 0.64251  0.59012  0.95853  Biso   1.000  C
  H1528    1.0000 0.37200  0.35291  0.96450  Biso   1.000  H
  H1529    1.0000 0.44480  0.39600  0.96600  Biso   1.000  H
  C1442    1.0000 0.40131  0.35441  0.98381  Biso   1.000  C
  H1530    1.0000 0.43879  0.58301  0.94660  Biso   1.000  H
  H1531    1.0000 0.36570  0.55101  0.94620  Biso   1.000  H
  C1443    1.0000 0.40658  0.63569  0.95636  Biso   1.000  C
  H1532    1.0000 0.20761  0.90509  0.95540  Biso   1.000  H
  C1444    1.0000 0.21519  0.86612  0.97193  Biso   1.000  C
  H1533    1.0000 0.24748  0.80979  0.93810  Biso   1.000  H
  H1534    1.0000 0.21707  0.77629  0.92480  Biso   1.000  H
  C1445    1.0000 0.30130  0.85681  0.92210  Biso   1.000  C
  H1535    1.0000 0.05489  0.80492  0.95540  Biso   1.000  H
  H1536    1.0000 0.02397  0.83538  0.94730  Biso   1.000  H
  C1446    1.0000 0.97948  0.74349  0.94582  Biso   1.000  C
  C1447    1.0000 0.19779  0.80749  0.97728  Biso   1.000  C
  H1537    1.0000 0.15270  0.71448  0.97450  Biso   1.000  H
  H1538    1.0000 0.02472  0.47302  0.96770  Biso   1.000  H
  C1448    1.0000 0.97300  0.41982  0.95259  Biso   1.000  C
  H1539    1.0000 0.92601  0.38702  0.93540  Biso   1.000  H
  H1540    1.0000 0.06648  0.64440  0.97510  Biso   1.000  H
  H1541    1.0000 0.03670  0.57300  0.97810  Biso   1.000  H
  C1449    1.0000 0.97890  0.59532  0.97008  Biso   1.000  C
  H1542    1.0000 0.12821  0.57019  0.96920  Biso   1.000  H
  H1543    1.0000 0.16030  0.64248  0.96710  Biso   1.000  H
  C1450    1.0000 0.17131  0.59789  0.95180  Biso   1.000  C
  C1451    1.0000 0.71139  0.63551  0.97616  Biso   1.000  C
  H1544    1.0000 0.69021  0.67710  0.99160  Biso   1.000  H
  C1452    1.0000 0.78652  0.72791  0.99034  Biso   1.000  C
  C1453    1.0000 0.30790  0.02894  0.98448  Biso   1.000  C
  H1545    1.0000 0.34971  0.09173  0.96900  Biso   1.000  H
  C1454    1.0000 0.41460  0.13252  0.98453  Biso   1.000  C
  N57      1.0000 0.02371  0.28980  0.97584  Biso   1.000  N
  H1546    1.0000 0.09748  0.45599  0.93600  Biso   1.000  H
  H1547    1.0000 0.06771  0.44911  0.92210  Biso   1.000  H
  H1548    1.0000 0.06159  0.39011  0.92930  Biso   1.000  H
  H1549    1.0000 0.22911  0.14850  0.95430  Biso   1.000  H
  H1550    1.0000 0.30110  0.19482  0.95580  Biso   1.000  H
  H1551    1.0000 0.25349  0.20179  0.96480  Biso   1.000  H
  N58      1.0000 0.64834  0.60542  0.97073  Biso   1.000  N
  H1552    1.0000 0.39980  0.31460  0.98270  Biso   1.000  H
  H1553    1.0000 0.36290  0.34622  0.98810  Biso   1.000  H
  C1455    1.0000 0.45620  0.39619  0.99247  Biso   1.000  C
  H1554    1.0000 0.36731  0.62531  0.96060  Biso   1.000  H
  H1555    1.0000 0.41009  0.65988  0.94860  Biso   1.000  H
  C1456    1.0000 0.46009  0.67902  0.96582  Biso   1.000  C
  C1457    1.0000 0.25380  0.92348  0.97961  Biso   1.000  C
  H1556    1.0000 0.29210  0.86710  0.91350  Biso   1.000  H
  H1557    1.0000 0.32010  0.83089  0.92070  Biso   1.000  H
  C1458    1.0000 0.34588  0.91169  0.92783  Biso   1.000  C
  C1459    1.0000 0.93050  0.73961  0.95618  Biso   1.000  C
  H1558    1.0000 0.96221  0.73820  0.93710  Biso   1.000  H
  H1559    1.0000 0.98880  0.71018  0.94740  Biso   1.000  H
  H1560    1.0000 0.21040  0.80572  0.98580  Biso   1.000  H
  C1460    1.0000 0.94759  0.35750  0.95853  Biso   1.000  C
  H1561    1.0000 0.98091  0.62802  0.96450  Biso   1.000  H
  H1562    1.0000 0.95119  0.55522  0.96600  Biso   1.000  H
  C1461    1.0000 0.95311  0.59869  0.98381  Biso   1.000  C
  H1563    1.0000 0.14422  0.56121  0.94660  Biso   1.000  H
  H1564    1.0000 0.18530  0.63429  0.94620  Biso   1.000  H
  C1462    1.0000 0.22911  0.59340  0.95636  Biso   1.000  C
  H1565    1.0000 0.74200  0.65029  0.96900  Biso   1.000  H
  C1463    1.0000 0.71790  0.58540  0.98453  Biso   1.000  C
  C1464    1.0000 0.83871  0.75991  0.98275  Biso   1.000  C
  C1465    1.0000 0.79511  0.73081  0.00362  Biso   1.000  C
  N59      1.0000 0.26611  0.97630  0.97584  Biso   1.000  N
  H1566    1.0000 0.32293  0.01312  0.99160  Biso   1.000  H
  C1466    1.0000 0.27209  0.05860  0.99034  Biso   1.000  C
  C1467    1.0000 0.45271  0.12382  0.99326  Biso   1.000  C
  C1468    1.0000 0.42440  0.19021  0.98265  Biso   1.000  C
  C1469    1.0000 0.97110  0.27899  0.98448  Biso   1.000  C
  H1567    1.0000 0.45670  0.43479  0.99400  Biso   1.000  H
  H1568    1.0000 0.49441  0.40461  0.98820  Biso   1.000  H
  H1569    1.0000 0.45239  0.37561  0.00070  Biso   1.000  H
  H1570    1.0000 0.49970  0.69301  0.96160  Biso   1.000  H
  H1571    1.0000 0.45590  0.71448  0.96810  Biso   1.000  H
  H1572    1.0000 0.45791  0.65642  0.97360  Biso   1.000  H
  H1573    1.0000 0.35851  0.90252  0.93600  Biso   1.000  H
  H1574    1.0000 0.38140  0.93232  0.92210  Biso   1.000  H
  H1575    1.0000 0.32852  0.93840  0.92930  Biso   1.000  H
  H1576    1.0000 0.91941  0.77091  0.95430  Biso   1.000  H
  H1577    1.0000 0.89370  0.69890  0.95580  Biso   1.000  H
  H1578    1.0000 0.94828  0.74648  0.96480  Biso   1.000  H
  N60      1.0000 0.95709  0.35170  0.97073  Biso   1.000  N
  H1579    1.0000 0.91480  0.60018  0.98270  Biso   1.000  H
  H1580    1.0000 0.98330  0.63710  0.98810  Biso   1.000  H
  C1470    1.0000 0.94001  0.54380  0.99247  Biso   1.000  C
  H1581    1.0000 0.25800  0.63270  0.96060  Biso   1.000  H
  H1582    1.0000 0.24981  0.58989  0.94860  Biso   1.000  H
  C1471    1.0000 0.21891  0.53992  0.96582  Biso   1.000  C
  C1472    1.0000 0.67110  0.54731  0.99326  Biso   1.000  C
  C1473    1.0000 0.76581  0.57562  0.98265  Biso   1.000  C
  H1583    1.0000 0.83420  0.75982  0.97370  Biso   1.000  H
  C1474    1.0000 0.89752  0.79220  0.98806  Biso   1.000  C
  H1584    1.0000 0.76072  0.71041  0.00910  Biso   1.000  H
  C1475    1.0000 0.85451  0.76380  0.00897  Biso   1.000  C
  C1476    1.0000 0.24009  0.07881  0.98275  Biso   1.000  C
  C1477    1.0000 0.26919  0.06431  0.00362  Biso   1.000  C
  H1585    1.0000 0.44443  0.08302  0.99460  Biso   1.000  H
  C1478    1.0000 0.50079  0.16981  0.00000  Biso   1.000  C
  H1586    1.0000 0.39932  0.19751  0.97700  Biso   1.000  H
  C1479    1.0000 0.47670  0.24261  0.98991  Biso   1.000  C
  H1587    1.0000 0.98692  0.30982  0.99160  Biso   1.000  H
  C1480    1.0000 0.94139  0.21349  0.99034  Biso   1.000  C
  C1481    1.0000 0.92407  0.28858  0.97616  Biso   1.000  C
  H1588    1.0000 0.97809  0.54329  0.99400  Biso   1.000  H
  H1589    1.0000 0.91020  0.50558  0.98820  Biso   1.000  H
  H1590    1.0000 0.92319  0.54759  0.00070  Biso   1.000  H
  H1591    1.0000 0.19330  0.50029  0.96160  Biso   1.000  H
  H1592    1.0000 0.25859  0.54408  0.96810  Biso   1.000  H
  H1593    1.0000 0.19849  0.54212  0.97360  Biso   1.000  H
  H1594    1.0000 0.63862  0.55559  0.99460  Biso   1.000  H
  C1482    1.0000 0.66902  0.49922  0.00000  Biso   1.000  C
  H1595    1.0000 0.79820  0.60070  0.97700  Biso   1.000  H
  C1483    1.0000 0.76591  0.52331  0.98991  Biso   1.000  C
  H1596    1.0000 0.93220  0.81390  0.98270  Biso   1.000  H
  C1484    1.0000 0.90469  0.79229  0.00146  Biso   1.000  C
  H1597    1.0000 0.85909  0.76590  0.01800  Biso   1.000  H
  H1598    1.0000 0.24021  0.07441  0.97370  Biso   1.000  H
  C1485    1.0000 0.20782  0.10534  0.98806  Biso   1.000  C
  H1599    1.0000 0.28962  0.05032  0.00910  Biso   1.000  H
  C1486    1.0000 0.23621  0.09074  0.00897  Biso   1.000  C
  C1487    1.0000 0.50890  0.22703  0.99807  Biso   1.000  C
  H1600    1.0000 0.52630  0.16233  0.00550  Biso   1.000  H
  H1601    1.0000 0.48641  0.28393  0.98880  Biso   1.000  H
  C1488    1.0000 0.92122  0.16132  0.98275  Biso   1.000  C
  C1489    1.0000 0.93571  0.20488  0.00362  Biso   1.000  C
  H1602    1.0000 0.90829  0.25798  0.96900  Biso   1.000  H
  C1490    1.0000 0.86750  0.28208  0.98453  Biso   1.000  C
  C1491    1.0000 0.71813  0.49112  0.99807  Biso   1.000  C
  H1603    1.0000 0.63601  0.47372  0.00550  Biso   1.000  H
  H1604    1.0000 0.79747  0.51358  0.98880  Biso   1.000  H
  H1605    1.0000 0.94437  0.81208  0.00520  Biso   1.000  H
  H1606    1.0000 0.18610  0.11830  0.98270  Biso   1.000  H
  C1492    1.0000 0.20770  0.11241  0.00146  Biso   1.000  C
  H1607    1.0000 0.23413  0.09322  0.01800  Biso   1.000  H
  H1608    1.0000 0.54019  0.25932  0.00290  Biso   1.000  H
  H1609    1.0000 0.92561  0.16581  0.97370  Biso   1.000  H
  C1493    1.0000 0.89469  0.10251  0.98806  Biso   1.000  C
  H1610    1.0000 0.94972  0.23931  0.00910  Biso   1.000  H
  C1494    1.0000 0.90930  0.14551  0.00897  Biso   1.000  C
  C1495    1.0000 0.87621  0.32891  0.99326  Biso   1.000  C
  C1496    1.0000 0.80981  0.23422  0.98265  Biso   1.000  C
  H1611    1.0000 0.71909  0.45982  0.00290  Biso   1.000  H
  H1612    1.0000 0.18793  0.13234  0.00520  Biso   1.000  H
  H1613    1.0000 0.88171  0.06779  0.98270  Biso   1.000  H
  C1497    1.0000 0.88760  0.09530  0.00146  Biso   1.000  C
  H1614    1.0000 0.90681  0.14092  0.01800  Biso   1.000  H
  H1615    1.0000 0.91700  0.36138  0.99460  Biso   1.000  H
  C1498    1.0000 0.83022  0.33102  0.00000  Biso   1.000  C
  H1616    1.0000 0.80248  0.20179  0.97700  Biso   1.000  H
  C1499    1.0000 0.75742  0.23412  0.98991  Biso   1.000  C
  H1617    1.0000 0.86770  0.05558  0.00520  Biso   1.000  H
  C1500    1.0000 0.77300  0.28189  0.99807  Biso   1.000  C
  H1618    1.0000 0.83771  0.36400  0.00550  Biso   1.000  H
  H1619    1.0000 0.71608  0.20249  0.98880  Biso   1.000  H
  H1620    1.0000 0.74070  0.28091  0.00290  Biso   1.000  H
  C1501    1.0000 0.66319  0.74218  0.19669  Biso   1.000  C
  C1502    1.0000 0.71148  0.73689  0.19083  Biso   1.000  C
  C1503    1.0000 0.61371  0.73521  0.18959  Biso   1.000  C
  H1621    1.0000 0.66510  0.75079  0.20560  Biso   1.000  H
  C1504    1.0000 0.70777  0.72356  0.17743  Biso   1.000  C
  H1622    1.0000 0.74548  0.74209  0.19580  Biso   1.000  H
  C1505    1.0000 0.61020  0.72122  0.17646  Biso   1.000  C
  H1623    1.0000 0.58230  0.73979  0.19360  Biso   1.000  H
  C1506    1.0000 0.65662  0.71495  0.17015  Biso   1.000  C
  H1624    1.0000 0.73992  0.72061  0.17340  Biso   1.000  H
  H1625    1.0000 0.57571  0.71561  0.17170  Biso   1.000  H
  C1507    1.0000 0.64961  0.69516  0.15594  Biso   1.000  C
  N61      1.0000 0.66004  0.64140  0.15491  Biso   1.000  N
  C1508    1.0000 0.69443  0.74616  0.14665  Biso   1.000  C
  H1626    1.0000 0.60669  0.68169  0.15320  Biso   1.000  H
  C1509    1.0000 0.61249  0.58835  0.15311  Biso   1.000  C
  N62      1.0000 0.68290  0.72033  0.13329  Biso   1.000  N
  H1627    1.0000 0.73740  0.75818  0.14910  Biso   1.000  H
  C1510    1.0000 0.68847  0.80385  0.14663  Biso   1.000  C
  C1511    1.0000 0.61633  0.53112  0.15233  Biso   1.000  C
  C1512    1.0000 0.72930  0.72871  0.12670  Biso   1.000  C
  C1513    1.0000 0.73811  0.86130  0.14844  Biso   1.000  C
  C1514    1.0000 0.63108  0.79968  0.14438  Biso   1.000  C
  C1515    1.0000 0.67309  0.53159  0.15220  Biso   1.000  C
  C1516    1.0000 0.56131  0.47334  0.15223  Biso   1.000  C
  C1517    1.0000 0.72518  0.70578  0.11296  Biso   1.000  C
  H1628    1.0000 0.77700  0.86551  0.15020  Biso   1.000  H
  C1518    1.0000 0.73248  0.91529  0.14777  Biso   1.000  C
  H1629    1.0000 0.59551  0.76071  0.14340  Biso   1.000  H
  C1519    1.0000 0.62628  0.85288  0.14360  Biso   1.000  C
  C1520    1.0000 0.67421  0.47695  0.15206  Biso   1.000  C
  H1630    1.0000 0.71051  0.56949  0.15220  Biso   1.000  H
  C1521    1.0000 0.56256  0.41823  0.15213  Biso   1.000  C
  H1631    1.0000 0.52290  0.47189  0.15220  Biso   1.000  H
  C1522    1.0000 0.66801  0.66812  0.10715  Biso   1.000  C
  C1523    1.0000 0.77752  0.72141  0.10611  Biso   1.000  C
  H1632    1.0000 0.76729  0.95459  0.14900  Biso   1.000  H
  C1524    1.0000 0.67509  0.90902  0.14528  Biso   1.000  C
  H1633    1.0000 0.58759  0.84899  0.14180  Biso   1.000  H
  C1525    1.0000 0.61933  0.41856  0.15205  Biso   1.000  C
  C1526    1.0000 0.73163  0.46983  0.15222  Biso   1.000  C
  H1634    1.0000 0.52519  0.38028  0.15210  Biso   1.000  H
  H1635    1.0000 0.63132  0.65722  0.11170  Biso   1.000  H
  C1527    1.0000 0.66522  0.64631  0.09443  Biso   1.000  C
  H1636    1.0000 0.81590  0.74728  0.11010  Biso   1.000  H
  C1528    1.0000 0.77729  0.70110  0.09345  Biso   1.000  C
  H1637    1.0000 0.67060  0.94411  0.14480  Biso   1.000  H
  C1529    1.0000 0.63658  0.36943  0.15183  Biso   1.000  C
  C1530    1.0000 0.70283  0.39909  0.15198  Biso   1.000  C
  C1531    1.0000 0.77125  0.50198  0.13982  Biso   1.000  C
  C1532    1.0000 0.76862  0.49908  0.16516  Biso   1.000  C
  C1533    1.0000 0.71940  0.66222  0.08760  Biso   1.000  C
  C1534    1.0000 0.60640  0.60519  0.08686  Biso   1.000  C
  H1638    1.0000 0.81439  0.71289  0.08900  Biso   1.000  H
  C1535    1.0000 0.60090  0.30374  0.15198  Biso   1.000  C
  C1536    1.0000 0.73285  0.36344  0.15183  Biso   1.000  C
  H1639    1.0000 0.78341  0.54591  0.14000  Biso   1.000  H
  H1640    1.0000 0.80919  0.49950  0.14020  Biso   1.000  H
  C1537    1.0000 0.73927  0.47498  0.12719  Biso   1.000  C
  H1641    1.0000 0.80352  0.49140  0.16560  Biso   1.000  H
  H1642    1.0000 0.78581  0.54399  0.16480  Biso   1.000  H
  C1538    1.0000 0.73029  0.47428  0.17760  Biso   1.000  C
  C1539    1.0000 0.70092  0.63101  0.07440  Biso   1.000  C
  C1540    1.0000 0.56823  0.54432  0.09450  Biso   1.000  C
  C1541    1.0000 0.63478  0.59719  0.07398  Biso   1.000  C
  C1542    1.0000 0.57009  0.64131  0.08477  Biso   1.000  C
  C1543    1.0000 0.53018  0.26182  0.15222  Biso   1.000  C
  C1544    1.0000 0.63058  0.26715  0.15183  Biso   1.000  C
  C1545    1.0000 0.69626  0.29714  0.15198  Biso   1.000  C
  C1546    1.0000 0.79920  0.38066  0.15205  Biso   1.000  C
  H1643    1.0000 0.69872  0.47231  0.12750  Biso   1.000  H
  H1644    1.0000 0.73181  0.43250  0.12660  Biso   1.000  H
  C1547    1.0000 0.77298  0.50998  0.11414  Biso   1.000  C
  H1645    1.0000 0.71369  0.42941  0.17800  Biso   1.000  H
  H1646    1.0000 0.69511  0.48139  0.17710  Biso   1.000  H
  C1548    1.0000 0.76602  0.50352  0.19027  Biso   1.000  C
  C1549    1.0000 0.73572  0.63401  0.06343  Biso   1.000  C
  H1647    1.0000 0.55911  0.55461  0.10310  Biso   1.000  H
  H1648    1.0000 0.52860  0.51952  0.09000  Biso   1.000  H
  C1550    1.0000 0.59799  0.50441  0.09630  Biso   1.000  C
  C1551    1.0000 0.60412  0.56350  0.06280  Biso   1.000  C
  H1649    1.0000 0.53158  0.61389  0.08010  Biso   1.000  H
  H1650    1.0000 0.55867  0.64968  0.09330  Biso   1.000  H
  C1552    1.0000 0.60331  0.70152  0.07748  Biso   1.000  C
  C1553    1.0000 0.50094  0.26954  0.16516  Biso   1.000  C
  C1554    1.0000 0.52306  0.19725  0.15206  Biso   1.000  C
  C1555    1.0000 0.49804  0.26926  0.13982  Biso   1.000  C
  C1556    1.0000 0.58146  0.20076  0.15205  Biso   1.000  C
  C1557    1.0000 0.73820  0.26837  0.15222  Biso   1.000  C
  C1558    1.0000 0.80276  0.32578  0.15206  Biso   1.000  C
  C1559    1.0000 0.85568  0.43746  0.15213  Biso   1.000  C
  H1651    1.0000 0.81481  0.51569  0.11390  Biso   1.000  H
  H1652    1.0000 0.75001  0.48462  0.10670  Biso   1.000  H
  C1560    1.0000 0.77710  0.57398  0.11321  Biso   1.000  C
  H1653    1.0000 0.77698  0.54708  0.19080  Biso   1.000  H
  H1654    1.0000 0.80420  0.50151  0.19050  Biso   1.000  H
  C1561    1.0000 0.72011  0.46389  0.20275  Biso   1.000  C
  C1562    1.0000 0.80580  0.66882  0.06142  Biso   1.000  C
  C1563    1.0000 0.70441  0.59869  0.05205  Biso   1.000  C
  H1655    1.0000 0.63891  0.53010  0.10020  Biso   1.000  H
  H1656    1.0000 0.60439  0.49168  0.08770  Biso   1.000  H
  C1564    1.0000 0.56201  0.44630  0.10462  Biso   1.000  C
  C1565    1.0000 0.53649  0.52411  0.05939  Biso   1.000  C
  C1566    1.0000 0.63939  0.56420  0.05181  Biso   1.000  C
  H1657    1.0000 0.61139  0.69329  0.06860  Biso   1.000  H
  H1658    1.0000 0.64328  0.72838  0.08170  Biso   1.000  H
  C1567    1.0000 0.56601  0.73502  0.07698  Biso   1.000  C
  C1568    1.0000 0.52570  0.25602  0.17760  Biso   1.000  C
  H1659    1.0000 0.50861  0.31212  0.16560  Biso   1.000  H
  H1660    1.0000 0.45599  0.24179  0.16480  Biso   1.000  H
  C1569    1.0000 0.46839  0.14148  0.15220  Biso   1.000  C
  H1661    1.0000 0.45408  0.23749  0.14000  Biso   1.000  H
  H1662    1.0000 0.50051  0.30968  0.14020  Biso   1.000  H
  C1570    1.0000 0.52502  0.26430  0.12719  Biso   1.000  C
  C1571    1.0000 0.58177  0.14434  0.15213  Biso   1.000  C
  C1572    1.0000 0.73074  0.22874  0.13982  Biso   1.000  C
  C1573    1.0000 0.73043  0.23136  0.16516  Biso   1.000  C
  C1574    1.0000 0.85851  0.32690  0.15220  Biso   1.000  C
  C1575    1.0000 0.91203  0.43872  0.15223  Biso   1.000  C
  H1663    1.0000 0.85510  0.47479  0.15210  Biso   1.000  H
  H1664    1.0000 0.73618  0.56888  0.11440  Biso   1.000  H
  H1665    1.0000 0.79308  0.59199  0.10480  Biso   1.000  H
  H1666    1.0000 0.80450  0.60098  0.11990  Biso   1.000  H
  H1667    1.0000 0.68291  0.46712  0.20250  Biso   1.000  H
  H1668    1.0000 0.74181  0.48078  0.21080  Biso   1.000  H
  H1669    1.0000 0.70890  0.42071  0.20210  Biso   1.000  H
  C1576    1.0000 0.81138  0.65081  0.04743  Biso   1.000  C
  C1577    1.0000 0.84279  0.64781  0.07033  Biso   1.000  C
  C1578    1.0000 0.83271  0.74110  0.06196  Biso   1.000  C
  C1579    1.0000 0.75392  0.61052  0.04231  Biso   1.000  C
  H1670    1.0000 0.51909  0.42351  0.10150  Biso   1.000  H
  H1671    1.0000 0.58010  0.41968  0.10340  Biso   1.000  H
  C1580    1.0000 0.56171  0.45818  0.11765  Biso   1.000  C
  C1581    1.0000 0.53258  0.50179  0.04673  Biso   1.000  C
  C1582    1.0000 0.48011  0.50811  0.06609  Biso   1.000  C
  C1583    1.0000 0.59543  0.52392  0.04074  Biso   1.000  C
  H1672    1.0000 0.55777  0.74358  0.08580  Biso   1.000  H
  H1673    1.0000 0.52609  0.70859  0.07270  Biso   1.000  H
  C1584    1.0000 0.60518  0.80080  0.06886  Biso   1.000  C
  C1585    1.0000 0.49650  0.26252  0.19027  Biso   1.000  C
  H1674    1.0000 0.57058  0.28428  0.17800  Biso   1.000  H
  H1675    1.0000 0.51861  0.21372  0.17710  Biso   1.000  H
  C1586    1.0000 0.46886  0.08520  0.15233  Biso   1.000  C
  H1676    1.0000 0.43052  0.14102  0.15220  Biso   1.000  H
  H1677    1.0000 0.52771  0.22640  0.12750  Biso   1.000  H
  H1678    1.0000 0.56752  0.29930  0.12660  Biso   1.000  H
  C1587    1.0000 0.49000  0.26299  0.11414  Biso   1.000  C
  C1588    1.0000 0.52668  0.08796  0.15223  Biso   1.000  C
  H1679    1.0000 0.61969  0.14490  0.15210  Biso   1.000  H
  H1680    1.0000 0.76253  0.21662  0.14000  Biso   1.000  H
  H1681    1.0000 0.69029  0.19080  0.14020  Biso   1.000  H
  C1589    1.0000 0.73570  0.26070  0.12719  Biso   1.000  C
  H1682    1.0000 0.68792  0.19650  0.16560  Biso   1.000  H
  H1683    1.0000 0.75819  0.21419  0.16480  Biso   1.000  H
  C1590    1.0000 0.74400  0.26968  0.17760  Biso   1.000  C
  C1591    1.0000 0.91480  0.38365  0.15233  Biso   1.000  C
  H1684    1.0000 0.85902  0.28952  0.15220  Biso   1.000  H
  H1685    1.0000 0.94900  0.47709  0.15220  Biso   1.000  H
  C1592    1.0000 0.86711  0.67060  0.04063  Biso   1.000  C
  H1686    1.0000 0.88570  0.66751  0.06720  Biso   1.000  H
  H1687    1.0000 0.84359  0.66288  0.07920  Biso   1.000  H
  C1593    1.0000 0.81680  0.57801  0.07087  Biso   1.000  C
  H1688    1.0000 0.82831  0.75201  0.07090  Biso   1.000  H
  H1689    1.0000 0.87710  0.76141  0.06010  Biso   1.000  H
  C1594    1.0000 0.80491  0.76712  0.05320  Biso   1.000  C
  C1595    1.0000 0.75253  0.58942  0.02943  Biso   1.000  C
  H1690    1.0000 0.60399  0.48059  0.12080  Biso   1.000  H
  H1691    1.0000 0.53880  0.41949  0.12230  Biso   1.000  H
  H1692    1.0000 0.54230  0.48322  0.11900  Biso   1.000  H
  C1596    1.0000 0.47458  0.46310  0.04078  Biso   1.000  C
  C1597    1.0000 0.42370  0.47082  0.06016  Biso   1.000  C
  H1693    1.0000 0.48151  0.52298  0.07450  Biso   1.000  H
  C1598    1.0000 0.60299  0.56359  0.02843  Biso   1.000  C
  C1599    1.0000 0.60233  0.46721  0.03714  Biso   1.000  C
  H1694    1.0000 0.64301  0.82832  0.07350  Biso   1.000  H
  H1695    1.0000 0.58009  0.82031  0.06800  Biso   1.000  H
  H1696    1.0000 0.61560  0.79238  0.06030  Biso   1.000  H
  C1600    1.0000 0.53608  0.25621  0.20275  Biso   1.000  C
  H1697    1.0000 0.45292  0.22991  0.19080  Biso   1.000  H
  H1698    1.0000 0.49852  0.30271  0.19050  Biso   1.000  H
  C1601    1.0000 0.41167  0.02414  0.15311  Biso   1.000  C
  H1699    1.0000 0.48432  0.29911  0.11390  Biso   1.000  H
  H1700    1.0000 0.51541  0.26542  0.10670  Biso   1.000  H
  C1602    1.0000 0.42598  0.20310  0.11321  Biso   1.000  C
  H1701    1.0000 0.52809  0.05100  0.15220  Biso   1.000  H
  H1702    1.0000 0.77359  0.30131  0.12750  Biso   1.000  H
  H1703    1.0000 0.70070  0.26818  0.12660  Biso   1.000  H
  C1603    1.0000 0.73701  0.22701  0.11414  Biso   1.000  C
  H1704    1.0000 0.71571  0.28629  0.17800  Biso   1.000  H
  H1705    1.0000 0.78629  0.30491  0.17710  Biso   1.000  H
  C1604    1.0000 0.73749  0.23398  0.19027  Biso   1.000  C
  C1605    1.0000 0.97590  0.38754  0.15311  Biso   1.000  C
  H1706    1.0000 0.90511  0.69750  0.04460  Biso   1.000  H
  C1606    1.0000 0.86609  0.65090  0.02807  Biso   1.000  C
  H1707    1.0000 0.80979  0.56228  0.06190  Biso   1.000  H
  H1708    1.0000 0.77632  0.55920  0.07520  Biso   1.000  H
  C1607    1.0000 0.85680  0.55550  0.07790  Biso   1.000  C
  H1709    1.0000 0.80490  0.74999  0.04460  Biso   1.000  H
  H1710    1.0000 0.83539  0.81138  0.05270  Biso   1.000  H
  C1608    1.0000 0.74350  0.76398  0.05418  Biso   1.000  C
  C1609    1.0000 0.80747  0.60968  0.02272  Biso   1.000  C
  H1711    1.0000 0.71450  0.56182  0.02550  Biso   1.000  H
  C1610    1.0000 0.41980  0.44681  0.04741  Biso   1.000  C
  H1712    1.0000 0.47302  0.44831  0.03230  Biso   1.000  H
  H1713    1.0000 0.38698  0.46099  0.06460  Biso   1.000  H
  H1714    1.0000 0.64443  0.57791  0.02490  Biso   1.000  H
  H1715    1.0000 0.57302  0.53632  0.02190  Biso   1.000  H
  C1611    1.0000 0.59532  0.61642  0.02992  Biso   1.000  C
  H1716    1.0000 0.57019  0.44200  0.03080  Biso   1.000  H
  H1717    1.0000 0.64251  0.48219  0.03290  Biso   1.000  H
  C1612    1.0000 0.59790  0.42660  0.04820  Biso   1.000  C
  H1718    1.0000 0.53289  0.21578  0.20250  Biso   1.000  H
  H1719    1.0000 0.51918  0.26098  0.21080  Biso   1.000  H
  H1720    1.0000 0.57931  0.28821  0.20210  Biso   1.000  H
  N63      1.0000 0.35862  0.01862  0.15491  Biso   1.000  N
  H1721    1.0000 0.43110  0.16731  0.11440  Biso   1.000  H
  H1722    1.0000 0.40800  0.20109  0.10480  Biso   1.000  H
  H1723    1.0000 0.39901  0.20352  0.11990  Biso   1.000  H
  H1724    1.0000 0.70090  0.18518  0.11390  Biso   1.000  H
  H1725    1.0000 0.73459  0.24998  0.10670  Biso   1.000  H
  C1613    1.0000 0.79690  0.22289  0.11321  Biso   1.000  C
  H1726    1.0000 0.77008  0.22299  0.19080  Biso   1.000  H
  H1727    1.0000 0.69729  0.19580  0.19050  Biso   1.000  H
  C1614    1.0000 0.74379  0.27988  0.20275  Biso   1.000  C
  N64      1.0000 0.98139  0.34000  0.15491  Biso   1.000  N
  C1615    1.0000 0.92351  0.66971  0.02039  Biso   1.000  C
  H1728    1.0000 0.86712  0.57501  0.08650  Biso   1.000  H
  H1729    1.0000 0.83090  0.51082  0.07930  Biso   1.000  H
  C1616    1.0000 0.91171  0.56579  0.07217  Biso   1.000  C
  C1617    1.0000 0.73959  0.80909  0.04382  Biso   1.000  C
  H1730    1.0000 0.73821  0.77601  0.06290  Biso   1.000  H
  H1731    1.0000 0.71022  0.72141  0.05260  Biso   1.000  H
  H1732    1.0000 0.80572  0.59532  0.01420  Biso   1.000  H
  C1618    1.0000 0.35750  0.40990  0.04147  Biso   1.000  C
  H1733    1.0000 0.62801  0.64711  0.03550  Biso   1.000  H
  H1734    1.0000 0.55521  0.60402  0.03400  Biso   1.000  H
  C1619    1.0000 0.59870  0.64561  0.01619  Biso   1.000  C
  H1735    1.0000 0.56122  0.41701  0.05340  Biso   1.000  H
  H1736    1.0000 0.63431  0.44901  0.05380  Biso   1.000  H
  C1620    1.0000 0.59341  0.36428  0.04364  Biso   1.000  C
  C1621    1.0000 0.30478  0.95438  0.15594  Biso   1.000  C
  H1737    1.0000 0.83270  0.26378  0.11440  Biso   1.000  H
  H1738    1.0000 0.79891  0.20689  0.10480  Biso   1.000  H
  H1739    1.0000 0.79651  0.19552  0.11990  Biso   1.000  H
  H1740    1.0000 0.78421  0.31712  0.20250  Biso   1.000  H
  H1741    1.0000 0.73899  0.25822  0.21080  Biso   1.000  H
  H1742    1.0000 0.71180  0.29111  0.20210  Biso   1.000  H
  C1622    1.0000 0.04557  0.35039  0.15594  Biso   1.000  C
  N65      1.0000 0.97628  0.71018  0.02416  Biso   1.000  N
  H1743    1.0000 0.90251  0.54399  0.06400  Biso   1.000  H
  H1744    1.0000 0.93231  0.55092  0.07790  Biso   1.000  H
  H1745    1.0000 0.93843  0.60991  0.07070  Biso   1.000  H
  H1746    1.0000 0.77090  0.85152  0.04570  Biso   1.000  H
  H1747    1.0000 0.69891  0.80520  0.04420  Biso   1.000  H
  H1748    1.0000 0.74650  0.79818  0.03520  Biso   1.000  H
  N66      1.0000 0.35168  0.39460  0.02927  Biso   1.000  N
  H1749    1.0000 0.60019  0.68538  0.01730  Biso   1.000  H
  H1750    1.0000 0.63711  0.65380  0.01190  Biso   1.000  H
  C1623    1.0000 0.54379  0.60378  0.00753  Biso   1.000  C
  H1751    1.0000 0.63270  0.37472  0.03940  Biso   1.000  H
  H1752    1.0000 0.58990  0.34009  0.05140  Biso   1.000  H
  C1624    1.0000 0.53992  0.32100  0.03418  Biso   1.000  C
  C1625    1.0000 0.25383  0.94825  0.14665  Biso   1.000  C
  H1753    1.0000 0.31827  0.92495  0.15320  Biso   1.000  H
  C1626    1.0000 0.28505  0.94166  0.17015  Biso   1.000  C
  C1627    1.0000 0.05173  0.30557  0.14665  Biso   1.000  C
  H1754    1.0000 0.07501  0.39329  0.15320  Biso   1.000  H
  C1628    1.0000 0.05831  0.34337  0.17015  Biso   1.000  C
  C1629    1.0000 0.02889  0.72099  0.01552  Biso   1.000  C
  C1630    1.0000 0.28862  0.36452  0.02384  Biso   1.000  C
  H1755    1.0000 0.54329  0.56519  0.00600  Biso   1.000  H
  H1756    1.0000 0.50561  0.59541  0.01180  Biso   1.000  H
  H1757    1.0000 0.54762  0.62442  0.99930  Biso   1.000  H
  H1758    1.0000 0.50031  0.30702  0.03840  Biso   1.000  H
  H1759    1.0000 0.54408  0.28549  0.03190  Biso   1.000  H
  H1760    1.0000 0.54210  0.34360  0.02640  Biso   1.000  H
  N67      1.0000 0.27964  0.96252  0.13329  Biso   1.000  N
  H1761    1.0000 0.24178  0.97918  0.14910  Biso   1.000  H
  C1631    1.0000 0.19616  0.88462  0.14663  Biso   1.000  C
  C1632    1.0000 0.27641  0.98419  0.17743  Biso   1.000  C
  C1633    1.0000 0.27881  0.88897  0.17646  Biso   1.000  C
  N68      1.0000 0.03745  0.31712  0.13329  Biso   1.000  N
  H1762    1.0000 0.02081  0.26261  0.14910  Biso   1.000  H
  C1634    1.0000 0.11536  0.31151  0.14663  Biso   1.000  C
  C1635    1.0000 0.01581  0.29223  0.17743  Biso   1.000  C
  C1636    1.0000 0.11098  0.38978  0.17646  Biso   1.000  C
  H1763    1.0000 0.01309  0.69020  0.00840  Biso   1.000  H
  C1637    1.0000 0.05860  0.78649  0.00966  Biso   1.000  C
  C1638    1.0000 0.07592  0.71139  0.02384  Biso   1.000  C
  C1639    1.0000 0.27899  0.30790  0.01552  Biso   1.000  C
  H1764    1.0000 0.25799  0.34969  0.03100  Biso   1.000  H
  C1640    1.0000 0.28209  0.41458  0.01547  Biso   1.000  C
  C1641    1.0000 0.27129  0.00061  0.12670  Biso   1.000  C
  C1642    1.0000 0.13867  0.87676  0.14844  Biso   1.000  C
  C1643    1.0000 0.20029  0.83138  0.14438  Biso   1.000  C
  H1765    1.0000 0.27939  0.01932  0.17340  Biso   1.000  H
  C1644    1.0000 0.26311  0.97459  0.19083  Biso   1.000  C
  H1766    1.0000 0.28437  0.86006  0.17170  Biso   1.000  H
  C1645    1.0000 0.26481  0.87849  0.18959  Biso   1.000  C
  C1646    1.0000 0.99941  0.27071  0.12670  Biso   1.000  C
  C1647    1.0000 0.12322  0.26191  0.14844  Biso   1.000  C
  C1648    1.0000 0.16861  0.36891  0.14438  Biso   1.000  C
  H1767    1.0000 0.98069  0.26009  0.17340  Biso   1.000  H
  C1649    1.0000 0.02540  0.28849  0.19083  Biso   1.000  C
  H1768    1.0000 0.13991  0.42431  0.17170  Biso   1.000  H
  C1650    1.0000 0.12152  0.38632  0.18959  Biso   1.000  C
  C1651    1.0000 0.06428  0.79510  0.99638  Biso   1.000  C
  C1652    1.0000 0.07879  0.83870  0.01725  Biso   1.000  C
  N69      1.0000 0.04292  0.64833  0.02927  Biso   1.000  N
  H1769    1.0000 0.09170  0.74199  0.03100  Biso   1.000  H
  C1653    1.0000 0.13249  0.71790  0.01547  Biso   1.000  C
  N70      1.0000 0.28983  0.26612  0.02416  Biso   1.000  N
  H1770    1.0000 0.30980  0.32292  0.00840  Biso   1.000  H
  C1654    1.0000 0.21349  0.27211  0.00966  Biso   1.000  C
  C1655    1.0000 0.32891  0.45271  0.00674  Biso   1.000  C
  C1656    1.0000 0.23420  0.42440  0.01735  Biso   1.000  C
  C1657    1.0000 0.29419  0.01942  0.11296  Biso   1.000  C
  H1771    1.0000 0.13451  0.91148  0.15020  Biso   1.000  H
  C1658    1.0000 0.08467  0.81716  0.14777  Biso   1.000  C
  H1772    1.0000 0.23928  0.83480  0.14340  Biso   1.000  H
  C1659    1.0000 0.14710  0.77336  0.14360  Biso   1.000  C
  H1773    1.0000 0.25791  0.00342  0.19580  Biso   1.000  H
  C1660    1.0000 0.25777  0.92098  0.19669  Biso   1.000  C
  H1774    1.0000 0.26017  0.84247  0.19360  Biso   1.000  H
  C1661    1.0000 0.98058  0.27478  0.11296  Biso   1.000  C
  H1775    1.0000 0.08848  0.22299  0.15020  Biso   1.000  H
  C1662    1.0000 0.18281  0.26748  0.14777  Biso   1.000  C
  H1776    1.0000 0.16523  0.40452  0.14340  Biso   1.000  H
  C1663    1.0000 0.22659  0.37369  0.14360  Biso   1.000  C
  H1777    1.0000 0.99663  0.25452  0.19580  Biso   1.000  H
  C1664    1.0000 0.07903  0.33682  0.19669  Biso   1.000  C
  H1778    1.0000 0.15752  0.41771  0.19360  Biso   1.000  H
  H1779    1.0000 0.05029  0.76071  0.99090  Biso   1.000  H
  C1665    1.0000 0.09071  0.85452  0.99103  Biso   1.000  C
  H1780    1.0000 0.07440  0.83421  0.02630  Biso   1.000  H
  C1666    1.0000 0.10532  0.89751  0.01194  Biso   1.000  C
  C1667    1.0000 0.05240  0.64248  0.04147  Biso   1.000  C
  C1668    1.0000 0.12381  0.67111  0.00674  Biso   1.000  C
  C1669    1.0000 0.19020  0.76581  0.01735  Biso   1.000  C
  C1670    1.0000 0.33031  0.25382  0.02039  Biso   1.000  C
  C1671    1.0000 0.16130  0.24011  0.01725  Biso   1.000  C
  C1672    1.0000 0.20491  0.26921  0.99638  Biso   1.000  C
  H1781    1.0000 0.36137  0.44438  0.00540  Biso   1.000  H
  C1673    1.0000 0.33100  0.50081  0.00000  Biso   1.000  C
  H1782    1.0000 0.20179  0.39928  0.02300  Biso   1.000  H
  C1674    1.0000 0.23410  0.47671  0.01009  Biso   1.000  C
  C1675    1.0000 0.27862  0.05610  0.10611  Biso   1.000  C
  C1676    1.0000 0.33190  0.99986  0.10715  Biso   1.000  C
  H1783    1.0000 0.04539  0.81267  0.14900  Biso   1.000  H
  C1677    1.0000 0.09097  0.76607  0.14528  Biso   1.000  C
  H1784    1.0000 0.15096  0.73855  0.14180  Biso   1.000  H
  H1785    1.0000 0.24920  0.91429  0.20560  Biso   1.000  H
  C1678    1.0000 0.94392  0.22252  0.10611  Biso   1.000  C
  C1679    1.0000 0.00012  0.33200  0.10715  Biso   1.000  C
  H1786    1.0000 0.18731  0.23272  0.14900  Biso   1.000  H
  C1680    1.0000 0.23388  0.32489  0.14528  Biso   1.000  C
  H1787    1.0000 0.26138  0.41238  0.14180  Biso   1.000  H
  H1788    1.0000 0.08568  0.33490  0.20560  Biso   1.000  H
  H1789    1.0000 0.09321  0.85910  0.98200  Biso   1.000  H
  C1681    1.0000 0.11241  0.90472  0.99854  Biso   1.000  C
  H1790    1.0000 0.11828  0.93218  0.01730  Biso   1.000  H
  C1682    1.0000 0.02701  0.58020  0.04741  Biso   1.000  C
  H1791    1.0000 0.08299  0.63859  0.00540  Biso   1.000  H
  C1683    1.0000 0.16979  0.66901  0.00000  Biso   1.000  C
  H1792    1.0000 0.19751  0.79818  0.02300  Biso   1.000  H
  C1684    1.0000 0.24259  0.76590  0.01009  Biso   1.000  C
  C1685    1.0000 0.34910  0.21522  0.02807  Biso   1.000  C
  H1793    1.0000 0.16581  0.24020  0.02630  Biso   1.000  H
  C1686    1.0000 0.10247  0.20778  0.01194  Biso   1.000  C
  H1794    1.0000 0.23929  0.28961  0.99090  Biso   1.000  H
  C1687    1.0000 0.14548  0.23618  0.99103  Biso   1.000  C
  C1688    1.0000 0.28188  0.50890  0.00193  Biso   1.000  C
  H1795    1.0000 0.36400  0.52631  0.99450  Biso   1.000  H
  H1796    1.0000 0.20252  0.48640  0.01120  Biso   1.000  H
  H1797    1.0000 0.25269  0.06859  0.11010  Biso   1.000  H
  C1689    1.0000 0.29893  0.07622  0.09345  Biso   1.000  C
  C1690    1.0000 0.35370  0.01890  0.09443  Biso   1.000  C
  H1798    1.0000 0.34279  0.97408  0.11170  Biso   1.000  H
  H1799    1.0000 0.05591  0.72648  0.14480  Biso   1.000  H
  H1800    1.0000 0.93140  0.18411  0.11010  Biso   1.000  H
  C1691    1.0000 0.92379  0.22271  0.09345  Biso   1.000  C
  C1692    1.0000 0.98110  0.33481  0.09443  Biso   1.000  C
  H1801    1.0000 0.02587  0.36868  0.11170  Biso   1.000  H
  H1802    1.0000 0.27348  0.32938  0.14480  Biso   1.000  H
  H1803    1.0000 0.13229  0.94439  0.99480  Biso   1.000  H
  C1693    1.0000 0.98852  0.52542  0.04078  Biso   1.000  C
  C1694    1.0000 0.04712  0.57632  0.06016  Biso   1.000  C
  H1804    1.0000 0.16230  0.63602  0.99450  Biso   1.000  H
  C1695    1.0000 0.22699  0.71809  0.00193  Biso   1.000  C
  H1805    1.0000 0.28391  0.79748  0.01120  Biso   1.000  H
  C1696    1.0000 0.32941  0.19650  0.04063  Biso   1.000  C
  C1697    1.0000 0.39032  0.19781  0.02272  Biso   1.000  C
  H1806    1.0000 0.06782  0.18612  0.01730  Biso   1.000  H
  C1698    1.0000 0.09529  0.20769  0.99854  Biso   1.000  C
  H1807    1.0000 0.14093  0.23412  0.98200  Biso   1.000  H
  H1808    1.0000 0.28092  0.54020  0.99710  Biso   1.000  H
  C1699    1.0000 0.33781  0.05722  0.08760  Biso   1.000  C
  H1809    1.0000 0.28709  0.10148  0.08900  Biso   1.000  H
  C1700    1.0000 0.39481  0.00122  0.08686  Biso   1.000  C
  C1701    1.0000 0.94280  0.28058  0.08760  Biso   1.000  C
  H1810    1.0000 0.89851  0.18560  0.08900  Biso   1.000  H
  C1702    1.0000 0.99879  0.39362  0.08686  Biso   1.000  C
  C1703    1.0000 0.96919  0.46740  0.04673  Biso   1.000  C
  H1811    1.0000 0.97529  0.52701  0.03230  Biso   1.000  H
  C1704    1.0000 0.02798  0.51990  0.06609  Biso   1.000  C
  H1812    1.0000 0.07400  0.61300  0.06460  Biso   1.000  H
  H1813    1.0000 0.25931  0.71911  0.99710  Biso   1.000  H
  C1705    1.0000 0.34919  0.16062  0.04743  Biso   1.000  C
  H1814    1.0000 0.30250  0.20759  0.04460  Biso   1.000  H
  C1706    1.0000 0.41060  0.16310  0.02943  Biso   1.000  C
  H1815    1.0000 0.40471  0.21040  0.01420  Biso   1.000  H
  H1816    1.0000 0.05562  0.18790  0.99480  Biso   1.000  H
  C1707    1.0000 0.36899  0.06990  0.07440  Biso   1.000  C
  C1708    1.0000 0.45571  0.02391  0.09450  Biso   1.000  C
  C1709    1.0000 0.40280  0.03762  0.07398  Biso   1.000  C
  C1710    1.0000 0.35868  0.92879  0.08477  Biso   1.000  C
  C1711    1.0000 0.93011  0.29911  0.07440  Biso   1.000  C
  C1712    1.0000 0.97611  0.43180  0.09450  Biso   1.000  C
  C1713    1.0000 0.96239  0.36522  0.07398  Biso   1.000  C
  C1714    1.0000 0.07118  0.42988  0.08477  Biso   1.000  C
  C1715    1.0000 0.98759  0.46352  0.05939  Biso   1.000  C
  C1716    1.0000 0.92852  0.40461  0.04074  Biso   1.000  C
  H1817    1.0000 0.04150  0.51849  0.07450  Biso   1.000  H
  C1717    1.0000 0.33118  0.13699  0.06142  Biso   1.000  C
  C1718    1.0000 0.38949  0.14340  0.04231  Biso   1.000  C
  H1818    1.0000 0.43819  0.15271  0.02550  Biso   1.000  H
  C1719    1.0000 0.36601  0.10171  0.06343  Biso   1.000  C
  H1819    1.0000 0.44540  0.00449  0.10310  Biso   1.000  H
  H1820    1.0000 0.48047  0.00908  0.09000  Biso   1.000  H
  C1720    1.0000 0.49559  0.09362  0.09630  Biso   1.000  C
  C1721    1.0000 0.43651  0.04061  0.06280  Biso   1.000  C
  H1821    1.0000 0.38610  0.91766  0.08010  Biso   1.000  H
  H1822    1.0000 0.35029  0.90900  0.09330  Biso   1.000  H
  C1722    1.0000 0.29851  0.90179  0.07748  Biso   1.000  C
  C1723    1.0000 0.89832  0.26430  0.06343  Biso   1.000  C
  H1823    1.0000 0.99550  0.44092  0.10310  Biso   1.000  H
  H1824    1.0000 0.99088  0.47138  0.09000  Biso   1.000  H
  C1724    1.0000 0.90639  0.40199  0.09630  Biso   1.000  C
  C1725    1.0000 0.95942  0.39591  0.06280  Biso   1.000  C
  H1825    1.0000 0.08229  0.46838  0.08010  Biso   1.000  H
  H1826    1.0000 0.09099  0.44129  0.09330  Biso   1.000  H
  C1726    1.0000 0.09819  0.39671  0.07748  Biso   1.000  C
  C1727    1.0000 0.92478  0.36059  0.05181  Biso   1.000  C
  C1728    1.0000 0.96061  0.39699  0.02843  Biso   1.000  C
  C1729    1.0000 0.86489  0.39769  0.03714  Biso   1.000  C
  C1730    1.0000 0.35220  0.19501  0.07033  Biso   1.000  C
  C1731    1.0000 0.25889  0.09161  0.06196  Biso   1.000  C
  C1732    1.0000 0.40131  0.10569  0.05205  Biso   1.000  C
  H1827    1.0000 0.46991  0.10878  0.10020  Biso   1.000  H
  H1828    1.0000 0.50830  0.11271  0.08770  Biso   1.000  H
  C1733    1.0000 0.55372  0.11570  0.10462  Biso   1.000  C
  C1734    1.0000 0.47589  0.01240  0.05939  Biso   1.000  C
  C1735    1.0000 0.43581  0.07519  0.05181  Biso   1.000  C
  H1829    1.0000 0.30669  0.91808  0.06860  Biso   1.000  H
  H1830    1.0000 0.27159  0.91489  0.08170  Biso   1.000  H
  C1736    1.0000 0.26499  0.83096  0.07698  Biso   1.000  C
  C1737    1.0000 0.86299  0.19421  0.06142  Biso   1.000  C
  C1738    1.0000 0.89432  0.29560  0.05205  Biso   1.000  C
  H1831    1.0000 0.89121  0.36110  0.10020  Biso   1.000  H
  H1832    1.0000 0.88730  0.39558  0.08770  Biso   1.000  H
  C1739    1.0000 0.88433  0.43802  0.10462  Biso   1.000  C
  H1833    1.0000 0.08191  0.38861  0.06860  Biso   1.000  H
  H1834    1.0000 0.08512  0.35670  0.08170  Biso   1.000  H
  C1740    1.0000 0.16898  0.43400  0.07698  Biso   1.000  C
  H1835    1.0000 0.93350  0.35558  0.02490  Biso   1.000  H
  H1836    1.0000 0.96329  0.42698  0.02190  Biso   1.000  H
  C1741    1.0000 0.02111  0.40471  0.02992  Biso   1.000  C
  H1837    1.0000 0.87178  0.42978  0.03080  Biso   1.000  H
  H1838    1.0000 0.83969  0.35750  0.03290  Biso   1.000  H
  C1742    1.0000 0.82868  0.40209  0.04820  Biso   1.000  C
  H1839    1.0000 0.33253  0.21821  0.06720  Biso   1.000  H
  H1840    1.0000 0.33710  0.18069  0.07920  Biso   1.000  H
  C1743    1.0000 0.42199  0.23880  0.07087  Biso   1.000  C
  H1841    1.0000 0.24800  0.07631  0.07090  Biso   1.000  H
  H1842    1.0000 0.23861  0.11570  0.06010  Biso   1.000  H
  C1744    1.0000 0.23292  0.03780  0.05320  Biso   1.000  C
  H1843    1.0000 0.57648  0.09559  0.10150  Biso   1.000  H
  H1844    1.0000 0.58027  0.16039  0.10340  Biso   1.000  H
  C1745    1.0000 0.54178  0.10349  0.11765  Biso   1.000  C
  C1746    1.0000 0.49821  0.03079  0.04673  Biso   1.000  C
  C1747    1.0000 0.49190  0.97197  0.06609  Biso   1.000  C
  C1748    1.0000 0.47610  0.07149  0.04074  Biso   1.000  C
  H1845    1.0000 0.25639  0.81416  0.08580  Biso   1.000  H
  H1846    1.0000 0.29140  0.81748  0.07270  Biso   1.000  H
  C1749    1.0000 0.19919  0.80438  0.06886  Biso   1.000  C
  C1750    1.0000 0.83940  0.18860  0.04743  Biso   1.000  C
  C1751    1.0000 0.80502  0.15720  0.07033  Biso   1.000  C
  C1752    1.0000 0.90841  0.16731  0.06196  Biso   1.000  C
  C1753    1.0000 0.85660  0.24610  0.04231  Biso   1.000  C
  H1847    1.0000 0.90440  0.48092  0.10150  Biso   1.000  H
  H1848    1.0000 0.83962  0.41991  0.10340  Biso   1.000  H
  C1754    1.0000 0.89650  0.43830  0.11765  Biso   1.000  C
  H1849    1.0000 0.18580  0.44218  0.08580  Biso   1.000  H
  H1850    1.0000 0.18250  0.47390  0.07270  Biso   1.000  H
  C1755    1.0000 0.19561  0.39479  0.06886  Biso   1.000  C
  H1851    1.0000 0.01911  0.37200  0.03550  Biso   1.000  H
  H1852    1.0000 0.04882  0.44480  0.03400  Biso   1.000  H
  C1756    1.0000 0.04688  0.40129  0.01619  Biso   1.000  C
  H1853    1.0000 0.85579  0.43881  0.05340  Biso   1.000  H
  H1854    1.0000 0.81469  0.36569  0.05380  Biso   1.000  H
  C1757    1.0000 0.77087  0.40658  0.04364  Biso   1.000  C
  H1855    1.0000 0.43769  0.24750  0.06190  Biso   1.000  H
  H1856    1.0000 0.44080  0.21709  0.07520  Biso   1.000  H
  C1758    1.0000 0.44449  0.30131  0.07790  Biso   1.000  C
  H1857    1.0000 0.25001  0.05488  0.04460  Biso   1.000  H
  H1858    1.0000 0.18858  0.02400  0.05270  Biso   1.000  H
  C1759    1.0000 0.23596  0.97946  0.05418  Biso   1.000  C
  H1859    1.0000 0.51939  0.12338  0.12080  Biso   1.000  H
  H1860    1.0000 0.58052  0.11931  0.12230  Biso   1.000  H
  H1861    1.0000 0.51678  0.05909  0.11900  Biso   1.000  H
  C1760    1.0000 0.53691  0.01151  0.04078  Biso   1.000  C
  C1761    1.0000 0.52920  0.95289  0.06016  Biso   1.000  C
  H1862    1.0000 0.47698  0.95850  0.07450  Biso   1.000  H
  C1762    1.0000 0.43639  0.03939  0.02843  Biso   1.000  C
  C1763    1.0000 0.53280  0.13512  0.03714  Biso   1.000  C
  H1863    1.0000 0.17168  0.81468  0.07350  Biso   1.000  H
  H1864    1.0000 0.17970  0.75980  0.06800  Biso   1.000  H
  H1865    1.0000 0.20758  0.82319  0.06030  Biso   1.000  H
  C1764    1.0000 0.80349  0.13292  0.04063  Biso   1.000  C
  H1866    1.0000 0.78179  0.11430  0.06720  Biso   1.000  H
  H1867    1.0000 0.81929  0.15641  0.07920  Biso   1.000  H
  C1765    1.0000 0.76122  0.18322  0.07087  Biso   1.000  C
  H1868    1.0000 0.92370  0.17171  0.07090  Biso   1.000  H
  H1869    1.0000 0.88431  0.12291  0.06010  Biso   1.000  H
  C1766    1.0000 0.96222  0.19510  0.05320  Biso   1.000  C
  C1767    1.0000 0.83692  0.24750  0.02943  Biso   1.000  C
  H1870    1.0000 0.87661  0.39600  0.12080  Biso   1.000  H
  H1871    1.0000 0.88067  0.46118  0.12230  Biso   1.000  H
  H1872    1.0000 0.94089  0.45772  0.11900  Biso   1.000  H
  H1873    1.0000 0.18530  0.35698  0.07350  Biso   1.000  H
  H1874    1.0000 0.24022  0.41991  0.06800  Biso   1.000  H
  H1875    1.0000 0.17680  0.38440  0.06030  Biso   1.000  H
  H1876    1.0000 0.08519  0.39979  0.01730  Biso   1.000  H
  H1877    1.0000 0.01669  0.36288  0.01190  Biso   1.000  H
  C1768    1.0000 0.06000  0.45622  0.00753  Biso   1.000  C
  H1878    1.0000 0.74199  0.36728  0.03940  Biso   1.000  H
  H1879    1.0000 0.75018  0.41009  0.05140  Biso   1.000  H
  C1769    1.0000 0.78110  0.46010  0.03418  Biso   1.000  C
  H1880    1.0000 0.42498  0.29209  0.08650  Biso   1.000  H
  H1881    1.0000 0.48919  0.32012  0.07930  Biso   1.000  H
  C1770    1.0000 0.43421  0.34590  0.07217  Biso   1.000  C
  C1771    1.0000 0.19089  0.93047  0.04382  Biso   1.000  C
  H1882    1.0000 0.22401  0.96220  0.06290  Biso   1.000  H
  H1883    1.0000 0.27858  0.98877  0.05260  Biso   1.000  H
  H1884    1.0000 0.55170  0.02470  0.03230  Biso   1.000  H
  C1772    1.0000 0.55317  0.97296  0.04741  Biso   1.000  C
  H1885    1.0000 0.53900  0.92598  0.06460  Biso   1.000  H
  H1886    1.0000 0.42210  0.06648  0.02490  Biso   1.000  H
  H1887    1.0000 0.46368  0.03668  0.02190  Biso   1.000  H
  C1773    1.0000 0.38361  0.97890  0.02992  Biso   1.000  C
  H1888    1.0000 0.55798  0.12820  0.03080  Biso   1.000  H
  H1889    1.0000 0.51779  0.16029  0.03290  Biso   1.000  H
  C1774    1.0000 0.57341  0.17129  0.04820  Biso   1.000  C
  H1890    1.0000 0.79238  0.09488  0.04460  Biso   1.000  H
  C1775    1.0000 0.78482  0.13390  0.02807  Biso   1.000  C
  H1891    1.0000 0.75251  0.19019  0.06190  Biso   1.000  H
  H1892    1.0000 0.78291  0.22369  0.07520  Biso   1.000  H
  C1776    1.0000 0.69871  0.14321  0.07790  Biso   1.000  C
  H1893    1.0000 0.94512  0.19510  0.04460  Biso   1.000  H
  H1894    1.0000 0.97602  0.16460  0.05270  Biso   1.000  H
  C1777    1.0000 0.02050  0.25649  0.05418  Biso   1.000  C
  C1778    1.0000 0.80220  0.19248  0.02272  Biso   1.000  C
  H1895    1.0000 0.84728  0.28549  0.02550  Biso   1.000  H
  H1896    1.0000 0.07680  0.45238  0.99930  Biso   1.000  H
  H1897    1.0000 0.02190  0.45669  0.00600  Biso   1.000  H
  H1898    1.0000 0.08978  0.49440  0.01180  Biso   1.000  H
  H1899    1.0000 0.80669  0.49968  0.03840  Biso   1.000  H
  H1900    1.0000 0.74140  0.45589  0.03190  Biso   1.000  H
  H1901    1.0000 0.80152  0.45790  0.02640  Biso   1.000  H
  H1902    1.0000 0.45598  0.35848  0.06400  Biso   1.000  H
  H1903    1.0000 0.44909  0.38141  0.07790  Biso   1.000  H
  H1904    1.0000 0.39010  0.32849  0.07070  Biso   1.000  H
  H1905    1.0000 0.14851  0.91939  0.04570  Biso   1.000  H
  H1906    1.0000 0.19478  0.89370  0.04420  Biso   1.000  H
  H1907    1.0000 0.20176  0.94825  0.03520  Biso   1.000  H
  C1779    1.0000 0.59009  0.94760  0.04147  Biso   1.000  C
  H1908    1.0000 0.35287  0.98086  0.03550  Biso   1.000  H
  H1909    1.0000 0.39596  0.95115  0.03400  Biso   1.000  H
  C1780    1.0000 0.35437  0.95307  0.01619  Biso   1.000  C
  H1910    1.0000 0.58300  0.14420  0.05340  Biso   1.000  H
  H1911    1.0000 0.55101  0.18532  0.05380  Biso   1.000  H
  C1781    1.0000 0.63571  0.22912  0.04364  Biso   1.000  C
  C1782    1.0000 0.74619  0.07650  0.02039  Biso   1.000  C
  H1912    1.0000 0.70791  0.13292  0.08650  Biso   1.000  H
  H1913    1.0000 0.67988  0.16909  0.07930  Biso   1.000  H
  C1783    1.0000 0.65411  0.08829  0.07217  Biso   1.000  C
  C1784    1.0000 0.06951  0.26042  0.04382  Biso   1.000  C
  H1914    1.0000 0.03780  0.26182  0.06290  Biso   1.000  H
  H1915    1.0000 0.01119  0.28980  0.05260  Biso   1.000  H
  H1916    1.0000 0.78962  0.19431  0.01420  Biso   1.000  H
  N71      1.0000 0.60541  0.95710  0.02927  Biso   1.000  N
  H1917    1.0000 0.31459  0.91475  0.01730  Biso   1.000  H
  H1918    1.0000 0.34619  0.98330  0.01190  Biso   1.000  H
  C1785    1.0000 0.39620  0.93997  0.00753  Biso   1.000  C
  H1919    1.0000 0.62530  0.25798  0.03940  Biso   1.000  H
  H1920    1.0000 0.65991  0.24980  0.05140  Biso   1.000  H
  C1786    1.0000 0.67899  0.21892  0.03418  Biso   1.000  C
  N72      1.0000 0.73390  0.02372  0.02416  Biso   1.000  N
  H1921    1.0000 0.64150  0.09750  0.06400  Biso   1.000  H
  H1922    1.0000 0.61862  0.06770  0.07790  Biso   1.000  H
  H1923    1.0000 0.67149  0.06162  0.07070  Biso   1.000  H
  H1924    1.0000 0.08060  0.22912  0.04570  Biso   1.000  H
  H1925    1.0000 0.10631  0.30112  0.04420  Biso   1.000  H
  H1926    1.0000 0.05171  0.25349  0.03520  Biso   1.000  H
  C1787    1.0000 0.63549  0.92406  0.02384  Biso   1.000  C
  H1927    1.0000 0.37561  0.92318  0.99930  Biso   1.000  H
  H1928    1.0000 0.43477  0.97806  0.00600  Biso   1.000  H
  H1929    1.0000 0.40460  0.91017  0.01180  Biso   1.000  H
  H1930    1.0000 0.69299  0.19328  0.03840  Biso   1.000  H
  H1931    1.0000 0.71451  0.25859  0.03190  Biso   1.000  H
  H1932    1.0000 0.65639  0.19852  0.02640  Biso   1.000  H
  C1788    1.0000 0.69211  0.97109  0.01552  Biso   1.000  C
  H1933    1.0000 0.65030  0.90830  0.03100  Biso   1.000  H
  C1789    1.0000 0.58541  0.86750  0.01547  Biso   1.000  C
  H1934    1.0000 0.67708  0.98690  0.00840  Biso   1.000  H
  C1790    1.0000 0.72790  0.94138  0.00966  Biso   1.000  C
  C1791    1.0000 0.54728  0.87616  0.00674  Biso   1.000  C
  C1792    1.0000 0.57559  0.80976  0.01735  Biso   1.000  C
  C1793    1.0000 0.73080  0.93567  0.99638  Biso   1.000  C
  C1794    1.0000 0.75989  0.92116  0.01725  Biso   1.000  C
  H1935    1.0000 0.55558  0.91700  0.00540  Biso   1.000  H
  C1795    1.0000 0.49920  0.83016  0.00000  Biso   1.000  C
  H1936    1.0000 0.60067  0.80247  0.02300  Biso   1.000  H
  C1796    1.0000 0.52329  0.75736  0.01009  Biso   1.000  C
  H1937    1.0000 0.71036  0.94966  0.99090  Biso   1.000  H
  C1797    1.0000 0.76380  0.90928  0.99103  Biso   1.000  C
  H1938    1.0000 0.75978  0.92556  0.02630  Biso   1.000  H
  C1798    1.0000 0.79220  0.89468  0.01194  Biso   1.000  C
  H1939    1.0000 0.47371  0.83770  0.99450  Biso   1.000  H
  C1799    1.0000 0.49111  0.77299  0.00193  Biso   1.000  C
  H1940    1.0000 0.51360  0.71610  0.01120  Biso   1.000  H
  H1941    1.0000 0.76590  0.90675  0.98200  Biso   1.000  H
  C1800    1.0000 0.79229  0.88757  0.99854  Biso   1.000  C
  H1942    1.0000 0.81389  0.88168  0.01730  Biso   1.000  H
  H1943    1.0000 0.45980  0.74066  0.99710  Biso   1.000  H
  H1944    1.0000 0.81208  0.86769  0.99480  Biso   1.000  H
