data_image0
_cell_length_a       25.85
_cell_length_b       25.85
_cell_length_c       25.85
_cell_angle_alpha    90
_cell_angle_beta     90
_cell_angle_gamma    90

_symmetry_space_group_name_H-M    "P 1"
_symmetry_int_tables_number       1

loop_
  _symmetry_equiv_pos_as_xyz
  'x, y, z'

loop_
  _atom_site_label
  _atom_site_occupancy
  _atom_site_fract_x
  _atom_site_fract_y
  _atom_site_fract_z
  _atom_site_thermal_displace_type
  _atom_site_B_iso_or_equiv
  _atom_site_type_symbol
  C1       1.0000 0.56801  0.43199  0.40000  Biso   1.000  C
  C2       1.0000 0.61002  0.39501  0.39501  Biso   1.000  C
  H1       1.0000 0.56410  0.44232  0.43590  Biso   1.000  H
  H2       1.0000 0.57590  0.46259  0.37861  Biso   1.000  H
  H3       1.0000 0.53590  0.41621  0.38739  Biso   1.000  H
  C3       1.0000 0.61002  0.35501  0.35501  Biso   1.000  C
  C4       1.0000 0.61803  0.37602  0.34000  Biso   1.000  C
  N1       1.0000 0.65950  0.41942  0.41103  Biso   1.000  N
  H4       1.0000 0.58511  0.38669  0.42491  Biso   1.000  H
  C5       1.0000 0.60302  0.34901  0.43300  Biso   1.000  C
  C6       1.0000 0.56801  0.31799  0.35002  Biso   1.000  C
  N2       1.0000 0.65950  0.33060  0.33899  Biso   1.000  N
  C7       1.0000 0.61803  0.37400  0.41002  Biso   1.000  C
  H5       1.0000 0.58511  0.36329  0.32511  Biso   1.000  H
  C8       1.0000 0.60302  0.40101  0.31702  Biso   1.000  C
  H6       1.0000 0.63060  0.40480  0.31760  Biso   1.000  H
  C9       1.0000 0.68901  0.41002  0.44801  Biso   1.000  C
  H7       1.0000 0.63060  0.34522  0.43242  Biso   1.000  H
  H8       1.0000 0.63431  0.32689  0.43122  Biso   1.000  H
  H9       1.0000 0.59899  0.36170  0.46832  Biso   1.000  H
  H10      1.0000 0.57300  0.32839  0.42302  Biso   1.000  H
  H11      1.0000 0.56410  0.30770  0.31412  Biso   1.000  H
  H12      1.0000 0.57590  0.28739  0.37141  Biso   1.000  H
  H13      1.0000 0.53590  0.33381  0.36259  Biso   1.000  H
  C10      1.0000 0.68901  0.34000  0.30201  Biso   1.000  C
  H14      1.0000 0.63431  0.42309  0.31880  Biso   1.000  H
  H15      1.0000 0.59899  0.38832  0.28170  Biso   1.000  H
  H16      1.0000 0.57300  0.42162  0.32700  Biso   1.000  H
  C11      1.0000 0.73462  0.44201  0.46101  Biso   1.000  C
  H17      1.0000 0.68221  0.38101  0.46952  Biso   1.000  H
  C12      1.0000 0.73462  0.30801  0.28901  Biso   1.000  C
  H18      1.0000 0.68221  0.36901  0.28050  Biso   1.000  H
  C13      1.0000 0.76503  0.43002  0.50282  Biso   1.000  C
  C14      1.0000 0.74720  0.48499  0.43002  Biso   1.000  C
  C15      1.0000 0.76503  0.32000  0.24720  Biso   1.000  C
  C16      1.0000 0.74720  0.26499  0.32000  Biso   1.000  C
  H19      1.0000 0.75710  0.40101  0.52371  Biso   1.000  H
  C17      1.0000 0.80801  0.46101  0.51540  Biso   1.000  C
  H20      1.0000 0.72631  0.49292  0.40101  Biso   1.000  H
  C18      1.0000 0.78901  0.51540  0.44201  Biso   1.000  C
  H21      1.0000 0.75710  0.34901  0.22631  Biso   1.000  H
  C19      1.0000 0.80801  0.28901  0.23462  Biso   1.000  C
  H22      1.0000 0.72631  0.25710  0.34901  Biso   1.000  H
  C20      1.0000 0.78901  0.23462  0.30801  Biso   1.000  C
  C21      1.0000 0.82000  0.50282  0.48499  Biso   1.000  C
  C22      1.0000 0.84000  0.44801  0.56101  Biso   1.000  C
  C23      1.0000 0.80201  0.56101  0.41002  Biso   1.000  C
  C24      1.0000 0.82000  0.24720  0.26499  Biso   1.000  C
  C25      1.0000 0.84000  0.30201  0.18901  Biso   1.000  C
  C26      1.0000 0.80201  0.18901  0.34000  Biso   1.000  C
  H23      1.0000 0.84901  0.52371  0.49292  Biso   1.000  H
  N3       1.0000 0.83060  0.41103  0.59052  Biso   1.000  N
  H24      1.0000 0.86901  0.46952  0.56781  Biso   1.000  H
  N4       1.0000 0.83899  0.59052  0.41942  Biso   1.000  N
  H25      1.0000 0.78050  0.56781  0.38101  Biso   1.000  H
  H26      1.0000 0.84901  0.22631  0.25710  Biso   1.000  H
  N5       1.0000 0.83060  0.33899  0.15950  Biso   1.000  N
  H27      1.0000 0.86901  0.28050  0.18221  Biso   1.000  H
  N6       1.0000 0.83899  0.15950  0.33060  Biso   1.000  N
  H28      1.0000 0.78050  0.18221  0.36901  Biso   1.000  H
  C27      1.0000 0.85501  0.39501  0.64000  Biso   1.000  C
  C28      1.0000 0.87602  0.41002  0.63199  Biso   1.000  C
  C29      1.0000 0.85501  0.64000  0.39501  Biso   1.000  C
  C30      1.0000 0.84000  0.63199  0.37400  Biso   1.000  C
  C31      1.0000 0.85501  0.35501  0.11002  Biso   1.000  C
  C32      1.0000 0.87602  0.34000  0.11799  Biso   1.000  C
  C33      1.0000 0.85501  0.11002  0.35501  Biso   1.000  C
  C34      1.0000 0.84000  0.11799  0.37602  Biso   1.000  C
  C35      1.0000 0.89501  0.35501  0.64000  Biso   1.000  C
  C36      1.0000 0.87400  0.34000  0.63199  Biso   1.000  C
  H29      1.0000 0.86333  0.42491  0.66491  Biso   1.000  H
  C37      1.0000 0.90101  0.43300  0.64700  Biso   1.000  C
  C38      1.0000 0.81803  0.40000  0.68201  Biso   1.000  C
  H30      1.0000 0.90480  0.43242  0.61942  Biso   1.000  H
  C39      1.0000 0.89501  0.64000  0.35501  Biso   1.000  C
  C40      1.0000 0.91002  0.63199  0.37602  Biso   1.000  C
  H31      1.0000 0.82511  0.66491  0.38669  Biso   1.000  H
  C41      1.0000 0.81702  0.64700  0.34901  Biso   1.000  C
  C42      1.0000 0.85002  0.68201  0.43199  Biso   1.000  C
  H32      1.0000 0.81760  0.61942  0.34522  Biso   1.000  H
  C43      1.0000 0.89501  0.39501  0.11002  Biso   1.000  C
  C44      1.0000 0.87400  0.41002  0.11799  Biso   1.000  C
  H33      1.0000 0.86333  0.32511  0.08511  Biso   1.000  H
  C45      1.0000 0.90101  0.31702  0.10302  Biso   1.000  C
  C46      1.0000 0.81803  0.35002  0.06801  Biso   1.000  C
  H34      1.0000 0.90480  0.31760  0.13060  Biso   1.000  H
  C47      1.0000 0.89501  0.11002  0.39501  Biso   1.000  C
  C48      1.0000 0.91002  0.11799  0.37400  Biso   1.000  C
  H35      1.0000 0.82511  0.08511  0.36329  Biso   1.000  H
  C49      1.0000 0.81702  0.10302  0.40101  Biso   1.000  C
  C50      1.0000 0.85002  0.06801  0.31799  Biso   1.000  C
  H36      1.0000 0.81760  0.13060  0.40480  Biso   1.000  H
  N7       1.0000 0.91942  0.33899  0.59052  Biso   1.000  N
  H37      1.0000 0.88673  0.32511  0.66491  Biso   1.000  H
  C51      1.0000 0.84901  0.31702  0.64700  Biso   1.000  C
  C52      1.0000 0.93203  0.35002  0.68201  Biso   1.000  C
  H38      1.0000 0.84522  0.31760  0.61942  Biso   1.000  H
  H39      1.0000 0.92313  0.43122  0.61571  Biso   1.000  H
  H40      1.0000 0.88832  0.46832  0.65103  Biso   1.000  H
  H41      1.0000 0.92162  0.42302  0.67702  Biso   1.000  H
  H42      1.0000 0.80770  0.43590  0.68592  Biso   1.000  H
  H43      1.0000 0.78743  0.37861  0.67412  Biso   1.000  H
  H44      1.0000 0.83381  0.38739  0.71412  Biso   1.000  H
  N8       1.0000 0.91103  0.59052  0.33060  Biso   1.000  N
  H45      1.0000 0.92491  0.66491  0.36329  Biso   1.000  H
  C53      1.0000 0.93300  0.64700  0.40101  Biso   1.000  C
  C54      1.0000 0.90000  0.68201  0.31799  Biso   1.000  C
  H46      1.0000 0.93242  0.61942  0.40480  Biso   1.000  H
  H47      1.0000 0.81880  0.61571  0.32689  Biso   1.000  H
  H48      1.0000 0.78170  0.65103  0.36170  Biso   1.000  H
  H49      1.0000 0.82700  0.67702  0.32839  Biso   1.000  H
  H50      1.0000 0.81412  0.68592  0.44232  Biso   1.000  H
  H51      1.0000 0.87141  0.67412  0.46259  Biso   1.000  H
  H52      1.0000 0.86263  0.71412  0.41621  Biso   1.000  H
  N9       1.0000 0.91942  0.41103  0.15950  Biso   1.000  N
  H53      1.0000 0.88673  0.42491  0.08511  Biso   1.000  H
  C55      1.0000 0.84901  0.43300  0.10302  Biso   1.000  C
  C56      1.0000 0.93203  0.40000  0.06801  Biso   1.000  C
  H54      1.0000 0.84522  0.43242  0.13060  Biso   1.000  H
  H55      1.0000 0.92313  0.31880  0.13431  Biso   1.000  H
  H56      1.0000 0.88832  0.28170  0.09899  Biso   1.000  H
  H57      1.0000 0.92162  0.32700  0.07300  Biso   1.000  H
  H58      1.0000 0.80770  0.31412  0.06410  Biso   1.000  H
  H59      1.0000 0.78743  0.37141  0.07590  Biso   1.000  H
  H60      1.0000 0.83381  0.36259  0.03590  Biso   1.000  H
  N10      1.0000 0.91103  0.15950  0.41942  Biso   1.000  N
  H61      1.0000 0.92491  0.08511  0.38669  Biso   1.000  H
  C57      1.0000 0.93300  0.10302  0.34901  Biso   1.000  C
  C58      1.0000 0.90000  0.06801  0.43199  Biso   1.000  C
  H62      1.0000 0.93242  0.13060  0.34522  Biso   1.000  H
  H63      1.0000 0.81880  0.13431  0.42309  Biso   1.000  H
  H64      1.0000 0.78170  0.09899  0.38832  Biso   1.000  H
  H65      1.0000 0.82700  0.07300  0.42162  Biso   1.000  H
  H66      1.0000 0.81412  0.06410  0.30770  Biso   1.000  H
  H67      1.0000 0.87141  0.07590  0.28739  Biso   1.000  H
  H68      1.0000 0.86263  0.03590  0.33381  Biso   1.000  H
  C59      1.0000 0.91002  0.30201  0.56101  Biso   1.000  C
  H69      1.0000 0.82692  0.31880  0.61571  Biso   1.000  H
  H70      1.0000 0.86170  0.28170  0.65103  Biso   1.000  H
  H71      1.0000 0.82839  0.32700  0.67702  Biso   1.000  H
  H72      1.0000 0.94232  0.31412  0.68592  Biso   1.000  H
  H73      1.0000 0.96263  0.37141  0.67412  Biso   1.000  H
  H74      1.0000 0.91621  0.36259  0.71412  Biso   1.000  H
  C60      1.0000 0.94801  0.56101  0.34000  Biso   1.000  C
  H75      1.0000 0.93122  0.61571  0.42309  Biso   1.000  H
  H76      1.0000 0.96832  0.65103  0.38832  Biso   1.000  H
  H77      1.0000 0.92302  0.67702  0.42162  Biso   1.000  H
  H78      1.0000 0.93590  0.68592  0.30770  Biso   1.000  H
  H79      1.0000 0.87861  0.67412  0.28739  Biso   1.000  H
  H80      1.0000 0.88743  0.71412  0.33381  Biso   1.000  H
  C61      1.0000 0.91002  0.44801  0.18901  Biso   1.000  C
  H81      1.0000 0.82692  0.43122  0.13431  Biso   1.000  H
  H82      1.0000 0.86170  0.46832  0.09899  Biso   1.000  H
  H83      1.0000 0.82839  0.42302  0.07300  Biso   1.000  H
  H84      1.0000 0.94232  0.43590  0.06410  Biso   1.000  H
  H85      1.0000 0.96263  0.37861  0.07590  Biso   1.000  H
  H86      1.0000 0.91621  0.38739  0.03590  Biso   1.000  H
  C62      1.0000 0.94801  0.18901  0.41002  Biso   1.000  C
  H87      1.0000 0.93122  0.13431  0.32689  Biso   1.000  H
  H88      1.0000 0.96832  0.09899  0.36170  Biso   1.000  H
  H89      1.0000 0.92302  0.07300  0.32839  Biso   1.000  H
  H90      1.0000 0.93590  0.06410  0.44232  Biso   1.000  H
  H91      1.0000 0.87861  0.07590  0.46259  Biso   1.000  H
  H92      1.0000 0.88743  0.03590  0.41621  Biso   1.000  H
  C63      1.0000 0.94201  0.28901  0.51540  Biso   1.000  C
  H93      1.0000 0.88101  0.28050  0.56781  Biso   1.000  H
  C64      1.0000 0.96101  0.51540  0.30801  Biso   1.000  C
  H94      1.0000 0.96952  0.56781  0.36901  Biso   1.000  H
  C65      1.0000 0.94201  0.46101  0.23462  Biso   1.000  C
  H95      1.0000 0.88101  0.46952  0.18221  Biso   1.000  H
  C66      1.0000 0.96101  0.23462  0.44201  Biso   1.000  C
  H96      1.0000 0.96952  0.18221  0.38101  Biso   1.000  H
  C67      1.0000 0.93002  0.24720  0.48499  Biso   1.000  C
  C68      1.0000 0.98503  0.32000  0.50282  Biso   1.000  C
  C69      1.0000 0.93002  0.50282  0.26499  Biso   1.000  C
  C70      1.0000 0.00279  0.48499  0.32000  Biso   1.000  C
  C71      1.0000 0.98503  0.43002  0.24720  Biso   1.000  C
  C72      1.0000 0.00279  0.26499  0.43002  Biso   1.000  C
  H97      1.0000 0.90101  0.22631  0.49292  Biso   1.000  H
  C73      1.0000 0.01540  0.30801  0.46101  Biso   1.000  C
  H98      1.0000 0.99292  0.34901  0.52371  Biso   1.000  H
  H99      1.0000 0.90101  0.52371  0.25710  Biso   1.000  H
  C74      1.0000 0.01540  0.44201  0.28901  Biso   1.000  C
  H100     1.0000 0.02371  0.49292  0.34901  Biso   1.000  H
  H101     1.0000 0.99292  0.40101  0.22631  Biso   1.000  H
  H102     1.0000 0.02371  0.25710  0.40101  Biso   1.000  H
  C75      1.0000 0.06101  0.34000  0.44801  Biso   1.000  C
  C76      1.0000 0.06101  0.41002  0.30201  Biso   1.000  C
  N11      1.0000 0.09048  0.33060  0.41103  Biso   1.000  N
  H103     1.0000 0.06781  0.36901  0.46952  Biso   1.000  H
  N12      1.0000 0.09048  0.41942  0.33899  Biso   1.000  N
  H104     1.0000 0.06781  0.38101  0.28050  Biso   1.000  H
  C77      1.0000 0.14000  0.35501  0.39501  Biso   1.000  C
  C78      1.0000 0.13199  0.37602  0.41002  Biso   1.000  C
  C79      1.0000 0.14000  0.39501  0.35501  Biso   1.000  C
  C80      1.0000 0.13199  0.37400  0.34000  Biso   1.000  C
  H105     1.0000 0.16491  0.36329  0.42491  Biso   1.000  H
  C81      1.0000 0.14700  0.40101  0.43300  Biso   1.000  C
  C82      1.0000 0.18201  0.31799  0.40000  Biso   1.000  C
  H106     1.0000 0.11942  0.40480  0.43242  Biso   1.000  H
  H107     1.0000 0.16491  0.38669  0.32511  Biso   1.000  H
  C83      1.0000 0.14700  0.34901  0.31702  Biso   1.000  C
  C84      1.0000 0.18201  0.43199  0.35002  Biso   1.000  C
  H108     1.0000 0.11942  0.34522  0.31760  Biso   1.000  H
  H109     1.0000 0.11571  0.42309  0.43122  Biso   1.000  H
  H110     1.0000 0.15099  0.38832  0.46832  Biso   1.000  H
  H111     1.0000 0.17702  0.42162  0.42302  Biso   1.000  H
  H112     1.0000 0.18592  0.30770  0.43590  Biso   1.000  H
  H113     1.0000 0.17412  0.28739  0.37861  Biso   1.000  H
  H114     1.0000 0.21412  0.33381  0.38739  Biso   1.000  H
  H115     1.0000 0.11571  0.32689  0.31880  Biso   1.000  H
  H116     1.0000 0.15099  0.36170  0.28170  Biso   1.000  H
  H117     1.0000 0.17702  0.32839  0.32700  Biso   1.000  H
  H118     1.0000 0.18592  0.44232  0.31412  Biso   1.000  H
  H119     1.0000 0.17412  0.46259  0.37141  Biso   1.000  H
  H120     1.0000 0.21412  0.41621  0.36259  Biso   1.000  H
  C85      1.0000 0.43199  0.40000  0.56801  Biso   1.000  C
  C86      1.0000 0.39501  0.39501  0.61002  Biso   1.000  C
  H121     1.0000 0.44232  0.43590  0.56410  Biso   1.000  H
  H122     1.0000 0.46259  0.37861  0.57590  Biso   1.000  H
  H123     1.0000 0.41621  0.38739  0.53590  Biso   1.000  H
  C87      1.0000 0.35501  0.35501  0.61002  Biso   1.000  C
  C88      1.0000 0.37602  0.34000  0.61803  Biso   1.000  C
  N13      1.0000 0.41942  0.41103  0.65950  Biso   1.000  N
  H124     1.0000 0.38669  0.42491  0.58511  Biso   1.000  H
  C89      1.0000 0.34901  0.43300  0.60302  Biso   1.000  C
  C90      1.0000 0.31799  0.35002  0.56801  Biso   1.000  C
  N14      1.0000 0.33060  0.33899  0.65950  Biso   1.000  N
  C91      1.0000 0.37400  0.41002  0.61803  Biso   1.000  C
  H125     1.0000 0.36329  0.32511  0.58511  Biso   1.000  H
  C92      1.0000 0.40101  0.31702  0.60302  Biso   1.000  C
  H126     1.0000 0.40480  0.31760  0.63060  Biso   1.000  H
  C93      1.0000 0.41002  0.44801  0.68901  Biso   1.000  C
  H127     1.0000 0.34522  0.43242  0.63060  Biso   1.000  H
  H128     1.0000 0.32689  0.43122  0.63431  Biso   1.000  H
  H129     1.0000 0.36170  0.46832  0.59899  Biso   1.000  H
  H130     1.0000 0.32839  0.42302  0.57300  Biso   1.000  H
  H131     1.0000 0.30770  0.31412  0.56410  Biso   1.000  H
  H132     1.0000 0.28739  0.37141  0.57590  Biso   1.000  H
  H133     1.0000 0.33381  0.36259  0.53590  Biso   1.000  H
  C94      1.0000 0.34000  0.30201  0.68901  Biso   1.000  C
  H134     1.0000 0.42309  0.31880  0.63431  Biso   1.000  H
  H135     1.0000 0.38832  0.28170  0.59899  Biso   1.000  H
  H136     1.0000 0.42162  0.32700  0.57300  Biso   1.000  H
  C95      1.0000 0.44201  0.46101  0.73462  Biso   1.000  C
  H137     1.0000 0.38101  0.46952  0.68221  Biso   1.000  H
  C96      1.0000 0.30801  0.28901  0.73462  Biso   1.000  C
  H138     1.0000 0.36901  0.28050  0.68221  Biso   1.000  H
  C97      1.0000 0.43002  0.50282  0.76503  Biso   1.000  C
  C98      1.0000 0.48499  0.43002  0.74720  Biso   1.000  C
  C99      1.0000 0.32000  0.24720  0.76503  Biso   1.000  C
  C100     1.0000 0.26499  0.32000  0.74720  Biso   1.000  C
  H139     1.0000 0.40101  0.52371  0.75710  Biso   1.000  H
  C101     1.0000 0.46101  0.51540  0.80801  Biso   1.000  C
  H140     1.0000 0.49292  0.40101  0.72631  Biso   1.000  H
  C102     1.0000 0.51540  0.44201  0.78901  Biso   1.000  C
  H141     1.0000 0.34901  0.22631  0.75710  Biso   1.000  H
  C103     1.0000 0.28901  0.23462  0.80801  Biso   1.000  C
  H142     1.0000 0.25710  0.34901  0.72631  Biso   1.000  H
  C104     1.0000 0.23462  0.30801  0.78901  Biso   1.000  C
  C105     1.0000 0.50282  0.48499  0.82000  Biso   1.000  C
  C106     1.0000 0.44801  0.56101  0.84000  Biso   1.000  C
  C107     1.0000 0.56101  0.41002  0.80201  Biso   1.000  C
  C108     1.0000 0.24720  0.26499  0.82000  Biso   1.000  C
  C109     1.0000 0.30201  0.18901  0.84000  Biso   1.000  C
  C110     1.0000 0.18901  0.34000  0.80201  Biso   1.000  C
  H143     1.0000 0.52371  0.49292  0.84901  Biso   1.000  H
  N15      1.0000 0.41103  0.59052  0.83060  Biso   1.000  N
  H144     1.0000 0.46952  0.56781  0.86901  Biso   1.000  H
  N16      1.0000 0.59052  0.41942  0.83899  Biso   1.000  N
  H145     1.0000 0.56781  0.38101  0.78050  Biso   1.000  H
  H146     1.0000 0.22631  0.25710  0.84901  Biso   1.000  H
  N17      1.0000 0.33899  0.15950  0.83060  Biso   1.000  N
  H147     1.0000 0.28050  0.18221  0.86901  Biso   1.000  H
  N18      1.0000 0.15950  0.33060  0.83899  Biso   1.000  N
  H148     1.0000 0.18221  0.36901  0.78050  Biso   1.000  H
  C111     1.0000 0.39501  0.64000  0.85501  Biso   1.000  C
  C112     1.0000 0.41002  0.63199  0.87602  Biso   1.000  C
  C113     1.0000 0.64000  0.39501  0.85501  Biso   1.000  C
  C114     1.0000 0.63199  0.37400  0.84000  Biso   1.000  C
  C115     1.0000 0.35501  0.11002  0.85501  Biso   1.000  C
  C116     1.0000 0.34000  0.11799  0.87602  Biso   1.000  C
  C117     1.0000 0.11002  0.35501  0.85501  Biso   1.000  C
  C118     1.0000 0.11799  0.37602  0.84000  Biso   1.000  C
  C119     1.0000 0.35501  0.64000  0.89501  Biso   1.000  C
  C120     1.0000 0.34000  0.63199  0.87400  Biso   1.000  C
  H149     1.0000 0.42491  0.66491  0.86333  Biso   1.000  H
  C121     1.0000 0.43300  0.64700  0.90101  Biso   1.000  C
  C122     1.0000 0.40000  0.68201  0.81803  Biso   1.000  C
  H150     1.0000 0.43242  0.61942  0.90480  Biso   1.000  H
  C123     1.0000 0.64000  0.35501  0.89501  Biso   1.000  C
  C124     1.0000 0.63199  0.37602  0.91002  Biso   1.000  C
  H151     1.0000 0.66491  0.38669  0.82511  Biso   1.000  H
  C125     1.0000 0.64700  0.34901  0.81702  Biso   1.000  C
  C126     1.0000 0.68201  0.43199  0.85002  Biso   1.000  C
  H152     1.0000 0.61942  0.34522  0.81760  Biso   1.000  H
  C127     1.0000 0.39501  0.11002  0.89501  Biso   1.000  C
  C128     1.0000 0.41002  0.11799  0.87400  Biso   1.000  C
  H153     1.0000 0.32511  0.08511  0.86333  Biso   1.000  H
  C129     1.0000 0.31702  0.10302  0.90101  Biso   1.000  C
  C130     1.0000 0.35002  0.06801  0.81803  Biso   1.000  C
  H154     1.0000 0.31760  0.13060  0.90480  Biso   1.000  H
  C131     1.0000 0.11002  0.39501  0.89501  Biso   1.000  C
  C132     1.0000 0.11799  0.37400  0.91002  Biso   1.000  C
  H155     1.0000 0.08511  0.36329  0.82511  Biso   1.000  H
  C133     1.0000 0.10302  0.40101  0.81702  Biso   1.000  C
  C134     1.0000 0.06801  0.31799  0.85002  Biso   1.000  C
  H156     1.0000 0.13060  0.40480  0.81760  Biso   1.000  H
  N19      1.0000 0.33899  0.59052  0.91942  Biso   1.000  N
  H157     1.0000 0.32511  0.66491  0.88673  Biso   1.000  H
  C135     1.0000 0.31702  0.64700  0.84901  Biso   1.000  C
  C136     1.0000 0.35002  0.68201  0.93203  Biso   1.000  C
  H158     1.0000 0.31760  0.61942  0.84522  Biso   1.000  H
  H159     1.0000 0.43122  0.61571  0.92313  Biso   1.000  H
  H160     1.0000 0.46832  0.65103  0.88832  Biso   1.000  H
  H161     1.0000 0.42302  0.67702  0.92162  Biso   1.000  H
  H162     1.0000 0.43590  0.68592  0.80770  Biso   1.000  H
  H163     1.0000 0.37861  0.67412  0.78743  Biso   1.000  H
  H164     1.0000 0.38739  0.71412  0.83381  Biso   1.000  H
  N20      1.0000 0.59052  0.33060  0.91103  Biso   1.000  N
  H165     1.0000 0.66491  0.36329  0.92491  Biso   1.000  H
  C137     1.0000 0.64700  0.40101  0.93300  Biso   1.000  C
  C138     1.0000 0.68201  0.31799  0.90000  Biso   1.000  C
  H166     1.0000 0.61942  0.40480  0.93242  Biso   1.000  H
  H167     1.0000 0.61571  0.32689  0.81880  Biso   1.000  H
  H168     1.0000 0.65103  0.36170  0.78170  Biso   1.000  H
  H169     1.0000 0.67702  0.32839  0.82700  Biso   1.000  H
  H170     1.0000 0.68592  0.44232  0.81412  Biso   1.000  H
  H171     1.0000 0.67412  0.46259  0.87141  Biso   1.000  H
  H172     1.0000 0.71412  0.41621  0.86263  Biso   1.000  H
  N21      1.0000 0.41103  0.15950  0.91942  Biso   1.000  N
  H173     1.0000 0.42491  0.08511  0.88673  Biso   1.000  H
  C139     1.0000 0.43300  0.10302  0.84901  Biso   1.000  C
  C140     1.0000 0.40000  0.06801  0.93203  Biso   1.000  C
  H174     1.0000 0.43242  0.13060  0.84522  Biso   1.000  H
  H175     1.0000 0.31880  0.13431  0.92313  Biso   1.000  H
  H176     1.0000 0.28170  0.09899  0.88832  Biso   1.000  H
  H177     1.0000 0.32700  0.07300  0.92162  Biso   1.000  H
  H178     1.0000 0.31412  0.06410  0.80770  Biso   1.000  H
  H179     1.0000 0.37141  0.07590  0.78743  Biso   1.000  H
  H180     1.0000 0.36259  0.03590  0.83381  Biso   1.000  H
  N22      1.0000 0.15950  0.41942  0.91103  Biso   1.000  N
  H181     1.0000 0.08511  0.38669  0.92491  Biso   1.000  H
  C141     1.0000 0.10302  0.34901  0.93300  Biso   1.000  C
  C142     1.0000 0.06801  0.43199  0.90000  Biso   1.000  C
  H182     1.0000 0.13060  0.34522  0.93242  Biso   1.000  H
  H183     1.0000 0.13431  0.42309  0.81880  Biso   1.000  H
  H184     1.0000 0.09899  0.38832  0.78170  Biso   1.000  H
  H185     1.0000 0.07300  0.42162  0.82700  Biso   1.000  H
  H186     1.0000 0.06410  0.30770  0.81412  Biso   1.000  H
  H187     1.0000 0.07590  0.28739  0.87141  Biso   1.000  H
  H188     1.0000 0.03590  0.33381  0.86263  Biso   1.000  H
  C143     1.0000 0.30201  0.56101  0.91002  Biso   1.000  C
  H189     1.0000 0.31880  0.61571  0.82692  Biso   1.000  H
  H190     1.0000 0.28170  0.65103  0.86170  Biso   1.000  H
  H191     1.0000 0.32700  0.67702  0.82839  Biso   1.000  H
  H192     1.0000 0.31412  0.68592  0.94232  Biso   1.000  H
  H193     1.0000 0.37141  0.67412  0.96263  Biso   1.000  H
  H194     1.0000 0.36259  0.71412  0.91621  Biso   1.000  H
  C144     1.0000 0.56101  0.34000  0.94801  Biso   1.000  C
  H195     1.0000 0.61571  0.42309  0.93122  Biso   1.000  H
  H196     1.0000 0.65103  0.38832  0.96832  Biso   1.000  H
  H197     1.0000 0.67702  0.42162  0.92302  Biso   1.000  H
  H198     1.0000 0.68592  0.30770  0.93590  Biso   1.000  H
  H199     1.0000 0.67412  0.28739  0.87861  Biso   1.000  H
  H200     1.0000 0.71412  0.33381  0.88743  Biso   1.000  H
  C145     1.0000 0.44801  0.18901  0.91002  Biso   1.000  C
  H201     1.0000 0.43122  0.13431  0.82692  Biso   1.000  H
  H202     1.0000 0.46832  0.09899  0.86170  Biso   1.000  H
  H203     1.0000 0.42302  0.07300  0.82839  Biso   1.000  H
  H204     1.0000 0.43590  0.06410  0.94232  Biso   1.000  H
  H205     1.0000 0.37861  0.07590  0.96263  Biso   1.000  H
  H206     1.0000 0.38739  0.03590  0.91621  Biso   1.000  H
  C146     1.0000 0.18901  0.41002  0.94801  Biso   1.000  C
  H207     1.0000 0.13431  0.32689  0.93122  Biso   1.000  H
  H208     1.0000 0.09899  0.36170  0.96832  Biso   1.000  H
  H209     1.0000 0.07300  0.32839  0.92302  Biso   1.000  H
  H210     1.0000 0.06410  0.44232  0.93590  Biso   1.000  H
  H211     1.0000 0.07590  0.46259  0.87861  Biso   1.000  H
  H212     1.0000 0.03590  0.41621  0.88743  Biso   1.000  H
  C147     1.0000 0.28901  0.51540  0.94201  Biso   1.000  C
  H213     1.0000 0.28050  0.56781  0.88101  Biso   1.000  H
  C148     1.0000 0.51540  0.30801  0.96101  Biso   1.000  C
  H214     1.0000 0.56781  0.36901  0.96952  Biso   1.000  H
  C149     1.0000 0.46101  0.23462  0.94201  Biso   1.000  C
  H215     1.0000 0.46952  0.18221  0.88101  Biso   1.000  H
  C150     1.0000 0.23462  0.44201  0.96101  Biso   1.000  C
  H216     1.0000 0.18221  0.38101  0.96952  Biso   1.000  H
  C151     1.0000 0.24720  0.48499  0.93002  Biso   1.000  C
  C152     1.0000 0.32000  0.50282  0.98503  Biso   1.000  C
  C153     1.0000 0.50282  0.26499  0.93002  Biso   1.000  C
  C154     1.0000 0.48499  0.32000  0.00279  Biso   1.000  C
  C155     1.0000 0.43002  0.24720  0.98503  Biso   1.000  C
  C156     1.0000 0.26499  0.43002  0.00279  Biso   1.000  C
  H217     1.0000 0.22631  0.49292  0.90101  Biso   1.000  H
  C157     1.0000 0.30801  0.46101  0.01540  Biso   1.000  C
  H218     1.0000 0.34901  0.52371  0.99292  Biso   1.000  H
  H219     1.0000 0.52371  0.25710  0.90101  Biso   1.000  H
  C158     1.0000 0.44201  0.28901  0.01540  Biso   1.000  C
  H220     1.0000 0.49292  0.34901  0.02371  Biso   1.000  H
  H221     1.0000 0.40101  0.22631  0.99292  Biso   1.000  H
  H222     1.0000 0.25710  0.40101  0.02371  Biso   1.000  H
  C159     1.0000 0.34000  0.44801  0.06101  Biso   1.000  C
  C160     1.0000 0.41002  0.30201  0.06101  Biso   1.000  C
  N23      1.0000 0.33060  0.41103  0.09048  Biso   1.000  N
  H223     1.0000 0.36901  0.46952  0.06781  Biso   1.000  H
  N24      1.0000 0.41942  0.33899  0.09048  Biso   1.000  N
  H224     1.0000 0.38101  0.28050  0.06781  Biso   1.000  H
  C161     1.0000 0.35501  0.39501  0.14000  Biso   1.000  C
  C162     1.0000 0.37602  0.41002  0.13199  Biso   1.000  C
  C163     1.0000 0.39501  0.35501  0.14000  Biso   1.000  C
  C164     1.0000 0.37400  0.34000  0.13199  Biso   1.000  C
  H225     1.0000 0.36329  0.42491  0.16491  Biso   1.000  H
  C165     1.0000 0.40101  0.43300  0.14700  Biso   1.000  C
  C166     1.0000 0.31799  0.40000  0.18201  Biso   1.000  C
  H226     1.0000 0.40480  0.43242  0.11942  Biso   1.000  H
  H227     1.0000 0.38669  0.32511  0.16491  Biso   1.000  H
  C167     1.0000 0.34901  0.31702  0.14700  Biso   1.000  C
  C168     1.0000 0.43199  0.35002  0.18201  Biso   1.000  C
  H228     1.0000 0.34522  0.31760  0.11942  Biso   1.000  H
  H229     1.0000 0.42309  0.43122  0.11571  Biso   1.000  H
  H230     1.0000 0.38832  0.46832  0.15099  Biso   1.000  H
  H231     1.0000 0.42162  0.42302  0.17702  Biso   1.000  H
  H232     1.0000 0.30770  0.43590  0.18592  Biso   1.000  H
  H233     1.0000 0.28739  0.37861  0.17412  Biso   1.000  H
  H234     1.0000 0.33381  0.38739  0.21412  Biso   1.000  H
  H235     1.0000 0.32689  0.31880  0.11571  Biso   1.000  H
  H236     1.0000 0.36170  0.28170  0.15099  Biso   1.000  H
  H237     1.0000 0.32839  0.32700  0.17702  Biso   1.000  H
  H238     1.0000 0.44232  0.31412  0.18592  Biso   1.000  H
  H239     1.0000 0.46259  0.37141  0.17412  Biso   1.000  H
  H240     1.0000 0.41621  0.36259  0.21412  Biso   1.000  H
  C169     1.0000 0.40000  0.56801  0.43199  Biso   1.000  C
  C170     1.0000 0.39501  0.61002  0.39501  Biso   1.000  C
  H241     1.0000 0.43590  0.56410  0.44232  Biso   1.000  H
  H242     1.0000 0.37861  0.57590  0.46259  Biso   1.000  H
  H243     1.0000 0.38739  0.53590  0.41621  Biso   1.000  H
  C171     1.0000 0.35501  0.61002  0.35501  Biso   1.000  C
  C172     1.0000 0.34000  0.61803  0.37602  Biso   1.000  C
  N25      1.0000 0.41103  0.65950  0.41942  Biso   1.000  N
  H244     1.0000 0.42491  0.58511  0.38669  Biso   1.000  H
  C173     1.0000 0.43300  0.60302  0.34901  Biso   1.000  C
  C174     1.0000 0.35002  0.56801  0.31799  Biso   1.000  C
  N26      1.0000 0.33899  0.65950  0.33060  Biso   1.000  N
  C175     1.0000 0.41002  0.61803  0.37400  Biso   1.000  C
  H245     1.0000 0.32511  0.58511  0.36329  Biso   1.000  H
  C176     1.0000 0.31702  0.60302  0.40101  Biso   1.000  C
  H246     1.0000 0.31760  0.63060  0.40480  Biso   1.000  H
  C177     1.0000 0.44801  0.68901  0.41002  Biso   1.000  C
  H247     1.0000 0.43242  0.63060  0.34522  Biso   1.000  H
  H248     1.0000 0.43122  0.63431  0.32689  Biso   1.000  H
  H249     1.0000 0.46832  0.59899  0.36170  Biso   1.000  H
  H250     1.0000 0.42302  0.57300  0.32839  Biso   1.000  H
  H251     1.0000 0.31412  0.56410  0.30770  Biso   1.000  H
  H252     1.0000 0.37141  0.57590  0.28739  Biso   1.000  H
  H253     1.0000 0.36259  0.53590  0.33381  Biso   1.000  H
  C178     1.0000 0.30201  0.68901  0.34000  Biso   1.000  C
  H254     1.0000 0.31880  0.63431  0.42309  Biso   1.000  H
  H255     1.0000 0.28170  0.59899  0.38832  Biso   1.000  H
  H256     1.0000 0.32700  0.57300  0.42162  Biso   1.000  H
  C179     1.0000 0.46101  0.73462  0.44201  Biso   1.000  C
  H257     1.0000 0.46952  0.68221  0.38101  Biso   1.000  H
  C180     1.0000 0.28901  0.73462  0.30801  Biso   1.000  C
  H258     1.0000 0.28050  0.68221  0.36901  Biso   1.000  H
  C181     1.0000 0.50282  0.76503  0.43002  Biso   1.000  C
  C182     1.0000 0.43002  0.74720  0.48499  Biso   1.000  C
  C183     1.0000 0.24720  0.76503  0.32000  Biso   1.000  C
  C184     1.0000 0.32000  0.74720  0.26499  Biso   1.000  C
  H259     1.0000 0.52371  0.75710  0.40101  Biso   1.000  H
  C185     1.0000 0.51540  0.80801  0.46101  Biso   1.000  C
  H260     1.0000 0.40101  0.72631  0.49292  Biso   1.000  H
  C186     1.0000 0.44201  0.78901  0.51540  Biso   1.000  C
  H261     1.0000 0.22631  0.75710  0.34901  Biso   1.000  H
  C187     1.0000 0.23462  0.80801  0.28901  Biso   1.000  C
  H262     1.0000 0.34901  0.72631  0.25710  Biso   1.000  H
  C188     1.0000 0.30801  0.78901  0.23462  Biso   1.000  C
  C189     1.0000 0.48499  0.82000  0.50282  Biso   1.000  C
  C190     1.0000 0.56101  0.84000  0.44801  Biso   1.000  C
  C191     1.0000 0.41002  0.80201  0.56101  Biso   1.000  C
  C192     1.0000 0.26499  0.82000  0.24720  Biso   1.000  C
  C193     1.0000 0.18901  0.84000  0.30201  Biso   1.000  C
  C194     1.0000 0.34000  0.80201  0.18901  Biso   1.000  C
  H263     1.0000 0.49292  0.84901  0.52371  Biso   1.000  H
  N27      1.0000 0.59052  0.83060  0.41103  Biso   1.000  N
  H264     1.0000 0.56781  0.86901  0.46952  Biso   1.000  H
  N28      1.0000 0.41942  0.83899  0.59052  Biso   1.000  N
  H265     1.0000 0.38101  0.78050  0.56781  Biso   1.000  H
  H266     1.0000 0.25710  0.84901  0.22631  Biso   1.000  H
  N29      1.0000 0.15950  0.83060  0.33899  Biso   1.000  N
  H267     1.0000 0.18221  0.86901  0.28050  Biso   1.000  H
  N30      1.0000 0.33060  0.83899  0.15950  Biso   1.000  N
  H268     1.0000 0.36901  0.78050  0.18221  Biso   1.000  H
  C195     1.0000 0.64000  0.85501  0.39501  Biso   1.000  C
  C196     1.0000 0.63199  0.87602  0.41002  Biso   1.000  C
  C197     1.0000 0.39501  0.85501  0.64000  Biso   1.000  C
  C198     1.0000 0.37400  0.84000  0.63199  Biso   1.000  C
  C199     1.0000 0.11002  0.85501  0.35501  Biso   1.000  C
  C200     1.0000 0.11799  0.87602  0.34000  Biso   1.000  C
  C201     1.0000 0.35501  0.85501  0.11002  Biso   1.000  C
  C202     1.0000 0.37602  0.84000  0.11799  Biso   1.000  C
  C203     1.0000 0.64000  0.89501  0.35501  Biso   1.000  C
  C204     1.0000 0.63199  0.87400  0.34000  Biso   1.000  C
  H269     1.0000 0.66491  0.86333  0.42491  Biso   1.000  H
  C205     1.0000 0.64700  0.90101  0.43300  Biso   1.000  C
  C206     1.0000 0.68201  0.81803  0.40000  Biso   1.000  C
  H270     1.0000 0.61942  0.90480  0.43242  Biso   1.000  H
  C207     1.0000 0.35501  0.89501  0.64000  Biso   1.000  C
  C208     1.0000 0.37602  0.91002  0.63199  Biso   1.000  C
  H271     1.0000 0.38669  0.82511  0.66491  Biso   1.000  H
  C209     1.0000 0.34901  0.81702  0.64700  Biso   1.000  C
  C210     1.0000 0.43199  0.85002  0.68201  Biso   1.000  C
  H272     1.0000 0.34522  0.81760  0.61942  Biso   1.000  H
  C211     1.0000 0.11002  0.89501  0.39501  Biso   1.000  C
  C212     1.0000 0.11799  0.87400  0.41002  Biso   1.000  C
  H273     1.0000 0.08511  0.86333  0.32511  Biso   1.000  H
  C213     1.0000 0.10302  0.90101  0.31702  Biso   1.000  C
  C214     1.0000 0.06801  0.81803  0.35002  Biso   1.000  C
  H274     1.0000 0.13060  0.90480  0.31760  Biso   1.000  H
  C215     1.0000 0.39501  0.89501  0.11002  Biso   1.000  C
  C216     1.0000 0.37400  0.91002  0.11799  Biso   1.000  C
  H275     1.0000 0.36329  0.82511  0.08511  Biso   1.000  H
  C217     1.0000 0.40101  0.81702  0.10302  Biso   1.000  C
  C218     1.0000 0.31799  0.85002  0.06801  Biso   1.000  C
  H276     1.0000 0.40480  0.81760  0.13060  Biso   1.000  H
  N31      1.0000 0.59052  0.91942  0.33899  Biso   1.000  N
  H277     1.0000 0.66491  0.88673  0.32511  Biso   1.000  H
  C219     1.0000 0.64700  0.84901  0.31702  Biso   1.000  C
  C220     1.0000 0.68201  0.93203  0.35002  Biso   1.000  C
  H278     1.0000 0.61942  0.84522  0.31760  Biso   1.000  H
  H279     1.0000 0.61571  0.92313  0.43122  Biso   1.000  H
  H280     1.0000 0.65103  0.88832  0.46832  Biso   1.000  H
  H281     1.0000 0.67702  0.92162  0.42302  Biso   1.000  H
  H282     1.0000 0.68592  0.80770  0.43590  Biso   1.000  H
  H283     1.0000 0.67412  0.78743  0.37861  Biso   1.000  H
  H284     1.0000 0.71412  0.83381  0.38739  Biso   1.000  H
  N32      1.0000 0.33060  0.91103  0.59052  Biso   1.000  N
  H285     1.0000 0.36329  0.92491  0.66491  Biso   1.000  H
  C221     1.0000 0.40101  0.93300  0.64700  Biso   1.000  C
  C222     1.0000 0.31799  0.90000  0.68201  Biso   1.000  C
  H286     1.0000 0.40480  0.93242  0.61942  Biso   1.000  H
  H287     1.0000 0.32689  0.81880  0.61571  Biso   1.000  H
  H288     1.0000 0.36170  0.78170  0.65103  Biso   1.000  H
  H289     1.0000 0.32839  0.82700  0.67702  Biso   1.000  H
  H290     1.0000 0.44232  0.81412  0.68592  Biso   1.000  H
  H291     1.0000 0.46259  0.87141  0.67412  Biso   1.000  H
  H292     1.0000 0.41621  0.86263  0.71412  Biso   1.000  H
  N33      1.0000 0.15950  0.91942  0.41103  Biso   1.000  N
  H293     1.0000 0.08511  0.88673  0.42491  Biso   1.000  H
  C223     1.0000 0.10302  0.84901  0.43300  Biso   1.000  C
  C224     1.0000 0.06801  0.93203  0.40000  Biso   1.000  C
  H294     1.0000 0.13060  0.84522  0.43242  Biso   1.000  H
  H295     1.0000 0.13431  0.92313  0.31880  Biso   1.000  H
  H296     1.0000 0.09899  0.88832  0.28170  Biso   1.000  H
  H297     1.0000 0.07300  0.92162  0.32700  Biso   1.000  H
  H298     1.0000 0.06410  0.80770  0.31412  Biso   1.000  H
  H299     1.0000 0.07590  0.78743  0.37141  Biso   1.000  H
  H300     1.0000 0.03590  0.83381  0.36259  Biso   1.000  H
  N34      1.0000 0.41942  0.91103  0.15950  Biso   1.000  N
  H301     1.0000 0.38669  0.92491  0.08511  Biso   1.000  H
  C225     1.0000 0.34901  0.93300  0.10302  Biso   1.000  C
  C226     1.0000 0.43199  0.90000  0.06801  Biso   1.000  C
  H302     1.0000 0.34522  0.93242  0.13060  Biso   1.000  H
  H303     1.0000 0.42309  0.81880  0.13431  Biso   1.000  H
  H304     1.0000 0.38832  0.78170  0.09899  Biso   1.000  H
  H305     1.0000 0.42162  0.82700  0.07300  Biso   1.000  H
  H306     1.0000 0.30770  0.81412  0.06410  Biso   1.000  H
  H307     1.0000 0.28739  0.87141  0.07590  Biso   1.000  H
  H308     1.0000 0.33381  0.86263  0.03590  Biso   1.000  H
  C227     1.0000 0.56101  0.91002  0.30201  Biso   1.000  C
  H309     1.0000 0.61571  0.82692  0.31880  Biso   1.000  H
  H310     1.0000 0.65103  0.86170  0.28170  Biso   1.000  H
  H311     1.0000 0.67702  0.82839  0.32700  Biso   1.000  H
  H312     1.0000 0.68592  0.94232  0.31412  Biso   1.000  H
  H313     1.0000 0.67412  0.96263  0.37141  Biso   1.000  H
  H314     1.0000 0.71412  0.91621  0.36259  Biso   1.000  H
  C228     1.0000 0.34000  0.94801  0.56101  Biso   1.000  C
  H315     1.0000 0.42309  0.93122  0.61571  Biso   1.000  H
  H316     1.0000 0.38832  0.96832  0.65103  Biso   1.000  H
  H317     1.0000 0.42162  0.92302  0.67702  Biso   1.000  H
  H318     1.0000 0.30770  0.93590  0.68592  Biso   1.000  H
  H319     1.0000 0.28739  0.87861  0.67412  Biso   1.000  H
  H320     1.0000 0.33381  0.88743  0.71412  Biso   1.000  H
  C229     1.0000 0.18901  0.91002  0.44801  Biso   1.000  C
  H321     1.0000 0.13431  0.82692  0.43122  Biso   1.000  H
  H322     1.0000 0.09899  0.86170  0.46832  Biso   1.000  H
  H323     1.0000 0.07300  0.82839  0.42302  Biso   1.000  H
  H324     1.0000 0.06410  0.94232  0.43590  Biso   1.000  H
  H325     1.0000 0.07590  0.96263  0.37861  Biso   1.000  H
  H326     1.0000 0.03590  0.91621  0.38739  Biso   1.000  H
  C230     1.0000 0.41002  0.94801  0.18901  Biso   1.000  C
  H327     1.0000 0.32689  0.93122  0.13431  Biso   1.000  H
  H328     1.0000 0.36170  0.96832  0.09899  Biso   1.000  H
  H329     1.0000 0.32839  0.92302  0.07300  Biso   1.000  H
  H330     1.0000 0.44232  0.93590  0.06410  Biso   1.000  H
  H331     1.0000 0.46259  0.87861  0.07590  Biso   1.000  H
  H332     1.0000 0.41621  0.88743  0.03590  Biso   1.000  H
  C231     1.0000 0.51540  0.94201  0.28901  Biso   1.000  C
  H333     1.0000 0.56781  0.88101  0.28050  Biso   1.000  H
  C232     1.0000 0.30801  0.96101  0.51540  Biso   1.000  C
  H334     1.0000 0.36901  0.96952  0.56781  Biso   1.000  H
  C233     1.0000 0.23462  0.94201  0.46101  Biso   1.000  C
  H335     1.0000 0.18221  0.88101  0.46952  Biso   1.000  H
  C234     1.0000 0.44201  0.96101  0.23462  Biso   1.000  C
  H336     1.0000 0.38101  0.96952  0.18221  Biso   1.000  H
  C235     1.0000 0.48499  0.93002  0.24720  Biso   1.000  C
  C236     1.0000 0.50282  0.98503  0.32000  Biso   1.000  C
  C237     1.0000 0.26499  0.93002  0.50282  Biso   1.000  C
  C238     1.0000 0.32000  0.00279  0.48499  Biso   1.000  C
  C239     1.0000 0.24720  0.98503  0.43002  Biso   1.000  C
  C240     1.0000 0.43002  0.00279  0.26499  Biso   1.000  C
  H337     1.0000 0.49292  0.90101  0.22631  Biso   1.000  H
  C241     1.0000 0.46101  0.01540  0.30801  Biso   1.000  C
  H338     1.0000 0.52371  0.99292  0.34901  Biso   1.000  H
  H339     1.0000 0.25710  0.90101  0.52371  Biso   1.000  H
  C242     1.0000 0.28901  0.01540  0.44201  Biso   1.000  C
  H340     1.0000 0.34901  0.02371  0.49292  Biso   1.000  H
  H341     1.0000 0.22631  0.99292  0.40101  Biso   1.000  H
  H342     1.0000 0.40101  0.02371  0.25710  Biso   1.000  H
  C243     1.0000 0.44801  0.06101  0.34000  Biso   1.000  C
  C244     1.0000 0.30201  0.06101  0.41002  Biso   1.000  C
  N35      1.0000 0.41103  0.09048  0.33060  Biso   1.000  N
  H343     1.0000 0.46952  0.06781  0.36901  Biso   1.000  H
  N36      1.0000 0.33899  0.09048  0.41942  Biso   1.000  N
  H344     1.0000 0.28050  0.06781  0.38101  Biso   1.000  H
  C245     1.0000 0.39501  0.14000  0.35501  Biso   1.000  C
  C246     1.0000 0.41002  0.13199  0.37602  Biso   1.000  C
  C247     1.0000 0.35501  0.14000  0.39501  Biso   1.000  C
  C248     1.0000 0.34000  0.13199  0.37400  Biso   1.000  C
  H345     1.0000 0.42491  0.16491  0.36329  Biso   1.000  H
  C249     1.0000 0.43300  0.14700  0.40101  Biso   1.000  C
  C250     1.0000 0.40000  0.18201  0.31799  Biso   1.000  C
  H346     1.0000 0.43242  0.11942  0.40480  Biso   1.000  H
  H347     1.0000 0.32511  0.16491  0.38669  Biso   1.000  H
  C251     1.0000 0.31702  0.14700  0.34901  Biso   1.000  C
  C252     1.0000 0.35002  0.18201  0.43199  Biso   1.000  C
  H348     1.0000 0.31760  0.11942  0.34522  Biso   1.000  H
  H349     1.0000 0.43122  0.11571  0.42309  Biso   1.000  H
  H350     1.0000 0.46832  0.15099  0.38832  Biso   1.000  H
  H351     1.0000 0.42302  0.17702  0.42162  Biso   1.000  H
  H352     1.0000 0.43590  0.18592  0.30770  Biso   1.000  H
  H353     1.0000 0.37861  0.17412  0.28739  Biso   1.000  H
  H354     1.0000 0.38739  0.21412  0.33381  Biso   1.000  H
  H355     1.0000 0.31880  0.11571  0.32689  Biso   1.000  H
  H356     1.0000 0.28170  0.15099  0.36170  Biso   1.000  H
  H357     1.0000 0.32700  0.17702  0.32839  Biso   1.000  H
  H358     1.0000 0.31412  0.18592  0.44232  Biso   1.000  H
  H359     1.0000 0.37141  0.17412  0.46259  Biso   1.000  H
  H360     1.0000 0.36259  0.21412  0.41621  Biso   1.000  H
  C253     1.0000 0.60000  0.43199  0.56801  Biso   1.000  C
  C254     1.0000 0.60499  0.39002  0.60499  Biso   1.000  C
  H361     1.0000 0.56410  0.43590  0.55772  Biso   1.000  H
  H362     1.0000 0.62139  0.42410  0.53741  Biso   1.000  H
  H363     1.0000 0.61261  0.46410  0.58379  Biso   1.000  H
  N37      1.0000 0.58901  0.34050  0.58062  Biso   1.000  N
  C255     1.0000 0.64503  0.39002  0.64503  Biso   1.000  C
  C256     1.0000 0.66000  0.38201  0.62402  Biso   1.000  C
  H364     1.0000 0.57513  0.41489  0.61331  Biso   1.000  H
  C257     1.0000 0.56700  0.39702  0.65103  Biso   1.000  C
  C258     1.0000 0.55199  0.31099  0.59002  Biso   1.000  C
  C259     1.0000 0.59002  0.38201  0.62600  Biso   1.000  C
  N38      1.0000 0.66101  0.34050  0.66940  Biso   1.000  N
  H365     1.0000 0.67489  0.41489  0.63671  Biso   1.000  H
  C260     1.0000 0.68302  0.39702  0.59899  Biso   1.000  C
  C261     1.0000 0.65002  0.43199  0.68201  Biso   1.000  C
  H366     1.0000 0.68240  0.36940  0.59520  Biso   1.000  H
  H367     1.0000 0.56762  0.36940  0.65482  Biso   1.000  H
  H368     1.0000 0.56882  0.36569  0.67311  Biso   1.000  H
  H369     1.0000 0.53172  0.40101  0.63830  Biso   1.000  H
  H370     1.0000 0.57702  0.42700  0.67161  Biso   1.000  H
  C262     1.0000 0.53899  0.26542  0.55803  Biso   1.000  C
  H371     1.0000 0.53052  0.31779  0.61899  Biso   1.000  H
  C263     1.0000 0.69803  0.31099  0.66000  Biso   1.000  C
  H372     1.0000 0.68120  0.36569  0.57691  Biso   1.000  H
  H373     1.0000 0.71830  0.40101  0.61172  Biso   1.000  H
  H374     1.0000 0.67300  0.42700  0.57841  Biso   1.000  H
  H375     1.0000 0.68592  0.43590  0.69230  Biso   1.000  H
  H376     1.0000 0.62863  0.42410  0.71261  Biso   1.000  H
  H377     1.0000 0.63741  0.46410  0.66623  Biso   1.000  H
  C264     1.0000 0.57002  0.25280  0.51501  Biso   1.000  C
  C265     1.0000 0.49721  0.23501  0.57002  Biso   1.000  C
  C266     1.0000 0.71103  0.26542  0.69199  Biso   1.000  C
  H378     1.0000 0.71950  0.31779  0.63103  Biso   1.000  H
  C267     1.0000 0.55803  0.21099  0.48460  Biso   1.000  C
  H379     1.0000 0.59899  0.27369  0.50712  Biso   1.000  H
  C268     1.0000 0.48460  0.19199  0.53899  Biso   1.000  C
  H380     1.0000 0.47632  0.24290  0.59899  Biso   1.000  H
  C269     1.0000 0.75280  0.23501  0.68000  Biso   1.000  C
  C270     1.0000 0.68000  0.25280  0.73501  Biso   1.000  C
  C271     1.0000 0.59002  0.19799  0.43899  Biso   1.000  C
  C272     1.0000 0.51501  0.18000  0.49721  Biso   1.000  C
  C273     1.0000 0.43899  0.16000  0.55199  Biso   1.000  C
  C274     1.0000 0.76542  0.19199  0.71103  Biso   1.000  C
  H381     1.0000 0.77369  0.24290  0.65103  Biso   1.000  H
  H382     1.0000 0.65103  0.27369  0.74290  Biso   1.000  H
  C275     1.0000 0.69199  0.21099  0.76542  Biso   1.000  C
  N39      1.0000 0.58062  0.16101  0.40952  Biso   1.000  N
  H383     1.0000 0.61899  0.21950  0.43222  Biso   1.000  H
  H384     1.0000 0.50712  0.15099  0.47632  Biso   1.000  H
  N40      1.0000 0.40952  0.16940  0.58901  Biso   1.000  N
  H385     1.0000 0.43222  0.13099  0.53052  Biso   1.000  H
  C276     1.0000 0.81103  0.16000  0.69803  Biso   1.000  C
  C277     1.0000 0.73501  0.18000  0.75280  Biso   1.000  C
  C278     1.0000 0.66000  0.19799  0.81103  Biso   1.000  C
  C279     1.0000 0.60499  0.14499  0.36000  Biso   1.000  C
  C280     1.0000 0.62600  0.16000  0.36801  Biso   1.000  C
  C281     1.0000 0.36000  0.14499  0.60499  Biso   1.000  C
  C282     1.0000 0.36801  0.12398  0.59002  Biso   1.000  C
  N41      1.0000 0.84050  0.16940  0.66101  Biso   1.000  N
  H386     1.0000 0.81779  0.13099  0.71950  Biso   1.000  H
  H387     1.0000 0.74290  0.15099  0.77369  Biso   1.000  H
  N42      1.0000 0.66940  0.16101  0.84050  Biso   1.000  N
  H388     1.0000 0.63103  0.21950  0.81779  Biso   1.000  H
  C283     1.0000 0.56801  0.15002  0.31799  Biso   1.000  C
  C284     1.0000 0.64503  0.10499  0.36000  Biso   1.000  C
  C285     1.0000 0.62402  0.09002  0.36801  Biso   1.000  C
  H389     1.0000 0.61331  0.17489  0.33509  Biso   1.000  H
  C286     1.0000 0.65103  0.18302  0.35300  Biso   1.000  C
  H390     1.0000 0.65482  0.18240  0.38062  Biso   1.000  H
  C287     1.0000 0.36000  0.10499  0.64503  Biso   1.000  C
  C288     1.0000 0.36801  0.12600  0.66000  Biso   1.000  C
  H391     1.0000 0.33509  0.13671  0.57513  Biso   1.000  H
  C289     1.0000 0.35300  0.09899  0.56700  Biso   1.000  C
  C290     1.0000 0.31799  0.18201  0.60000  Biso   1.000  C
  H392     1.0000 0.38062  0.09520  0.56762  Biso   1.000  H
  C291     1.0000 0.89002  0.14499  0.64503  Biso   1.000  C
  C292     1.0000 0.88201  0.12398  0.66000  Biso   1.000  C
  C293     1.0000 0.64503  0.14499  0.89002  Biso   1.000  C
  C294     1.0000 0.62402  0.16000  0.88201  Biso   1.000  C
  H393     1.0000 0.55772  0.18592  0.31412  Biso   1.000  H
  H394     1.0000 0.53741  0.12859  0.32592  Biso   1.000  H
  H395     1.0000 0.58379  0.13741  0.28592  Biso   1.000  H
  N43      1.0000 0.66940  0.08901  0.40952  Biso   1.000  N
  H396     1.0000 0.63671  0.07509  0.33509  Biso   1.000  H
  C295     1.0000 0.59899  0.06700  0.35300  Biso   1.000  C
  C296     1.0000 0.68201  0.10000  0.31799  Biso   1.000  C
  H397     1.0000 0.59520  0.06758  0.38062  Biso   1.000  H
  H398     1.0000 0.67311  0.18120  0.38429  Biso   1.000  H
  H399     1.0000 0.63830  0.21830  0.34901  Biso   1.000  H
  H400     1.0000 0.67161  0.17300  0.32302  Biso   1.000  H
  N44      1.0000 0.40952  0.08062  0.66101  Biso   1.000  N
  H401     1.0000 0.33509  0.11331  0.67489  Biso   1.000  H
  C297     1.0000 0.35300  0.15099  0.68302  Biso   1.000  C
  C298     1.0000 0.31799  0.06801  0.65002  Biso   1.000  C
  H402     1.0000 0.38062  0.15482  0.68240  Biso   1.000  H
  H403     1.0000 0.38429  0.07691  0.56882  Biso   1.000  H
  H404     1.0000 0.34901  0.11168  0.53172  Biso   1.000  H
  H405     1.0000 0.32302  0.07841  0.57702  Biso   1.000  H
  H406     1.0000 0.31412  0.19230  0.56410  Biso   1.000  H
  H407     1.0000 0.32592  0.21261  0.62139  Biso   1.000  H
  H408     1.0000 0.28592  0.16619  0.61261  Biso   1.000  H
  C299     1.0000 0.89002  0.10499  0.60499  Biso   1.000  C
  C300     1.0000 0.88201  0.12600  0.59002  Biso   1.000  C
  H409     1.0000 0.91493  0.13671  0.67489  Biso   1.000  H
  C301     1.0000 0.89702  0.09899  0.68302  Biso   1.000  C
  C302     1.0000 0.93203  0.18201  0.65002  Biso   1.000  C
  H410     1.0000 0.86940  0.09520  0.68240  Biso   1.000  H
  C303     1.0000 0.60499  0.10499  0.89002  Biso   1.000  C
  C304     1.0000 0.62600  0.09002  0.88201  Biso   1.000  C
  H411     1.0000 0.63671  0.17489  0.91493  Biso   1.000  H
  C305     1.0000 0.59899  0.18302  0.89702  Biso   1.000  C
  C306     1.0000 0.68201  0.15002  0.93203  Biso   1.000  C
  H412     1.0000 0.59520  0.18240  0.86940  Biso   1.000  H
  C307     1.0000 0.66000  0.05199  0.43899  Biso   1.000  C
  H413     1.0000 0.57691  0.06882  0.38429  Biso   1.000  H
  H414     1.0000 0.61172  0.03168  0.34901  Biso   1.000  H
  H415     1.0000 0.57841  0.07698  0.32302  Biso   1.000  H
  H416     1.0000 0.69230  0.06410  0.31412  Biso   1.000  H
  H417     1.0000 0.71261  0.12139  0.32592  Biso   1.000  H
  H418     1.0000 0.66623  0.11261  0.28592  Biso   1.000  H
  C308     1.0000 0.43899  0.09002  0.69803  Biso   1.000  C
  H419     1.0000 0.38429  0.17311  0.68120  Biso   1.000  H
  H420     1.0000 0.34901  0.13830  0.71830  Biso   1.000  H
  H421     1.0000 0.32302  0.17161  0.67300  Biso   1.000  H
  H422     1.0000 0.31412  0.05772  0.68592  Biso   1.000  H
  H423     1.0000 0.32592  0.03741  0.62863  Biso   1.000  H
  H424     1.0000 0.28592  0.08379  0.63741  Biso   1.000  H
  N45      1.0000 0.84050  0.08062  0.58901  Biso   1.000  N
  H425     1.0000 0.91493  0.11331  0.57513  Biso   1.000  H
  C309     1.0000 0.89702  0.15099  0.56700  Biso   1.000  C
  C310     1.0000 0.93203  0.06801  0.60000  Biso   1.000  C
  H426     1.0000 0.86940  0.15482  0.56762  Biso   1.000  H
  H427     1.0000 0.86573  0.07691  0.68120  Biso   1.000  H
  H428     1.0000 0.90101  0.11168  0.71830  Biso   1.000  H
  H429     1.0000 0.92700  0.07841  0.67300  Biso   1.000  H
  H430     1.0000 0.93590  0.19230  0.68592  Biso   1.000  H
  H431     1.0000 0.92410  0.21261  0.62863  Biso   1.000  H
  H432     1.0000 0.96410  0.16619  0.63741  Biso   1.000  H
  N46      1.0000 0.58062  0.08901  0.84050  Biso   1.000  N
  H433     1.0000 0.61331  0.07509  0.91493  Biso   1.000  H
  C311     1.0000 0.65103  0.06700  0.89702  Biso   1.000  C
  C312     1.0000 0.56801  0.10000  0.93203  Biso   1.000  C
  H434     1.0000 0.65482  0.06758  0.86940  Biso   1.000  H
  H435     1.0000 0.57691  0.18120  0.86573  Biso   1.000  H
  H436     1.0000 0.61172  0.21830  0.90101  Biso   1.000  H
  H437     1.0000 0.57841  0.17300  0.92700  Biso   1.000  H
  H438     1.0000 0.69230  0.18592  0.93590  Biso   1.000  H
  H439     1.0000 0.71261  0.12859  0.92410  Biso   1.000  H
  H440     1.0000 0.66623  0.13741  0.96410  Biso   1.000  H
  C313     1.0000 0.69199  0.03899  0.48460  Biso   1.000  C
  H441     1.0000 0.63103  0.03048  0.43222  Biso   1.000  H
  C314     1.0000 0.48460  0.05799  0.71103  Biso   1.000  C
  H442     1.0000 0.43222  0.11899  0.71950  Biso   1.000  H
  C315     1.0000 0.81103  0.09002  0.55199  Biso   1.000  C
  H443     1.0000 0.86573  0.17311  0.56882  Biso   1.000  H
  H444     1.0000 0.90101  0.13830  0.53172  Biso   1.000  H
  H445     1.0000 0.92700  0.17161  0.57702  Biso   1.000  H
  H446     1.0000 0.93590  0.05772  0.56410  Biso   1.000  H
  H447     1.0000 0.92410  0.03741  0.62139  Biso   1.000  H
  H448     1.0000 0.96410  0.08379  0.61261  Biso   1.000  H
  C316     1.0000 0.59002  0.05199  0.81103  Biso   1.000  C
  H449     1.0000 0.67311  0.06882  0.86573  Biso   1.000  H
  H450     1.0000 0.63830  0.03168  0.90101  Biso   1.000  H
  H451     1.0000 0.67161  0.07698  0.92700  Biso   1.000  H
  H452     1.0000 0.55772  0.06410  0.93590  Biso   1.000  H
  H453     1.0000 0.53741  0.12139  0.92410  Biso   1.000  H
  H454     1.0000 0.58379  0.11261  0.96410  Biso   1.000  H
  C317     1.0000 0.73501  0.07002  0.49721  Biso   1.000  C
  C318     1.0000 0.68000  0.99721  0.51501  Biso   1.000  C
  C319     1.0000 0.49721  0.01501  0.68000  Biso   1.000  C
  C320     1.0000 0.51501  0.07002  0.75280  Biso   1.000  C
  C321     1.0000 0.76542  0.05799  0.53899  Biso   1.000  C
  H455     1.0000 0.81779  0.11899  0.53052  Biso   1.000  H
  C322     1.0000 0.55803  0.03899  0.76542  Biso   1.000  C
  H456     1.0000 0.61899  0.03048  0.81779  Biso   1.000  H
  H457     1.0000 0.74290  0.09899  0.47632  Biso   1.000  H
  H458     1.0000 0.65103  0.97632  0.50712  Biso   1.000  H
  C323     1.0000 0.71103  0.98460  0.55803  Biso   1.000  C
  C324     1.0000 0.53899  0.98460  0.69199  Biso   1.000  C
  H459     1.0000 0.47632  0.00712  0.65103  Biso   1.000  H
  H460     1.0000 0.50712  0.09899  0.77369  Biso   1.000  H
  C325     1.0000 0.75280  0.01501  0.57002  Biso   1.000  C
  C326     1.0000 0.57002  0.99721  0.73501  Biso   1.000  C
  C327     1.0000 0.69803  0.93903  0.59002  Biso   1.000  C
  C328     1.0000 0.55199  0.93903  0.66000  Biso   1.000  C
  H461     1.0000 0.77369  0.00712  0.59899  Biso   1.000  H
  H462     1.0000 0.59899  0.97632  0.74290  Biso   1.000  H
  N47      1.0000 0.66101  0.90952  0.58062  Biso   1.000  N
  H463     1.0000 0.71950  0.93222  0.61899  Biso   1.000  H
  N48      1.0000 0.58901  0.90952  0.66940  Biso   1.000  N
  H464     1.0000 0.53052  0.93222  0.63103  Biso   1.000  H
  C329     1.0000 0.64503  0.86000  0.60499  Biso   1.000  C
  C330     1.0000 0.66000  0.86801  0.62600  Biso   1.000  C
  C331     1.0000 0.60499  0.86000  0.64503  Biso   1.000  C
  C332     1.0000 0.59002  0.86801  0.62402  Biso   1.000  C
  H465     1.0000 0.67489  0.83513  0.61331  Biso   1.000  H
  C333     1.0000 0.68302  0.85300  0.65103  Biso   1.000  C
  C334     1.0000 0.65002  0.81803  0.56801  Biso   1.000  C
  H466     1.0000 0.68240  0.88062  0.65482  Biso   1.000  H
  H467     1.0000 0.57513  0.83513  0.63671  Biso   1.000  H
  C335     1.0000 0.56700  0.85300  0.59899  Biso   1.000  C
  C336     1.0000 0.60000  0.81803  0.68201  Biso   1.000  C
  H468     1.0000 0.56762  0.88062  0.59520  Biso   1.000  H
  H469     1.0000 0.68120  0.88433  0.67311  Biso   1.000  H
  H470     1.0000 0.71830  0.84901  0.63830  Biso   1.000  H
  H471     1.0000 0.67300  0.82302  0.67161  Biso   1.000  H
  H472     1.0000 0.68592  0.81412  0.55772  Biso   1.000  H
  H473     1.0000 0.62863  0.82592  0.53741  Biso   1.000  H
  H474     1.0000 0.63741  0.78592  0.58379  Biso   1.000  H
  H475     1.0000 0.56882  0.88433  0.57691  Biso   1.000  H
  H476     1.0000 0.53172  0.84901  0.61172  Biso   1.000  H
  H477     1.0000 0.57702  0.82302  0.57841  Biso   1.000  H
  H478     1.0000 0.56410  0.81412  0.69230  Biso   1.000  H
  H479     1.0000 0.62139  0.82592  0.71261  Biso   1.000  H
  H480     1.0000 0.61261  0.78592  0.66623  Biso   1.000  H
  C337     1.0000 0.56801  0.60000  0.43199  Biso   1.000  C
  C338     1.0000 0.60499  0.60499  0.39002  Biso   1.000  C
  H481     1.0000 0.55772  0.56410  0.43590  Biso   1.000  H
  H482     1.0000 0.53741  0.62139  0.42410  Biso   1.000  H
  H483     1.0000 0.58379  0.61261  0.46410  Biso   1.000  H
  N49      1.0000 0.58062  0.58901  0.34050  Biso   1.000  N
  C339     1.0000 0.64503  0.64503  0.39002  Biso   1.000  C
  C340     1.0000 0.62402  0.66000  0.38201  Biso   1.000  C
  H484     1.0000 0.61331  0.57513  0.41489  Biso   1.000  H
  C341     1.0000 0.65103  0.56700  0.39702  Biso   1.000  C
  C342     1.0000 0.59002  0.55199  0.31099  Biso   1.000  C
  C343     1.0000 0.62600  0.59002  0.38201  Biso   1.000  C
  N50      1.0000 0.66940  0.66101  0.34050  Biso   1.000  N
  H485     1.0000 0.63671  0.67489  0.41489  Biso   1.000  H
  C344     1.0000 0.59899  0.68302  0.39702  Biso   1.000  C
  C345     1.0000 0.68201  0.65002  0.43199  Biso   1.000  C
  H486     1.0000 0.59520  0.68240  0.36940  Biso   1.000  H
  H487     1.0000 0.65482  0.56762  0.36940  Biso   1.000  H
  H488     1.0000 0.67311  0.56882  0.36569  Biso   1.000  H
  H489     1.0000 0.63830  0.53172  0.40101  Biso   1.000  H
  H490     1.0000 0.67161  0.57702  0.42700  Biso   1.000  H
  C346     1.0000 0.55803  0.53899  0.26542  Biso   1.000  C
  H491     1.0000 0.61899  0.53052  0.31779  Biso   1.000  H
  C347     1.0000 0.66000  0.69803  0.31099  Biso   1.000  C
  H492     1.0000 0.57691  0.68120  0.36569  Biso   1.000  H
  H493     1.0000 0.61172  0.71830  0.40101  Biso   1.000  H
  H494     1.0000 0.57841  0.67300  0.42700  Biso   1.000  H
  H495     1.0000 0.69230  0.68592  0.43590  Biso   1.000  H
  H496     1.0000 0.71261  0.62863  0.42410  Biso   1.000  H
  H497     1.0000 0.66623  0.63741  0.46410  Biso   1.000  H
  C348     1.0000 0.51501  0.57002  0.25280  Biso   1.000  C
  C349     1.0000 0.57002  0.49721  0.23501  Biso   1.000  C
  C350     1.0000 0.69199  0.71103  0.26542  Biso   1.000  C
  H498     1.0000 0.63103  0.71950  0.31779  Biso   1.000  H
  C351     1.0000 0.48460  0.55803  0.21099  Biso   1.000  C
  H499     1.0000 0.50712  0.59899  0.27369  Biso   1.000  H
  C352     1.0000 0.53899  0.48460  0.19199  Biso   1.000  C
  H500     1.0000 0.59899  0.47632  0.24290  Biso   1.000  H
  C353     1.0000 0.68000  0.75280  0.23501  Biso   1.000  C
  C354     1.0000 0.73501  0.68000  0.25280  Biso   1.000  C
  C355     1.0000 0.43899  0.59002  0.19799  Biso   1.000  C
  C356     1.0000 0.49721  0.51501  0.18000  Biso   1.000  C
  C357     1.0000 0.55199  0.43899  0.16000  Biso   1.000  C
  C358     1.0000 0.71103  0.76542  0.19199  Biso   1.000  C
  H501     1.0000 0.65103  0.77369  0.24290  Biso   1.000  H
  H502     1.0000 0.74290  0.65103  0.27369  Biso   1.000  H
  C359     1.0000 0.76542  0.69199  0.21099  Biso   1.000  C
  N51      1.0000 0.40952  0.58062  0.16101  Biso   1.000  N
  H503     1.0000 0.43222  0.61899  0.21950  Biso   1.000  H
  H504     1.0000 0.47632  0.50712  0.15099  Biso   1.000  H
  N52      1.0000 0.58901  0.40952  0.16940  Biso   1.000  N
  H505     1.0000 0.53052  0.43222  0.13099  Biso   1.000  H
  C360     1.0000 0.69803  0.81103  0.16000  Biso   1.000  C
  C361     1.0000 0.75280  0.73501  0.18000  Biso   1.000  C
  C362     1.0000 0.81103  0.66000  0.19799  Biso   1.000  C
  C363     1.0000 0.36000  0.60499  0.14499  Biso   1.000  C
  C364     1.0000 0.36801  0.62600  0.16000  Biso   1.000  C
  C365     1.0000 0.60499  0.36000  0.14499  Biso   1.000  C
  C366     1.0000 0.59002  0.36801  0.12398  Biso   1.000  C
  N53      1.0000 0.66101  0.84050  0.16940  Biso   1.000  N
  H506     1.0000 0.71950  0.81779  0.13099  Biso   1.000  H
  H507     1.0000 0.77369  0.74290  0.15099  Biso   1.000  H
  N54      1.0000 0.84050  0.66940  0.16101  Biso   1.000  N
  H508     1.0000 0.81779  0.63103  0.21950  Biso   1.000  H
  C367     1.0000 0.31799  0.56801  0.15002  Biso   1.000  C
  C368     1.0000 0.36000  0.64503  0.10499  Biso   1.000  C
  C369     1.0000 0.36801  0.62402  0.09002  Biso   1.000  C
  H509     1.0000 0.33509  0.61331  0.17489  Biso   1.000  H
  C370     1.0000 0.35300  0.65103  0.18302  Biso   1.000  C
  H510     1.0000 0.38062  0.65482  0.18240  Biso   1.000  H
  C371     1.0000 0.64503  0.36000  0.10499  Biso   1.000  C
  C372     1.0000 0.66000  0.36801  0.12600  Biso   1.000  C
  H511     1.0000 0.57513  0.33509  0.13671  Biso   1.000  H
  C373     1.0000 0.56700  0.35300  0.09899  Biso   1.000  C
  C374     1.0000 0.60000  0.31799  0.18201  Biso   1.000  C
  H512     1.0000 0.56762  0.38062  0.09520  Biso   1.000  H
  C375     1.0000 0.64503  0.89002  0.14499  Biso   1.000  C
  C376     1.0000 0.66000  0.88201  0.12398  Biso   1.000  C
  C377     1.0000 0.89002  0.64503  0.14499  Biso   1.000  C
  C378     1.0000 0.88201  0.62402  0.16000  Biso   1.000  C
  H513     1.0000 0.31412  0.55772  0.18592  Biso   1.000  H
  H514     1.0000 0.32592  0.53741  0.12859  Biso   1.000  H
  H515     1.0000 0.28592  0.58379  0.13741  Biso   1.000  H
  N55      1.0000 0.40952  0.66940  0.08901  Biso   1.000  N
  H516     1.0000 0.33509  0.63671  0.07509  Biso   1.000  H
  C379     1.0000 0.35300  0.59899  0.06700  Biso   1.000  C
  C380     1.0000 0.31799  0.68201  0.10000  Biso   1.000  C
  H517     1.0000 0.38062  0.59520  0.06758  Biso   1.000  H
  H518     1.0000 0.38429  0.67311  0.18120  Biso   1.000  H
  H519     1.0000 0.34901  0.63830  0.21830  Biso   1.000  H
  H520     1.0000 0.32302  0.67161  0.17300  Biso   1.000  H
  N56      1.0000 0.66101  0.40952  0.08062  Biso   1.000  N
  H521     1.0000 0.67489  0.33509  0.11331  Biso   1.000  H
  C381     1.0000 0.68302  0.35300  0.15099  Biso   1.000  C
  C382     1.0000 0.65002  0.31799  0.06801  Biso   1.000  C
  H522     1.0000 0.68240  0.38062  0.15482  Biso   1.000  H
  H523     1.0000 0.56882  0.38429  0.07691  Biso   1.000  H
  H524     1.0000 0.53172  0.34901  0.11168  Biso   1.000  H
  H525     1.0000 0.57702  0.32302  0.07841  Biso   1.000  H
  H526     1.0000 0.56410  0.31412  0.19230  Biso   1.000  H
  H527     1.0000 0.62139  0.32592  0.21261  Biso   1.000  H
  H528     1.0000 0.61261  0.28592  0.16619  Biso   1.000  H
  C383     1.0000 0.60499  0.89002  0.10499  Biso   1.000  C
  C384     1.0000 0.59002  0.88201  0.12600  Biso   1.000  C
  H529     1.0000 0.67489  0.91493  0.13671  Biso   1.000  H
  C385     1.0000 0.68302  0.89702  0.09899  Biso   1.000  C
  C386     1.0000 0.65002  0.93203  0.18201  Biso   1.000  C
  H530     1.0000 0.68240  0.86940  0.09520  Biso   1.000  H
  C387     1.0000 0.89002  0.60499  0.10499  Biso   1.000  C
  C388     1.0000 0.88201  0.62600  0.09002  Biso   1.000  C
  H531     1.0000 0.91493  0.63671  0.17489  Biso   1.000  H
  C389     1.0000 0.89702  0.59899  0.18302  Biso   1.000  C
  C390     1.0000 0.93203  0.68201  0.15002  Biso   1.000  C
  H532     1.0000 0.86940  0.59520  0.18240  Biso   1.000  H
  C391     1.0000 0.43899  0.66000  0.05199  Biso   1.000  C
  H533     1.0000 0.38429  0.57691  0.06882  Biso   1.000  H
  H534     1.0000 0.34901  0.61172  0.03168  Biso   1.000  H
  H535     1.0000 0.32302  0.57841  0.07698  Biso   1.000  H
  H536     1.0000 0.31412  0.69230  0.06410  Biso   1.000  H
  H537     1.0000 0.32592  0.71261  0.12139  Biso   1.000  H
  H538     1.0000 0.28592  0.66623  0.11261  Biso   1.000  H
  C392     1.0000 0.69803  0.43899  0.09002  Biso   1.000  C
  H539     1.0000 0.68120  0.38429  0.17311  Biso   1.000  H
  H540     1.0000 0.71830  0.34901  0.13830  Biso   1.000  H
  H541     1.0000 0.67300  0.32302  0.17161  Biso   1.000  H
  H542     1.0000 0.68592  0.31412  0.05772  Biso   1.000  H
  H543     1.0000 0.62863  0.32592  0.03741  Biso   1.000  H
  H544     1.0000 0.63741  0.28592  0.08379  Biso   1.000  H
  N57      1.0000 0.58901  0.84050  0.08062  Biso   1.000  N
  H545     1.0000 0.57513  0.91493  0.11331  Biso   1.000  H
  C393     1.0000 0.56700  0.89702  0.15099  Biso   1.000  C
  C394     1.0000 0.60000  0.93203  0.06801  Biso   1.000  C
  H546     1.0000 0.56762  0.86940  0.15482  Biso   1.000  H
  H547     1.0000 0.68120  0.86573  0.07691  Biso   1.000  H
  H548     1.0000 0.71830  0.90101  0.11168  Biso   1.000  H
  H549     1.0000 0.67300  0.92700  0.07841  Biso   1.000  H
  H550     1.0000 0.68592  0.93590  0.19230  Biso   1.000  H
  H551     1.0000 0.62863  0.92410  0.21261  Biso   1.000  H
  H552     1.0000 0.63741  0.96410  0.16619  Biso   1.000  H
  N58      1.0000 0.84050  0.58062  0.08901  Biso   1.000  N
  H553     1.0000 0.91493  0.61331  0.07509  Biso   1.000  H
  C395     1.0000 0.89702  0.65103  0.06700  Biso   1.000  C
  C396     1.0000 0.93203  0.56801  0.10000  Biso   1.000  C
  H554     1.0000 0.86940  0.65482  0.06758  Biso   1.000  H
  H555     1.0000 0.86573  0.57691  0.18120  Biso   1.000  H
  H556     1.0000 0.90101  0.61172  0.21830  Biso   1.000  H
  H557     1.0000 0.92700  0.57841  0.17300  Biso   1.000  H
  H558     1.0000 0.93590  0.69230  0.18592  Biso   1.000  H
  H559     1.0000 0.92410  0.71261  0.12859  Biso   1.000  H
  H560     1.0000 0.96410  0.66623  0.13741  Biso   1.000  H
  C397     1.0000 0.48460  0.69199  0.03899  Biso   1.000  C
  H561     1.0000 0.43222  0.63103  0.03048  Biso   1.000  H
  C398     1.0000 0.71103  0.48460  0.05799  Biso   1.000  C
  H562     1.0000 0.71950  0.43222  0.11899  Biso   1.000  H
  C399     1.0000 0.55199  0.81103  0.09002  Biso   1.000  C
  H563     1.0000 0.56882  0.86573  0.17311  Biso   1.000  H
  H564     1.0000 0.53172  0.90101  0.13830  Biso   1.000  H
  H565     1.0000 0.57702  0.92700  0.17161  Biso   1.000  H
  H566     1.0000 0.56410  0.93590  0.05772  Biso   1.000  H
  H567     1.0000 0.62139  0.92410  0.03741  Biso   1.000  H
  H568     1.0000 0.61261  0.96410  0.08379  Biso   1.000  H
  C400     1.0000 0.81103  0.59002  0.05199  Biso   1.000  C
  H569     1.0000 0.86573  0.67311  0.06882  Biso   1.000  H
  H570     1.0000 0.90101  0.63830  0.03168  Biso   1.000  H
  H571     1.0000 0.92700  0.67161  0.07698  Biso   1.000  H
  H572     1.0000 0.93590  0.55772  0.06410  Biso   1.000  H
  H573     1.0000 0.92410  0.53741  0.12139  Biso   1.000  H
  H574     1.0000 0.96410  0.58379  0.11261  Biso   1.000  H
  C401     1.0000 0.49721  0.73501  0.07002  Biso   1.000  C
  C402     1.0000 0.51501  0.68000  0.99721  Biso   1.000  C
  C403     1.0000 0.68000  0.49721  0.01501  Biso   1.000  C
  C404     1.0000 0.75280  0.51501  0.07002  Biso   1.000  C
  C405     1.0000 0.53899  0.76542  0.05799  Biso   1.000  C
  H575     1.0000 0.53052  0.81779  0.11899  Biso   1.000  H
  C406     1.0000 0.76542  0.55803  0.03899  Biso   1.000  C
  H576     1.0000 0.81779  0.61899  0.03048  Biso   1.000  H
  H577     1.0000 0.47632  0.74290  0.09899  Biso   1.000  H
  H578     1.0000 0.50712  0.65103  0.97632  Biso   1.000  H
  C407     1.0000 0.55803  0.71103  0.98460  Biso   1.000  C
  C408     1.0000 0.69199  0.53899  0.98460  Biso   1.000  C
  H579     1.0000 0.65103  0.47632  0.00712  Biso   1.000  H
  H580     1.0000 0.77369  0.50712  0.09899  Biso   1.000  H
  C409     1.0000 0.57002  0.75280  0.01501  Biso   1.000  C
  C410     1.0000 0.73501  0.57002  0.99721  Biso   1.000  C
  C411     1.0000 0.59002  0.69803  0.93903  Biso   1.000  C
  C412     1.0000 0.66000  0.55199  0.93903  Biso   1.000  C
  H581     1.0000 0.59899  0.77369  0.00712  Biso   1.000  H
  H582     1.0000 0.74290  0.59899  0.97632  Biso   1.000  H
  N59      1.0000 0.58062  0.66101  0.90952  Biso   1.000  N
  H583     1.0000 0.61899  0.71950  0.93222  Biso   1.000  H
  N60      1.0000 0.66940  0.58901  0.90952  Biso   1.000  N
  H584     1.0000 0.63103  0.53052  0.93222  Biso   1.000  H
  C413     1.0000 0.60499  0.64503  0.86000  Biso   1.000  C
  C414     1.0000 0.62600  0.66000  0.86801  Biso   1.000  C
  C415     1.0000 0.64503  0.60499  0.86000  Biso   1.000  C
  C416     1.0000 0.62402  0.59002  0.86801  Biso   1.000  C
  H585     1.0000 0.61331  0.67489  0.83513  Biso   1.000  H
  C417     1.0000 0.65103  0.68302  0.85300  Biso   1.000  C
  C418     1.0000 0.56801  0.65002  0.81803  Biso   1.000  C
  H586     1.0000 0.65482  0.68240  0.88062  Biso   1.000  H
  H587     1.0000 0.63671  0.57513  0.83513  Biso   1.000  H
  C419     1.0000 0.59899  0.56700  0.85300  Biso   1.000  C
  C420     1.0000 0.68201  0.60000  0.81803  Biso   1.000  C
  H588     1.0000 0.59520  0.56762  0.88062  Biso   1.000  H
  H589     1.0000 0.67311  0.68120  0.88433  Biso   1.000  H
  H590     1.0000 0.63830  0.71830  0.84901  Biso   1.000  H
  H591     1.0000 0.67161  0.67300  0.82302  Biso   1.000  H
  H592     1.0000 0.55772  0.68592  0.81412  Biso   1.000  H
  H593     1.0000 0.53741  0.62863  0.82592  Biso   1.000  H
  H594     1.0000 0.58379  0.63741  0.78592  Biso   1.000  H
  H595     1.0000 0.57691  0.56882  0.88433  Biso   1.000  H
  H596     1.0000 0.61172  0.53172  0.84901  Biso   1.000  H
  H597     1.0000 0.57841  0.57702  0.82302  Biso   1.000  H
  H598     1.0000 0.69230  0.56410  0.81412  Biso   1.000  H
  H599     1.0000 0.71261  0.62139  0.82592  Biso   1.000  H
  H600     1.0000 0.66623  0.61261  0.78592  Biso   1.000  H
  C421     1.0000 0.43199  0.56801  0.60000  Biso   1.000  C
  C422     1.0000 0.39002  0.60499  0.60499  Biso   1.000  C
  H601     1.0000 0.43590  0.55772  0.56410  Biso   1.000  H
  H602     1.0000 0.42410  0.53741  0.62139  Biso   1.000  H
  H603     1.0000 0.46410  0.58379  0.61261  Biso   1.000  H
  N61      1.0000 0.34050  0.58062  0.58901  Biso   1.000  N
  C423     1.0000 0.39002  0.64503  0.64503  Biso   1.000  C
  C424     1.0000 0.38201  0.62402  0.66000  Biso   1.000  C
  H604     1.0000 0.41489  0.61331  0.57513  Biso   1.000  H
  C425     1.0000 0.39702  0.65103  0.56700  Biso   1.000  C
  C426     1.0000 0.31099  0.59002  0.55199  Biso   1.000  C
  C427     1.0000 0.38201  0.62600  0.59002  Biso   1.000  C
  N62      1.0000 0.34050  0.66940  0.66101  Biso   1.000  N
  H605     1.0000 0.41489  0.63671  0.67489  Biso   1.000  H
  C428     1.0000 0.39702  0.59899  0.68302  Biso   1.000  C
  C429     1.0000 0.43199  0.68201  0.65002  Biso   1.000  C
  H606     1.0000 0.36940  0.59520  0.68240  Biso   1.000  H
  H607     1.0000 0.36940  0.65482  0.56762  Biso   1.000  H
  H608     1.0000 0.36569  0.67311  0.56882  Biso   1.000  H
  H609     1.0000 0.40101  0.63830  0.53172  Biso   1.000  H
  H610     1.0000 0.42700  0.67161  0.57702  Biso   1.000  H
  C430     1.0000 0.26542  0.55803  0.53899  Biso   1.000  C
  H611     1.0000 0.31779  0.61899  0.53052  Biso   1.000  H
  C431     1.0000 0.31099  0.66000  0.69803  Biso   1.000  C
  H612     1.0000 0.36569  0.57691  0.68120  Biso   1.000  H
  H613     1.0000 0.40101  0.61172  0.71830  Biso   1.000  H
  H614     1.0000 0.42700  0.57841  0.67300  Biso   1.000  H
  H615     1.0000 0.43590  0.69230  0.68592  Biso   1.000  H
  H616     1.0000 0.42410  0.71261  0.62863  Biso   1.000  H
  H617     1.0000 0.46410  0.66623  0.63741  Biso   1.000  H
  C432     1.0000 0.25280  0.51501  0.57002  Biso   1.000  C
  C433     1.0000 0.23501  0.57002  0.49721  Biso   1.000  C
  C434     1.0000 0.26542  0.69199  0.71103  Biso   1.000  C
  H618     1.0000 0.31779  0.63103  0.71950  Biso   1.000  H
  C435     1.0000 0.21099  0.48460  0.55803  Biso   1.000  C
  H619     1.0000 0.27369  0.50712  0.59899  Biso   1.000  H
  C436     1.0000 0.19199  0.53899  0.48460  Biso   1.000  C
  H620     1.0000 0.24290  0.59899  0.47632  Biso   1.000  H
  C437     1.0000 0.23501  0.68000  0.75280  Biso   1.000  C
  C438     1.0000 0.25280  0.73501  0.68000  Biso   1.000  C
  C439     1.0000 0.19799  0.43899  0.59002  Biso   1.000  C
  C440     1.0000 0.18000  0.49721  0.51501  Biso   1.000  C
  C441     1.0000 0.16000  0.55199  0.43899  Biso   1.000  C
  C442     1.0000 0.19199  0.71103  0.76542  Biso   1.000  C
  H621     1.0000 0.24290  0.65103  0.77369  Biso   1.000  H
  H622     1.0000 0.27369  0.74290  0.65103  Biso   1.000  H
  C443     1.0000 0.21099  0.76542  0.69199  Biso   1.000  C
  N63      1.0000 0.16101  0.40952  0.58062  Biso   1.000  N
  H623     1.0000 0.21950  0.43222  0.61899  Biso   1.000  H
  H624     1.0000 0.15099  0.47632  0.50712  Biso   1.000  H
  N64      1.0000 0.16940  0.58901  0.40952  Biso   1.000  N
  H625     1.0000 0.13099  0.53052  0.43222  Biso   1.000  H
  C444     1.0000 0.16000  0.69803  0.81103  Biso   1.000  C
  C445     1.0000 0.18000  0.75280  0.73501  Biso   1.000  C
  C446     1.0000 0.19799  0.81103  0.66000  Biso   1.000  C
  C447     1.0000 0.14499  0.36000  0.60499  Biso   1.000  C
  C448     1.0000 0.16000  0.36801  0.62600  Biso   1.000  C
  C449     1.0000 0.14499  0.60499  0.36000  Biso   1.000  C
  C450     1.0000 0.12398  0.59002  0.36801  Biso   1.000  C
  N65      1.0000 0.16940  0.66101  0.84050  Biso   1.000  N
  H626     1.0000 0.13099  0.71950  0.81779  Biso   1.000  H
  H627     1.0000 0.15099  0.77369  0.74290  Biso   1.000  H
  N66      1.0000 0.16101  0.84050  0.66940  Biso   1.000  N
  H628     1.0000 0.21950  0.81779  0.63103  Biso   1.000  H
  C451     1.0000 0.15002  0.31799  0.56801  Biso   1.000  C
  C452     1.0000 0.10499  0.36000  0.64503  Biso   1.000  C
  C453     1.0000 0.09002  0.36801  0.62402  Biso   1.000  C
  H629     1.0000 0.17489  0.33509  0.61331  Biso   1.000  H
  C454     1.0000 0.18302  0.35300  0.65103  Biso   1.000  C
  H630     1.0000 0.18240  0.38062  0.65482  Biso   1.000  H
  C455     1.0000 0.10499  0.64503  0.36000  Biso   1.000  C
  C456     1.0000 0.12600  0.66000  0.36801  Biso   1.000  C
  H631     1.0000 0.13671  0.57513  0.33509  Biso   1.000  H
  C457     1.0000 0.09899  0.56700  0.35300  Biso   1.000  C
  C458     1.0000 0.18201  0.60000  0.31799  Biso   1.000  C
  H632     1.0000 0.09520  0.56762  0.38062  Biso   1.000  H
  C459     1.0000 0.14499  0.64503  0.89002  Biso   1.000  C
  C460     1.0000 0.12398  0.66000  0.88201  Biso   1.000  C
  C461     1.0000 0.14499  0.89002  0.64503  Biso   1.000  C
  C462     1.0000 0.16000  0.88201  0.62402  Biso   1.000  C
  H633     1.0000 0.18592  0.31412  0.55772  Biso   1.000  H
  H634     1.0000 0.12859  0.32592  0.53741  Biso   1.000  H
  H635     1.0000 0.13741  0.28592  0.58379  Biso   1.000  H
  N67      1.0000 0.08901  0.40952  0.66940  Biso   1.000  N
  H636     1.0000 0.07509  0.33509  0.63671  Biso   1.000  H
  C463     1.0000 0.06700  0.35300  0.59899  Biso   1.000  C
  C464     1.0000 0.10000  0.31799  0.68201  Biso   1.000  C
  H637     1.0000 0.06758  0.38062  0.59520  Biso   1.000  H
  H638     1.0000 0.18120  0.38429  0.67311  Biso   1.000  H
  H639     1.0000 0.21830  0.34901  0.63830  Biso   1.000  H
  H640     1.0000 0.17300  0.32302  0.67161  Biso   1.000  H
  N68      1.0000 0.08062  0.66101  0.40952  Biso   1.000  N
  H641     1.0000 0.11331  0.67489  0.33509  Biso   1.000  H
  C465     1.0000 0.15099  0.68302  0.35300  Biso   1.000  C
  C466     1.0000 0.06801  0.65002  0.31799  Biso   1.000  C
  H642     1.0000 0.15482  0.68240  0.38062  Biso   1.000  H
  H643     1.0000 0.07691  0.56882  0.38429  Biso   1.000  H
  H644     1.0000 0.11168  0.53172  0.34901  Biso   1.000  H
  H645     1.0000 0.07841  0.57702  0.32302  Biso   1.000  H
  H646     1.0000 0.19230  0.56410  0.31412  Biso   1.000  H
  H647     1.0000 0.21261  0.62139  0.32592  Biso   1.000  H
  H648     1.0000 0.16619  0.61261  0.28592  Biso   1.000  H
  C467     1.0000 0.10499  0.60499  0.89002  Biso   1.000  C
  C468     1.0000 0.12600  0.59002  0.88201  Biso   1.000  C
  H649     1.0000 0.13671  0.67489  0.91493  Biso   1.000  H
  C469     1.0000 0.09899  0.68302  0.89702  Biso   1.000  C
  C470     1.0000 0.18201  0.65002  0.93203  Biso   1.000  C
  H650     1.0000 0.09520  0.68240  0.86940  Biso   1.000  H
  C471     1.0000 0.10499  0.89002  0.60499  Biso   1.000  C
  C472     1.0000 0.09002  0.88201  0.62600  Biso   1.000  C
  H651     1.0000 0.17489  0.91493  0.63671  Biso   1.000  H
  C473     1.0000 0.18302  0.89702  0.59899  Biso   1.000  C
  C474     1.0000 0.15002  0.93203  0.68201  Biso   1.000  C
  H652     1.0000 0.18240  0.86940  0.59520  Biso   1.000  H
  C475     1.0000 0.05199  0.43899  0.66000  Biso   1.000  C
  H653     1.0000 0.06882  0.38429  0.57691  Biso   1.000  H
  H654     1.0000 0.03168  0.34901  0.61172  Biso   1.000  H
  H655     1.0000 0.07698  0.32302  0.57841  Biso   1.000  H
  H656     1.0000 0.06410  0.31412  0.69230  Biso   1.000  H
  H657     1.0000 0.12139  0.32592  0.71261  Biso   1.000  H
  H658     1.0000 0.11261  0.28592  0.66623  Biso   1.000  H
  C476     1.0000 0.09002  0.69803  0.43899  Biso   1.000  C
  H659     1.0000 0.17311  0.68120  0.38429  Biso   1.000  H
  H660     1.0000 0.13830  0.71830  0.34901  Biso   1.000  H
  H661     1.0000 0.17161  0.67300  0.32302  Biso   1.000  H
  H662     1.0000 0.05772  0.68592  0.31412  Biso   1.000  H
  H663     1.0000 0.03741  0.62863  0.32592  Biso   1.000  H
  H664     1.0000 0.08379  0.63741  0.28592  Biso   1.000  H
  N69      1.0000 0.08062  0.58901  0.84050  Biso   1.000  N
  H665     1.0000 0.11331  0.57513  0.91493  Biso   1.000  H
  C477     1.0000 0.15099  0.56700  0.89702  Biso   1.000  C
  C478     1.0000 0.06801  0.60000  0.93203  Biso   1.000  C
  H666     1.0000 0.15482  0.56762  0.86940  Biso   1.000  H
  H667     1.0000 0.07691  0.68120  0.86573  Biso   1.000  H
  H668     1.0000 0.11168  0.71830  0.90101  Biso   1.000  H
  H669     1.0000 0.07841  0.67300  0.92700  Biso   1.000  H
  H670     1.0000 0.19230  0.68592  0.93590  Biso   1.000  H
  H671     1.0000 0.21261  0.62863  0.92410  Biso   1.000  H
  H672     1.0000 0.16619  0.63741  0.96410  Biso   1.000  H
  N70      1.0000 0.08901  0.84050  0.58062  Biso   1.000  N
  H673     1.0000 0.07509  0.91493  0.61331  Biso   1.000  H
  C479     1.0000 0.06700  0.89702  0.65103  Biso   1.000  C
  C480     1.0000 0.10000  0.93203  0.56801  Biso   1.000  C
  H674     1.0000 0.06758  0.86940  0.65482  Biso   1.000  H
  H675     1.0000 0.18120  0.86573  0.57691  Biso   1.000  H
  H676     1.0000 0.21830  0.90101  0.61172  Biso   1.000  H
  H677     1.0000 0.17300  0.92700  0.57841  Biso   1.000  H
  H678     1.0000 0.18592  0.93590  0.69230  Biso   1.000  H
  H679     1.0000 0.12859  0.92410  0.71261  Biso   1.000  H
  H680     1.0000 0.13741  0.96410  0.66623  Biso   1.000  H
  C481     1.0000 0.03899  0.48460  0.69199  Biso   1.000  C
  H681     1.0000 0.03048  0.43222  0.63103  Biso   1.000  H
  C482     1.0000 0.05799  0.71103  0.48460  Biso   1.000  C
  H682     1.0000 0.11899  0.71950  0.43222  Biso   1.000  H
  C483     1.0000 0.09002  0.55199  0.81103  Biso   1.000  C
  H683     1.0000 0.17311  0.56882  0.86573  Biso   1.000  H
  H684     1.0000 0.13830  0.53172  0.90101  Biso   1.000  H
  H685     1.0000 0.17161  0.57702  0.92700  Biso   1.000  H
  H686     1.0000 0.05772  0.56410  0.93590  Biso   1.000  H
  H687     1.0000 0.03741  0.62139  0.92410  Biso   1.000  H
  H688     1.0000 0.08379  0.61261  0.96410  Biso   1.000  H
  C484     1.0000 0.05199  0.81103  0.59002  Biso   1.000  C
  H689     1.0000 0.06882  0.86573  0.67311  Biso   1.000  H
  H690     1.0000 0.03168  0.90101  0.63830  Biso   1.000  H
  H691     1.0000 0.07698  0.92700  0.67161  Biso   1.000  H
  H692     1.0000 0.06410  0.93590  0.55772  Biso   1.000  H
  H693     1.0000 0.12139  0.92410  0.53741  Biso   1.000  H
  H694     1.0000 0.11261  0.96410  0.58379  Biso   1.000  H
  C485     1.0000 0.07002  0.49721  0.73501  Biso   1.000  C
  C486     1.0000 0.99721  0.51501  0.68000  Biso   1.000  C
  C487     1.0000 0.01501  0.68000  0.49721  Biso   1.000  C
  C488     1.0000 0.07002  0.75280  0.51501  Biso   1.000  C
  C489     1.0000 0.05799  0.53899  0.76542  Biso   1.000  C
  H695     1.0000 0.11899  0.53052  0.81779  Biso   1.000  H
  C490     1.0000 0.03899  0.76542  0.55803  Biso   1.000  C
  H696     1.0000 0.03048  0.81779  0.61899  Biso   1.000  H
  H697     1.0000 0.09899  0.47632  0.74290  Biso   1.000  H
  H698     1.0000 0.97632  0.50712  0.65103  Biso   1.000  H
  C491     1.0000 0.98460  0.55803  0.71103  Biso   1.000  C
  C492     1.0000 0.98460  0.69199  0.53899  Biso   1.000  C
  H699     1.0000 0.00712  0.65103  0.47632  Biso   1.000  H
  H700     1.0000 0.09899  0.77369  0.50712  Biso   1.000  H
  C493     1.0000 0.01501  0.57002  0.75280  Biso   1.000  C
  C494     1.0000 0.99721  0.73501  0.57002  Biso   1.000  C
  C495     1.0000 0.93903  0.59002  0.69803  Biso   1.000  C
  C496     1.0000 0.93903  0.66000  0.55199  Biso   1.000  C
  H701     1.0000 0.00712  0.59899  0.77369  Biso   1.000  H
  H702     1.0000 0.97632  0.74290  0.59899  Biso   1.000  H
  N71      1.0000 0.90952  0.58062  0.66101  Biso   1.000  N
  H703     1.0000 0.93222  0.61899  0.71950  Biso   1.000  H
  N72      1.0000 0.90952  0.66940  0.58901  Biso   1.000  N
  H704     1.0000 0.93222  0.63103  0.53052  Biso   1.000  H
  C497     1.0000 0.86000  0.60499  0.64503  Biso   1.000  C
  C498     1.0000 0.86801  0.62600  0.66000  Biso   1.000  C
  C499     1.0000 0.86000  0.64503  0.60499  Biso   1.000  C
  C500     1.0000 0.86801  0.62402  0.59002  Biso   1.000  C
  H705     1.0000 0.83513  0.61331  0.67489  Biso   1.000  H
  C501     1.0000 0.85300  0.65103  0.68302  Biso   1.000  C
  C502     1.0000 0.81803  0.56801  0.65002  Biso   1.000  C
  H706     1.0000 0.88062  0.65482  0.68240  Biso   1.000  H
  H707     1.0000 0.83513  0.63671  0.57513  Biso   1.000  H
  C503     1.0000 0.85300  0.59899  0.56700  Biso   1.000  C
  C504     1.0000 0.81803  0.68201  0.60000  Biso   1.000  C
  H708     1.0000 0.88062  0.59520  0.56762  Biso   1.000  H
  H709     1.0000 0.88433  0.67311  0.68120  Biso   1.000  H
  H710     1.0000 0.84901  0.63830  0.71830  Biso   1.000  H
  H711     1.0000 0.82302  0.67161  0.67300  Biso   1.000  H
  H712     1.0000 0.81412  0.55772  0.68592  Biso   1.000  H
  H713     1.0000 0.82592  0.53741  0.62863  Biso   1.000  H
  H714     1.0000 0.78592  0.58379  0.63741  Biso   1.000  H
  H715     1.0000 0.88433  0.57691  0.56882  Biso   1.000  H
  H716     1.0000 0.84901  0.61172  0.53172  Biso   1.000  H
  H717     1.0000 0.82302  0.57841  0.57702  Biso   1.000  H
  H718     1.0000 0.81412  0.69230  0.56410  Biso   1.000  H
  H719     1.0000 0.82592  0.71261  0.62139  Biso   1.000  H
  H720     1.0000 0.78592  0.66623  0.61261  Biso   1.000  H
  C505     1.0000 0.43199  0.18201  0.15002  Biso   1.000  C
  C506     1.0000 0.39002  0.14499  0.14499  Biso   1.000  C
  H721     1.0000 0.43590  0.19230  0.18592  Biso   1.000  H
  H722     1.0000 0.42410  0.21261  0.12859  Biso   1.000  H
  H723     1.0000 0.46410  0.16619  0.13741  Biso   1.000  H
  N73      1.0000 0.34050  0.16940  0.16101  Biso   1.000  N
  C507     1.0000 0.39002  0.10499  0.10499  Biso   1.000  C
  C508     1.0000 0.38201  0.12600  0.09002  Biso   1.000  C
  H724     1.0000 0.41489  0.13671  0.17489  Biso   1.000  H
  C509     1.0000 0.39702  0.09899  0.18302  Biso   1.000  C
  C510     1.0000 0.31099  0.16000  0.19799  Biso   1.000  C
  C511     1.0000 0.38201  0.12398  0.16000  Biso   1.000  C
  N74      1.0000 0.34050  0.08062  0.08901  Biso   1.000  N
  H725     1.0000 0.41489  0.11331  0.07509  Biso   1.000  H
  C512     1.0000 0.39702  0.15099  0.06700  Biso   1.000  C
  C513     1.0000 0.43199  0.06801  0.10000  Biso   1.000  C
  H726     1.0000 0.36940  0.15482  0.06758  Biso   1.000  H
  H727     1.0000 0.36940  0.09520  0.18240  Biso   1.000  H
  H728     1.0000 0.36569  0.07691  0.18120  Biso   1.000  H
  H729     1.0000 0.40101  0.11168  0.21830  Biso   1.000  H
  H730     1.0000 0.42700  0.07841  0.17300  Biso   1.000  H
  C514     1.0000 0.26542  0.19199  0.21099  Biso   1.000  C
  H731     1.0000 0.31779  0.13099  0.21950  Biso   1.000  H
  C515     1.0000 0.31099  0.09002  0.05199  Biso   1.000  C
  H732     1.0000 0.36569  0.17311  0.06882  Biso   1.000  H
  H733     1.0000 0.40101  0.13830  0.03168  Biso   1.000  H
  H734     1.0000 0.42700  0.17161  0.07698  Biso   1.000  H
  H735     1.0000 0.43590  0.05772  0.06410  Biso   1.000  H
  H736     1.0000 0.42410  0.03741  0.12139  Biso   1.000  H
  H737     1.0000 0.46410  0.08379  0.11261  Biso   1.000  H
  C516     1.0000 0.23501  0.18000  0.25280  Biso   1.000  C
  C517     1.0000 0.25280  0.23501  0.18000  Biso   1.000  C
  C518     1.0000 0.26542  0.05799  0.03899  Biso   1.000  C
  H738     1.0000 0.31779  0.11899  0.03048  Biso   1.000  H
  H739     1.0000 0.24290  0.15099  0.27369  Biso   1.000  H
  C519     1.0000 0.19199  0.21099  0.26542  Biso   1.000  C
  H740     1.0000 0.27369  0.24290  0.15099  Biso   1.000  H
  C520     1.0000 0.21099  0.26542  0.19199  Biso   1.000  C
  C521     1.0000 0.25280  0.01501  0.07002  Biso   1.000  C
  C522     1.0000 0.23501  0.07002  0.99721  Biso   1.000  C
  C523     1.0000 0.18000  0.25280  0.23501  Biso   1.000  C
  C524     1.0000 0.16000  0.19799  0.31099  Biso   1.000  C
  C525     1.0000 0.19799  0.31099  0.16000  Biso   1.000  C
  H741     1.0000 0.27369  0.00712  0.09899  Biso   1.000  H
  C526     1.0000 0.21099  0.98460  0.05799  Biso   1.000  C
  H742     1.0000 0.24290  0.09899  0.97632  Biso   1.000  H
  C527     1.0000 0.19199  0.03899  0.98460  Biso   1.000  C
  H743     1.0000 0.15099  0.27369  0.24290  Biso   1.000  H
  N75      1.0000 0.16940  0.16101  0.34050  Biso   1.000  N
  H744     1.0000 0.13099  0.21950  0.31779  Biso   1.000  H
  N76      1.0000 0.16101  0.34050  0.16940  Biso   1.000  N
  H745     1.0000 0.21950  0.31779  0.13099  Biso   1.000  H
  C528     1.0000 0.18000  0.99721  0.01501  Biso   1.000  C
  C529     1.0000 0.19799  0.93903  0.09002  Biso   1.000  C
  C530     1.0000 0.16000  0.05199  0.93903  Biso   1.000  C
  C531     1.0000 0.14499  0.14499  0.39002  Biso   1.000  C
  C532     1.0000 0.12398  0.16000  0.38201  Biso   1.000  C
  C533     1.0000 0.14499  0.39002  0.14499  Biso   1.000  C
  C534     1.0000 0.16000  0.38201  0.12398  Biso   1.000  C
  H746     1.0000 0.15099  0.97632  0.00712  Biso   1.000  H
  N77      1.0000 0.16101  0.90952  0.08062  Biso   1.000  N
  H747     1.0000 0.21950  0.93222  0.11899  Biso   1.000  H
  N78      1.0000 0.16940  0.08901  0.90952  Biso   1.000  N
  H748     1.0000 0.13099  0.03048  0.93222  Biso   1.000  H
  C535     1.0000 0.10499  0.10499  0.39002  Biso   1.000  C
  C536     1.0000 0.12600  0.09002  0.38201  Biso   1.000  C
  H749     1.0000 0.13671  0.17489  0.41489  Biso   1.000  H
  C537     1.0000 0.09899  0.18302  0.39702  Biso   1.000  C
  C538     1.0000 0.18201  0.15002  0.43199  Biso   1.000  C
  H750     1.0000 0.09520  0.18240  0.36940  Biso   1.000  H
  C539     1.0000 0.10499  0.39002  0.10499  Biso   1.000  C
  C540     1.0000 0.09002  0.38201  0.12600  Biso   1.000  C
  H751     1.0000 0.17489  0.41489  0.13671  Biso   1.000  H
  C541     1.0000 0.18302  0.39702  0.09899  Biso   1.000  C
  C542     1.0000 0.15002  0.43199  0.18201  Biso   1.000  C
  H752     1.0000 0.18240  0.36940  0.09520  Biso   1.000  H
  C543     1.0000 0.14499  0.86000  0.10499  Biso   1.000  C
  C544     1.0000 0.16000  0.86801  0.12600  Biso   1.000  C
  C545     1.0000 0.14499  0.10499  0.86000  Biso   1.000  C
  C546     1.0000 0.12398  0.09002  0.86801  Biso   1.000  C
  N79      1.0000 0.08062  0.08901  0.34050  Biso   1.000  N
  H753     1.0000 0.11331  0.07509  0.41489  Biso   1.000  H
  C547     1.0000 0.15099  0.06700  0.39702  Biso   1.000  C
  C548     1.0000 0.06801  0.10000  0.43199  Biso   1.000  C
  H754     1.0000 0.15482  0.06758  0.36940  Biso   1.000  H
  H755     1.0000 0.07691  0.18120  0.36569  Biso   1.000  H
  H756     1.0000 0.11168  0.21830  0.40101  Biso   1.000  H
  H757     1.0000 0.07841  0.17300  0.42700  Biso   1.000  H
  H758     1.0000 0.19230  0.18592  0.43590  Biso   1.000  H
  H759     1.0000 0.21261  0.12859  0.42410  Biso   1.000  H
  H760     1.0000 0.16619  0.13741  0.46410  Biso   1.000  H
  N80      1.0000 0.08901  0.34050  0.08062  Biso   1.000  N
  H761     1.0000 0.07509  0.41489  0.11331  Biso   1.000  H
  C549     1.0000 0.06700  0.39702  0.15099  Biso   1.000  C
  C550     1.0000 0.10000  0.43199  0.06801  Biso   1.000  C
  H762     1.0000 0.06758  0.36940  0.15482  Biso   1.000  H
  H763     1.0000 0.18120  0.36569  0.07691  Biso   1.000  H
  H764     1.0000 0.21830  0.40101  0.11168  Biso   1.000  H
  H765     1.0000 0.17300  0.42700  0.07841  Biso   1.000  H
  H766     1.0000 0.18592  0.43590  0.19230  Biso   1.000  H
  H767     1.0000 0.12859  0.42410  0.21261  Biso   1.000  H
  H768     1.0000 0.13741  0.46410  0.16619  Biso   1.000  H
  C551     1.0000 0.10499  0.86000  0.14499  Biso   1.000  C
  C552     1.0000 0.09002  0.86801  0.12398  Biso   1.000  C
  H769     1.0000 0.17489  0.83513  0.11331  Biso   1.000  H
  C553     1.0000 0.18302  0.85300  0.15099  Biso   1.000  C
  C554     1.0000 0.15002  0.81803  0.06801  Biso   1.000  C
  H770     1.0000 0.18240  0.88062  0.15482  Biso   1.000  H
  C555     1.0000 0.10499  0.14499  0.86000  Biso   1.000  C
  C556     1.0000 0.12600  0.16000  0.86801  Biso   1.000  C
  H771     1.0000 0.13671  0.07509  0.83513  Biso   1.000  H
  C557     1.0000 0.09899  0.06700  0.85300  Biso   1.000  C
  C558     1.0000 0.18201  0.10000  0.81803  Biso   1.000  C
  H772     1.0000 0.09520  0.06758  0.88062  Biso   1.000  H
  C559     1.0000 0.09002  0.05199  0.31099  Biso   1.000  C
  H773     1.0000 0.17311  0.06882  0.36569  Biso   1.000  H
  H774     1.0000 0.13830  0.03168  0.40101  Biso   1.000  H
  H775     1.0000 0.17161  0.07698  0.42700  Biso   1.000  H
  H776     1.0000 0.05772  0.06410  0.43590  Biso   1.000  H
  H777     1.0000 0.03741  0.12139  0.42410  Biso   1.000  H
  H778     1.0000 0.08379  0.11261  0.46410  Biso   1.000  H
  C560     1.0000 0.05199  0.31099  0.09002  Biso   1.000  C
  H779     1.0000 0.06882  0.36569  0.17311  Biso   1.000  H
  H780     1.0000 0.03168  0.40101  0.13830  Biso   1.000  H
  H781     1.0000 0.07698  0.42700  0.17161  Biso   1.000  H
  H782     1.0000 0.06410  0.43590  0.05772  Biso   1.000  H
  H783     1.0000 0.12139  0.42410  0.03741  Biso   1.000  H
  H784     1.0000 0.11261  0.46410  0.08379  Biso   1.000  H
  N81      1.0000 0.08901  0.90952  0.16940  Biso   1.000  N
  H785     1.0000 0.07509  0.83513  0.13671  Biso   1.000  H
  C561     1.0000 0.06700  0.85300  0.09899  Biso   1.000  C
  C562     1.0000 0.10000  0.81803  0.18201  Biso   1.000  C
  H786     1.0000 0.06758  0.88062  0.09520  Biso   1.000  H
  H787     1.0000 0.18120  0.88433  0.17311  Biso   1.000  H
  H788     1.0000 0.21830  0.84901  0.13830  Biso   1.000  H
  H789     1.0000 0.17300  0.82302  0.17161  Biso   1.000  H
  H790     1.0000 0.18592  0.81412  0.05772  Biso   1.000  H
  H791     1.0000 0.12859  0.82592  0.03741  Biso   1.000  H
  H792     1.0000 0.13741  0.78592  0.08379  Biso   1.000  H
  N82      1.0000 0.08062  0.16101  0.90952  Biso   1.000  N
  H793     1.0000 0.11331  0.17489  0.83513  Biso   1.000  H
  C563     1.0000 0.15099  0.18302  0.85300  Biso   1.000  C
  C564     1.0000 0.06801  0.15002  0.81803  Biso   1.000  C
  H794     1.0000 0.15482  0.18240  0.88062  Biso   1.000  H
  H795     1.0000 0.07691  0.06882  0.88433  Biso   1.000  H
  H796     1.0000 0.11168  0.03168  0.84901  Biso   1.000  H
  H797     1.0000 0.07841  0.07698  0.82302  Biso   1.000  H
  H798     1.0000 0.19230  0.06410  0.81412  Biso   1.000  H
  H799     1.0000 0.21261  0.12139  0.82592  Biso   1.000  H
  H800     1.0000 0.16619  0.11261  0.78592  Biso   1.000  H
  C565     1.0000 0.05799  0.03899  0.26542  Biso   1.000  C
  H801     1.0000 0.11899  0.03048  0.31779  Biso   1.000  H
  C566     1.0000 0.03899  0.26542  0.05799  Biso   1.000  C
  H802     1.0000 0.03048  0.31779  0.11899  Biso   1.000  H
  C567     1.0000 0.05199  0.93903  0.16000  Biso   1.000  C
  H803     1.0000 0.06882  0.88433  0.07691  Biso   1.000  H
  H804     1.0000 0.03168  0.84901  0.11168  Biso   1.000  H
  H805     1.0000 0.07698  0.82302  0.07841  Biso   1.000  H
  H806     1.0000 0.06410  0.81412  0.19230  Biso   1.000  H
  H807     1.0000 0.12139  0.82592  0.21261  Biso   1.000  H
  H808     1.0000 0.11261  0.78592  0.16619  Biso   1.000  H
  C568     1.0000 0.09002  0.19799  0.93903  Biso   1.000  C
  H809     1.0000 0.17311  0.18120  0.88433  Biso   1.000  H
  H810     1.0000 0.13830  0.21830  0.84901  Biso   1.000  H
  H811     1.0000 0.17161  0.17300  0.82302  Biso   1.000  H
  H812     1.0000 0.05772  0.18592  0.81412  Biso   1.000  H
  H813     1.0000 0.03741  0.12859  0.82592  Biso   1.000  H
  H814     1.0000 0.08379  0.13741  0.78592  Biso   1.000  H
  C569     1.0000 0.01501  0.07002  0.25280  Biso   1.000  C
  C570     1.0000 0.07002  0.99721  0.23501  Biso   1.000  C
  C571     1.0000 0.07002  0.25280  0.01501  Biso   1.000  C
  C572     1.0000 0.99721  0.23501  0.07002  Biso   1.000  C
  C573     1.0000 0.03899  0.98460  0.19199  Biso   1.000  C
  H815     1.0000 0.03048  0.93222  0.13099  Biso   1.000  H
  C574     1.0000 0.05799  0.21099  0.98460  Biso   1.000  C
  H816     1.0000 0.11899  0.21950  0.93222  Biso   1.000  H
  H817     1.0000 0.00712  0.09899  0.27369  Biso   1.000  H
  C575     1.0000 0.98460  0.05799  0.21099  Biso   1.000  C
  H818     1.0000 0.09899  0.97632  0.24290  Biso   1.000  H
  H819     1.0000 0.09899  0.27369  0.00712  Biso   1.000  H
  H820     1.0000 0.97632  0.24290  0.09899  Biso   1.000  H
  C576     1.0000 0.98460  0.19199  0.03899  Biso   1.000  C
  C577     1.0000 0.99721  0.01501  0.18000  Biso   1.000  C
  C578     1.0000 0.01501  0.18000  0.99721  Biso   1.000  C
  C579     1.0000 0.93903  0.09002  0.19799  Biso   1.000  C
  C580     1.0000 0.93903  0.16000  0.05199  Biso   1.000  C
  H821     1.0000 0.97632  0.00712  0.15099  Biso   1.000  H
  H822     1.0000 0.00712  0.15099  0.97632  Biso   1.000  H
  N83      1.0000 0.90952  0.08062  0.16101  Biso   1.000  N
  H823     1.0000 0.93222  0.11899  0.21950  Biso   1.000  H
  N84      1.0000 0.90952  0.16940  0.08901  Biso   1.000  N
  H824     1.0000 0.93222  0.13099  0.03048  Biso   1.000  H
  C581     1.0000 0.86000  0.10499  0.14499  Biso   1.000  C
  C582     1.0000 0.86801  0.12600  0.16000  Biso   1.000  C
  C583     1.0000 0.86000  0.14499  0.10499  Biso   1.000  C
  C584     1.0000 0.86801  0.12398  0.09002  Biso   1.000  C
  H825     1.0000 0.83513  0.11331  0.17489  Biso   1.000  H
  C585     1.0000 0.85300  0.15099  0.18302  Biso   1.000  C
  C586     1.0000 0.81803  0.06801  0.15002  Biso   1.000  C
  H826     1.0000 0.88062  0.15482  0.18240  Biso   1.000  H
  H827     1.0000 0.83513  0.13671  0.07509  Biso   1.000  H
  C587     1.0000 0.85300  0.09899  0.06700  Biso   1.000  C
  C588     1.0000 0.81803  0.18201  0.10000  Biso   1.000  C
  H828     1.0000 0.88062  0.09520  0.06758  Biso   1.000  H
  H829     1.0000 0.88433  0.17311  0.18120  Biso   1.000  H
  H830     1.0000 0.84901  0.13830  0.21830  Biso   1.000  H
  H831     1.0000 0.82302  0.17161  0.17300  Biso   1.000  H
  H832     1.0000 0.81412  0.05772  0.18592  Biso   1.000  H
  H833     1.0000 0.82592  0.03741  0.12859  Biso   1.000  H
  H834     1.0000 0.78592  0.08379  0.13741  Biso   1.000  H
  H835     1.0000 0.88433  0.07691  0.06882  Biso   1.000  H
  H836     1.0000 0.84901  0.11168  0.03168  Biso   1.000  H
  H837     1.0000 0.82302  0.07841  0.07698  Biso   1.000  H
  H838     1.0000 0.81412  0.19230  0.06410  Biso   1.000  H
  H839     1.0000 0.82592  0.21261  0.12139  Biso   1.000  H
  H840     1.0000 0.78592  0.16619  0.11261  Biso   1.000  H
  C589     1.0000 0.85002  0.56801  0.81803  Biso   1.000  C
  C590     1.0000 0.85501  0.61002  0.85501  Biso   1.000  C
  H841     1.0000 0.81412  0.56410  0.80770  Biso   1.000  H
  H842     1.0000 0.87141  0.57590  0.78743  Biso   1.000  H
  H843     1.0000 0.86263  0.53590  0.83381  Biso   1.000  H
  N85      1.0000 0.83899  0.65950  0.83060  Biso   1.000  N
  C591     1.0000 0.89501  0.61002  0.89501  Biso   1.000  C
  C592     1.0000 0.91002  0.61803  0.87400  Biso   1.000  C
  H844     1.0000 0.82511  0.58511  0.86333  Biso   1.000  H
  C593     1.0000 0.81702  0.60302  0.90101  Biso   1.000  C
  C594     1.0000 0.80201  0.68901  0.84000  Biso   1.000  C
  C595     1.0000 0.84000  0.61803  0.87602  Biso   1.000  C
  N86      1.0000 0.91103  0.65950  0.91942  Biso   1.000  N
  H845     1.0000 0.92491  0.58511  0.88673  Biso   1.000  H
  C596     1.0000 0.93300  0.60302  0.84901  Biso   1.000  C
  C597     1.0000 0.90000  0.56801  0.93203  Biso   1.000  C
  H846     1.0000 0.93242  0.63060  0.84522  Biso   1.000  H
  H847     1.0000 0.81760  0.63060  0.90480  Biso   1.000  H
  H848     1.0000 0.81880  0.63431  0.92313  Biso   1.000  H
  H849     1.0000 0.78170  0.59899  0.88832  Biso   1.000  H
  H850     1.0000 0.82700  0.57300  0.92162  Biso   1.000  H
  C598     1.0000 0.78901  0.73462  0.80801  Biso   1.000  C
  H851     1.0000 0.78050  0.68221  0.86901  Biso   1.000  H
  C599     1.0000 0.94801  0.68901  0.91002  Biso   1.000  C
  H852     1.0000 0.93122  0.63431  0.82692  Biso   1.000  H
  H853     1.0000 0.96832  0.59899  0.86170  Biso   1.000  H
  H854     1.0000 0.92302  0.57300  0.82839  Biso   1.000  H
  H855     1.0000 0.93590  0.56410  0.94232  Biso   1.000  H
  H856     1.0000 0.87861  0.57590  0.96263  Biso   1.000  H
  H857     1.0000 0.88743  0.53590  0.91621  Biso   1.000  H
  C600     1.0000 0.74720  0.76503  0.82000  Biso   1.000  C
  C601     1.0000 0.82000  0.74720  0.76503  Biso   1.000  C
  C602     1.0000 0.96101  0.73462  0.94201  Biso   1.000  C
  H858     1.0000 0.96952  0.68221  0.88101  Biso   1.000  H
  H859     1.0000 0.72631  0.75710  0.84901  Biso   1.000  H
  C603     1.0000 0.73462  0.80801  0.78901  Biso   1.000  C
  H860     1.0000 0.84901  0.72631  0.75710  Biso   1.000  H
  C604     1.0000 0.80801  0.78901  0.73462  Biso   1.000  C
  C605     1.0000 0.93002  0.74720  0.98503  Biso   1.000  C
  C606     1.0000 0.00279  0.76503  0.93002  Biso   1.000  C
  C607     1.0000 0.76503  0.82000  0.74720  Biso   1.000  C
  C608     1.0000 0.68901  0.84000  0.80201  Biso   1.000  C
  C609     1.0000 0.84000  0.80201  0.68901  Biso   1.000  C
  H861     1.0000 0.90101  0.72631  0.99292  Biso   1.000  H
  C610     1.0000 0.94201  0.78901  0.01540  Biso   1.000  C
  H862     1.0000 0.02371  0.75710  0.90101  Biso   1.000  H
  C611     1.0000 0.01540  0.80801  0.96101  Biso   1.000  C
  H863     1.0000 0.75710  0.84901  0.72631  Biso   1.000  H
  N87      1.0000 0.65950  0.83060  0.83899  Biso   1.000  N
  H864     1.0000 0.68221  0.86901  0.78050  Biso   1.000  H
  N88      1.0000 0.83060  0.83899  0.65950  Biso   1.000  N
  H865     1.0000 0.86901  0.78050  0.68221  Biso   1.000  H
  C612     1.0000 0.98503  0.82000  0.00279  Biso   1.000  C
  C613     1.0000 0.91002  0.80201  0.06101  Biso   1.000  C
  C614     1.0000 0.06101  0.84000  0.94801  Biso   1.000  C
  C615     1.0000 0.61002  0.85501  0.85501  Biso   1.000  C
  C616     1.0000 0.61803  0.87602  0.84000  Biso   1.000  C
  C617     1.0000 0.85501  0.85501  0.61002  Biso   1.000  C
  C618     1.0000 0.87602  0.84000  0.61803  Biso   1.000  C
  H866     1.0000 0.99292  0.84901  0.02371  Biso   1.000  H
  N89      1.0000 0.91942  0.83899  0.09048  Biso   1.000  N
  H867     1.0000 0.88101  0.78050  0.06781  Biso   1.000  H
  N90      1.0000 0.09048  0.83060  0.91103  Biso   1.000  N
  H868     1.0000 0.06781  0.86901  0.96952  Biso   1.000  H
  C619     1.0000 0.61002  0.89501  0.89501  Biso   1.000  C
  C620     1.0000 0.61803  0.87400  0.91002  Biso   1.000  C
  H869     1.0000 0.58511  0.86333  0.82511  Biso   1.000  H
  C621     1.0000 0.60302  0.90101  0.81702  Biso   1.000  C
  C622     1.0000 0.56801  0.81803  0.85002  Biso   1.000  C
  H870     1.0000 0.63060  0.90480  0.81760  Biso   1.000  H
  C623     1.0000 0.89501  0.89501  0.61002  Biso   1.000  C
  C624     1.0000 0.87400  0.91002  0.61803  Biso   1.000  C
  H871     1.0000 0.86333  0.82511  0.58511  Biso   1.000  H
  C625     1.0000 0.90101  0.81702  0.60302  Biso   1.000  C
  C626     1.0000 0.81803  0.85002  0.56801  Biso   1.000  C
  H872     1.0000 0.90480  0.81760  0.63060  Biso   1.000  H
  C627     1.0000 0.89501  0.85501  0.14000  Biso   1.000  C
  C628     1.0000 0.87400  0.84000  0.13199  Biso   1.000  C
  C629     1.0000 0.14000  0.85501  0.89501  Biso   1.000  C
  C630     1.0000 0.13199  0.87602  0.91002  Biso   1.000  C
  N91      1.0000 0.65950  0.91942  0.91103  Biso   1.000  N
  H873     1.0000 0.58511  0.88673  0.92491  Biso   1.000  H
  C631     1.0000 0.60302  0.84901  0.93300  Biso   1.000  C
  C632     1.0000 0.56801  0.93203  0.90000  Biso   1.000  C
  H874     1.0000 0.63060  0.84522  0.93242  Biso   1.000  H
  H875     1.0000 0.63431  0.92313  0.81880  Biso   1.000  H
  H876     1.0000 0.59899  0.88832  0.78170  Biso   1.000  H
  H877     1.0000 0.57300  0.92162  0.82700  Biso   1.000  H
  H878     1.0000 0.56410  0.80770  0.81412  Biso   1.000  H
  H879     1.0000 0.57590  0.78743  0.87141  Biso   1.000  H
  H880     1.0000 0.53590  0.83381  0.86263  Biso   1.000  H
  N92      1.0000 0.91942  0.91103  0.65950  Biso   1.000  N
  H881     1.0000 0.88673  0.92491  0.58511  Biso   1.000  H
  C633     1.0000 0.84901  0.93300  0.60302  Biso   1.000  C
  C634     1.0000 0.93203  0.90000  0.56801  Biso   1.000  C
  H882     1.0000 0.84522  0.93242  0.63060  Biso   1.000  H
  H883     1.0000 0.92313  0.81880  0.63431  Biso   1.000  H
  H884     1.0000 0.88832  0.78170  0.59899  Biso   1.000  H
  H885     1.0000 0.92162  0.82700  0.57300  Biso   1.000  H
  H886     1.0000 0.80770  0.81412  0.56410  Biso   1.000  H
  H887     1.0000 0.78743  0.87141  0.57590  Biso   1.000  H
  H888     1.0000 0.83381  0.86263  0.53590  Biso   1.000  H
  C635     1.0000 0.85501  0.89501  0.14000  Biso   1.000  C
  C636     1.0000 0.87602  0.91002  0.13199  Biso   1.000  C
  H889     1.0000 0.88673  0.82511  0.16491  Biso   1.000  H
  C637     1.0000 0.84901  0.81702  0.14700  Biso   1.000  C
  C638     1.0000 0.93203  0.85002  0.18201  Biso   1.000  C
  H890     1.0000 0.84522  0.81760  0.11942  Biso   1.000  H
  C639     1.0000 0.14000  0.89501  0.85501  Biso   1.000  C
  C640     1.0000 0.13199  0.87400  0.84000  Biso   1.000  C
  H891     1.0000 0.16491  0.86333  0.92491  Biso   1.000  H
  C641     1.0000 0.14700  0.90101  0.93300  Biso   1.000  C
  C642     1.0000 0.18201  0.81803  0.90000  Biso   1.000  C
  H892     1.0000 0.11942  0.90480  0.93242  Biso   1.000  H
  C643     1.0000 0.68901  0.91002  0.94801  Biso   1.000  C
  H893     1.0000 0.63431  0.82692  0.93122  Biso   1.000  H
  H894     1.0000 0.59899  0.86170  0.96832  Biso   1.000  H
  H895     1.0000 0.57300  0.82839  0.92302  Biso   1.000  H
  H896     1.0000 0.56410  0.94232  0.93590  Biso   1.000  H
  H897     1.0000 0.57590  0.96263  0.87861  Biso   1.000  H
  H898     1.0000 0.53590  0.91621  0.88743  Biso   1.000  H
  C644     1.0000 0.91002  0.94801  0.68901  Biso   1.000  C
  H899     1.0000 0.82692  0.93122  0.63431  Biso   1.000  H
  H900     1.0000 0.86170  0.96832  0.59899  Biso   1.000  H
  H901     1.0000 0.82839  0.92302  0.57300  Biso   1.000  H
  H902     1.0000 0.94232  0.93590  0.56410  Biso   1.000  H
  H903     1.0000 0.96263  0.87861  0.57590  Biso   1.000  H
  H904     1.0000 0.91621  0.88743  0.53590  Biso   1.000  H
  N93      1.0000 0.83060  0.91103  0.09048  Biso   1.000  N
  H905     1.0000 0.86333  0.92491  0.16491  Biso   1.000  H
  C645     1.0000 0.90101  0.93300  0.14700  Biso   1.000  C
  C646     1.0000 0.81803  0.90000  0.18201  Biso   1.000  C
  H906     1.0000 0.90480  0.93242  0.11942  Biso   1.000  H
  H907     1.0000 0.82692  0.81880  0.11571  Biso   1.000  H
  H908     1.0000 0.86170  0.78170  0.15099  Biso   1.000  H
  H909     1.0000 0.82839  0.82700  0.17702  Biso   1.000  H
  H910     1.0000 0.94232  0.81412  0.18592  Biso   1.000  H
  H911     1.0000 0.96263  0.87141  0.17412  Biso   1.000  H
  H912     1.0000 0.91621  0.86263  0.21412  Biso   1.000  H
  N94      1.0000 0.09048  0.91942  0.83899  Biso   1.000  N
  H913     1.0000 0.16491  0.88673  0.82511  Biso   1.000  H
  C647     1.0000 0.14700  0.84901  0.81702  Biso   1.000  C
  C648     1.0000 0.18201  0.93203  0.85002  Biso   1.000  C
  H914     1.0000 0.11942  0.84522  0.81760  Biso   1.000  H
  H915     1.0000 0.11571  0.92313  0.93122  Biso   1.000  H
  H916     1.0000 0.15099  0.88832  0.96832  Biso   1.000  H
  H917     1.0000 0.17702  0.92162  0.92302  Biso   1.000  H
  H918     1.0000 0.18592  0.80770  0.93590  Biso   1.000  H
  H919     1.0000 0.17412  0.78743  0.87861  Biso   1.000  H
  H920     1.0000 0.21412  0.83381  0.88743  Biso   1.000  H
  C649     1.0000 0.73462  0.94201  0.96101  Biso   1.000  C
  H921     1.0000 0.68221  0.88101  0.96952  Biso   1.000  H
  C650     1.0000 0.94201  0.96101  0.73462  Biso   1.000  C
  H922     1.0000 0.88101  0.96952  0.68221  Biso   1.000  H
  C651     1.0000 0.84000  0.94801  0.06101  Biso   1.000  C
  H923     1.0000 0.92313  0.93122  0.11571  Biso   1.000  H
  H924     1.0000 0.88832  0.96832  0.15099  Biso   1.000  H
  H925     1.0000 0.92162  0.92302  0.17702  Biso   1.000  H
  H926     1.0000 0.80770  0.93590  0.18592  Biso   1.000  H
  H927     1.0000 0.78743  0.87861  0.17412  Biso   1.000  H
  H928     1.0000 0.83381  0.88743  0.21412  Biso   1.000  H
  C652     1.0000 0.06101  0.91002  0.80201  Biso   1.000  C
  H929     1.0000 0.11571  0.82692  0.81880  Biso   1.000  H
  H930     1.0000 0.15099  0.86170  0.78170  Biso   1.000  H
  H931     1.0000 0.17702  0.82839  0.82700  Biso   1.000  H
  H932     1.0000 0.18592  0.94232  0.81412  Biso   1.000  H
  H933     1.0000 0.17412  0.96263  0.87141  Biso   1.000  H
  H934     1.0000 0.21412  0.91621  0.86263  Biso   1.000  H
  C653     1.0000 0.74720  0.98503  0.93002  Biso   1.000  C
  C654     1.0000 0.76503  0.93002  0.00279  Biso   1.000  C
  C655     1.0000 0.98503  0.93002  0.74720  Biso   1.000  C
  C656     1.0000 0.93002  0.00279  0.76503  Biso   1.000  C
  C657     1.0000 0.80801  0.96101  0.01540  Biso   1.000  C
  H935     1.0000 0.86901  0.96952  0.06781  Biso   1.000  H
  C658     1.0000 0.01540  0.94201  0.78901  Biso   1.000  C
  H936     1.0000 0.06781  0.88101  0.78050  Biso   1.000  H
  H937     1.0000 0.72631  0.99292  0.90101  Biso   1.000  H
  C659     1.0000 0.78901  0.01540  0.94201  Biso   1.000  C
  H938     1.0000 0.75710  0.90101  0.02371  Biso   1.000  H
  H939     1.0000 0.99292  0.90101  0.72631  Biso   1.000  H
  H940     1.0000 0.90101  0.02371  0.75710  Biso   1.000  H
  C660     1.0000 0.96101  0.01540  0.80801  Biso   1.000  C
  C661     1.0000 0.82000  0.00279  0.98503  Biso   1.000  C
  C662     1.0000 0.00279  0.98503  0.82000  Biso   1.000  C
  C663     1.0000 0.80201  0.06101  0.91002  Biso   1.000  C
  C664     1.0000 0.94801  0.06101  0.84000  Biso   1.000  C
  H941     1.0000 0.84901  0.02371  0.99292  Biso   1.000  H
  H942     1.0000 0.02371  0.99292  0.84901  Biso   1.000  H
  N95      1.0000 0.83899  0.09048  0.91942  Biso   1.000  N
  H943     1.0000 0.78050  0.06781  0.88101  Biso   1.000  H
  N96      1.0000 0.91103  0.09048  0.83060  Biso   1.000  N
  H944     1.0000 0.96952  0.06781  0.86901  Biso   1.000  H
  C665     1.0000 0.85501  0.14000  0.89501  Biso   1.000  C
  C666     1.0000 0.84000  0.13199  0.87400  Biso   1.000  C
  C667     1.0000 0.89501  0.14000  0.85501  Biso   1.000  C
  C668     1.0000 0.91002  0.13199  0.87602  Biso   1.000  C
  H945     1.0000 0.82511  0.16491  0.88673  Biso   1.000  H
  C669     1.0000 0.81702  0.14700  0.84901  Biso   1.000  C
  C670     1.0000 0.85002  0.18201  0.93203  Biso   1.000  C
  H946     1.0000 0.81760  0.11942  0.84522  Biso   1.000  H
  H947     1.0000 0.92491  0.16491  0.86333  Biso   1.000  H
  C671     1.0000 0.93300  0.14700  0.90101  Biso   1.000  C
  C672     1.0000 0.90000  0.18201  0.81803  Biso   1.000  C
  H948     1.0000 0.93242  0.11942  0.90480  Biso   1.000  H
  H949     1.0000 0.81880  0.11571  0.82692  Biso   1.000  H
  H950     1.0000 0.78170  0.15099  0.86170  Biso   1.000  H
  H951     1.0000 0.82700  0.17702  0.82839  Biso   1.000  H
  H952     1.0000 0.81412  0.18592  0.94232  Biso   1.000  H
  H953     1.0000 0.87141  0.17412  0.96263  Biso   1.000  H
  H954     1.0000 0.86263  0.21412  0.91621  Biso   1.000  H
  H955     1.0000 0.93122  0.11571  0.92313  Biso   1.000  H
  H956     1.0000 0.96832  0.15099  0.88832  Biso   1.000  H
  H957     1.0000 0.92302  0.17702  0.92162  Biso   1.000  H
  H958     1.0000 0.93590  0.18592  0.80770  Biso   1.000  H
  H959     1.0000 0.87861  0.17412  0.78743  Biso   1.000  H
  H960     1.0000 0.88743  0.21412  0.83381  Biso   1.000  H
