data_image0
_cell_length_a       34.886
_cell_length_b       34.886
_cell_length_c       19.888
_cell_angle_alpha    90
_cell_angle_beta     90
_cell_angle_gamma    90

_symmetry_space_group_name_H-M    "P 1"
_symmetry_int_tables_number       1

loop_
  _symmetry_equiv_pos_as_xyz
  'x, y, z'

loop_
  _atom_site_label
  _atom_site_occupancy
  _atom_site_fract_x
  _atom_site_fract_y
  _atom_site_fract_z
  _atom_site_thermal_displace_type
  _atom_site_B_iso_or_equiv
  _atom_site_type_symbol
  C1       1.0000 0.66029  0.57338  0.44042  Biso   1.000  C
  C2       1.0000 0.63289  0.57269  0.48849  Biso   1.000  C
  C3       1.0000 0.67850  0.60420  0.41452  Biso   1.000  C
  H1       1.0000 0.66749  0.54979  0.42292  Biso   1.000  H
  C4       1.0000 0.61228  0.53729  0.51141  Biso   1.000  C
  C5       1.0000 0.62208  0.60749  0.52122  Biso   1.000  C
  C6       1.0000 0.66399  0.63928  0.44620  Biso   1.000  C
  N1       1.0000 0.70449  0.60050  0.36293  Biso   1.000  N
  C7       1.0000 0.58680  0.52279  0.43971  Biso   1.000  C
  H2       1.0000 0.59508  0.54300  0.54832  Biso   1.000  H
  H3       1.0000 0.63028  0.51769  0.52549  Biso   1.000  H
  C8       1.0000 0.63639  0.64120  0.49909  Biso   1.000  C
  O1       1.0000 0.59629  0.61079  0.57220  Biso   1.000  O
  H4       1.0000 0.67368  0.66239  0.43041  Biso   1.000  H
  S1       1.0000 0.73941  0.62621  0.35021  Biso   1.000  S
  C9       1.0000 0.55871  0.53600  0.40200  Biso   1.000  C
  C10      1.0000 0.61070  0.48919  0.41719  Biso   1.000  C
  C11      1.0000 0.62590  0.68199  0.52333  Biso   1.000  C
  C12      1.0000 0.61678  0.60701  0.63732  Biso   1.000  C
  O2       1.0000 0.75629  0.63730  0.41040  Biso   1.000  O
  O3       1.0000 0.76039  0.60589  0.30018  Biso   1.000  O
  C13      1.0000 0.72209  0.66869  0.31592  Biso   1.000  C
  C14      1.0000 0.55188  0.52801  0.33980  Biso   1.000  C
  O4       1.0000 0.54348  0.56868  0.44429  Biso   1.000  O
  C15      1.0000 0.60380  0.47280  0.35499  Biso   1.000  C
  H5       1.0000 0.62999  0.47959  0.44479  Biso   1.000  H
  C16      1.0000 0.61099  0.70710  0.46591  Biso   1.000  C
  H6       1.0000 0.60640  0.68019  0.55792  Biso   1.000  H
  H7       1.0000 0.64840  0.69389  0.54289  Biso   1.000  H
  H8       1.0000 0.63659  0.62638  0.64169  Biso   1.000  H
  H9       1.0000 0.62850  0.58178  0.64139  Biso   1.000  H
  C17      1.0000 0.58568  0.61248  0.68911  Biso   1.000  C
  C18      1.0000 0.70240  0.66780  0.25453  Biso   1.000  C
  C19      1.0000 0.72619  0.70538  0.34272  Biso   1.000  C
  C20      1.0000 0.52330  0.54658  0.31139  Biso   1.000  C
  C21      1.0000 0.57490  0.49149  0.32230  Biso   1.000  C
  C22      1.0000 0.50659  0.55719  0.47702  Biso   1.000  C
  H10      1.0000 0.61710  0.45179  0.33809  Biso   1.000  H
  C23      1.0000 0.58029  0.69658  0.42930  Biso   1.000  C
  C24      1.0000 0.63108  0.73861  0.44343  Biso   1.000  C
  H11      1.0000 0.57249  0.58860  0.69861  Biso   1.000  H
  H12      1.0000 0.56719  0.63160  0.67493  Biso   1.000  H
  H13      1.0000 0.69819  0.64410  0.23451  Biso   1.000  H
  C25      1.0000 0.68930  0.69850  0.22310  Biso   1.000  C
  C26      1.0000 0.71229  0.73800  0.31532  Biso   1.000  C
  H14      1.0000 0.73970  0.70771  0.38279  Biso   1.000  H
  C27      1.0000 0.54348  0.58728  0.29128  Biso   1.000  C
  H15      1.0000 0.50229  0.55039  0.34262  Biso   1.000  H
  H16      1.0000 0.51399  0.53319  0.27182  Biso   1.000  H
  H17      1.0000 0.56779  0.48011  0.28183  Biso   1.000  H
  H18      1.0000 0.49960  0.53110  0.46561  Biso   1.000  H
  H19      1.0000 0.48578  0.57439  0.46460  Biso   1.000  H
  C28      1.0000 0.51820  0.56100  0.55104  Biso   1.000  C
  C29      1.0000 0.56988  0.71599  0.36781  Biso   1.000  C
  O5       1.0000 0.55719  0.66649  0.45153  Biso   1.000  O
  C30      1.0000 0.62289  0.75870  0.38722  Biso   1.000  C
  H20      1.0000 0.65198  0.74660  0.46893  Biso   1.000  H
  H21      1.0000 0.67830  0.69590  0.18071  Biso   1.000  H
  C31      1.0000 0.69160  0.73528  0.25241  Biso   1.000  C
  H22      1.0000 0.71590  0.76148  0.33628  Biso   1.000  H
  C32      1.0000 0.57619  0.58780  0.24960  Biso   1.000  C
  C33      1.0000 0.52990  0.62240  0.30918  Biso   1.000  C
  H23      1.0000 0.53669  0.58138  0.56019  Biso   1.000  H
  H24      1.0000 0.52391  0.53758  0.57391  Biso   1.000  H
  C34      1.0000 0.47380  0.57450  0.55199  Biso   1.000  C
  C35      1.0000 0.53580  0.69549  0.32613  Biso   1.000  C
  C36      1.0000 0.59219  0.74890  0.35092  Biso   1.000  C
  C37      1.0000 0.53010  0.67560  0.50930  Biso   1.000  C
  H25      1.0000 0.63828  0.77908  0.37399  Biso   1.000  H
  C38      1.0000 0.67328  0.77168  0.22461  Biso   1.000  C
  C39      1.0000 0.59620  0.62079  0.23180  Biso   1.000  C
  H26      1.0000 0.58491  0.56450  0.23290  Biso   1.000  H
  C40      1.0000 0.55068  0.65640  0.29581  Biso   1.000  C
  O6       1.0000 0.49510  0.62719  0.34372  Biso   1.000  O
  H27      1.0000 0.45821  0.55349  0.56692  Biso   1.000  H
  H28      1.0000 0.46600  0.58230  0.50789  Biso   1.000  H
  H29      1.0000 0.47079  0.59568  0.58271  Biso   1.000  H
  H30      1.0000 0.51419  0.69068  0.35569  Biso   1.000  H
  H31      1.0000 0.52729  0.71221  0.29012  Biso   1.000  H
  H32      1.0000 0.58531  0.76369  0.31401  Biso   1.000  H
  H33      1.0000 0.54219  0.69429  0.53852  Biso   1.000  H
  H34      1.0000 0.52588  0.65250  0.53540  Biso   1.000  H
  C41      1.0000 0.48939  0.69208  0.48532  Biso   1.000  C
  C42      1.0000 0.64040  0.76698  0.18302  Biso   1.000  C
  C43      1.0000 0.68489  0.80780  0.24261  Biso   1.000  C
  N2       1.0000 0.62850  0.61850  0.18991  Biso   1.000  N
  C44      1.0000 0.58350  0.65470  0.25618  Biso   1.000  C
  C45      1.0000 0.45821  0.63819  0.30058  Biso   1.000  C
  H35      1.0000 0.49309  0.71490  0.45822  Biso   1.000  H
  H36      1.0000 0.47629  0.67308  0.45801  Biso   1.000  H
  C46      1.0000 0.46480  0.70189  0.54802  Biso   1.000  C
  H37      1.0000 0.63229  0.74219  0.17332  Biso   1.000  H
  C47      1.0000 0.61879  0.79849  0.15502  Biso   1.000  C
  H38      1.0000 0.70510  0.81038  0.27263  Biso   1.000  H
  C48      1.0000 0.66680  0.84160  0.21671  Biso   1.000  C
  S2       1.0000 0.62438  0.63550  0.11399  Biso   1.000  S
  H39      1.0000 0.59680  0.67709  0.24648  Biso   1.000  H
  H40      1.0000 0.45998  0.66468  0.28640  Biso   1.000  H
  H41      1.0000 0.45709  0.62228  0.26071  Biso   1.000  H
  C49      1.0000 0.42180  0.63249  0.34202  Biso   1.000  C
  H42      1.0000 0.44021  0.71109  0.53389  Biso   1.000  H
  H43      1.0000 0.47750  0.72129  0.57401  Biso   1.000  H
  H44      1.0000 0.46159  0.67930  0.57502  Biso   1.000  H
  C50      1.0000 0.63530  0.83420  0.17443  Biso   1.000  C
  H45      1.0000 0.59709  0.79579  0.12812  Biso   1.000  H
  H46      1.0000 0.67520  0.86619  0.22692  Biso   1.000  H
  C51      1.0000 0.58419  0.61469  0.07562  Biso   1.000  C
  O7       1.0000 0.61348  0.67620  0.11922  Biso   1.000  O
  O8       1.0000 0.65998  0.62498  0.08161  Biso   1.000  O
  H47      1.0000 0.42249  0.65109  0.37832  Biso   1.000  H
  H48      1.0000 0.40030  0.63948  0.31341  Biso   1.000  H
  C52      1.0000 0.41461  0.60299  0.36600  Biso   1.000  C
  S3       1.0000 0.61449  0.87436  0.13601  Biso   1.000  S
  C53      1.0000 0.54850  0.63120  0.09498  Biso   1.000  C
  C54      1.0000 0.59158  0.58319  0.03329  Biso   1.000  C
  H49      1.0000 0.39231  0.60520  0.39401  Biso   1.000  H
  H50      1.0000 0.43591  0.59431  0.39270  Biso   1.000  H
  H51      1.0000 0.40959  0.58439  0.33110  Biso   1.000  H
  N3       1.0000 0.63149  0.87849  0.06009  Biso   1.000  N
  O9       1.0000 0.57378  0.86350  0.13078  Biso   1.000  O
  O10      1.0000 0.62498  0.90999  0.16839  Biso   1.000  O
  C55      1.0000 0.51700  0.60959  0.06703  Biso   1.000  C
  H52      1.0000 0.54581  0.65290  0.12188  Biso   1.000  H
  C56      1.0000 0.55779  0.56510  0.00739  Biso   1.000  C
  H53      1.0000 0.61621  0.57479  0.02308  Biso   1.000  H
  C57      1.0000 0.62919  0.84618  0.01820  Biso   1.000  C
  C58      1.0000 0.52170  0.57671  0.02539  Biso   1.000  C
  H54      1.0000 0.49220  0.61770  0.07668  Biso   1.000  H
  H55      1.0000 0.56040  0.54489  0.97742  Biso   1.000  H
  C59      1.0000 0.59528  0.83349  0.99382  Biso   1.000  C
  C60      1.0000 0.66219  0.82618  0.00040  Biso   1.000  C
  C61      1.0000 0.48529  0.55839  0.99764  Biso   1.000  C
  C62      1.0000 0.59359  0.80069  0.95424  Biso   1.000  C
  H56      1.0000 0.57289  0.84679  0.00352  Biso   1.000  H
  C63      1.0000 0.66270  0.79350  0.95872  Biso   1.000  C
  H57      1.0000 0.68549  0.83489  0.01710  Biso   1.000  H
  C64      1.0000 0.44849  0.56068  0.02690  Biso   1.000  C
  C65      1.0000 0.48799  0.53769  0.93473  Biso   1.000  C
  C66      1.0000 0.55449  0.78579  0.92392  Biso   1.000  C
  C67      1.0000 0.62759  0.77988  0.94082  Biso   1.000  C
  C68      1.0000 0.70341  0.77329  0.93861  Biso   1.000  C
  C69      1.0000 0.41779  0.54758  0.99552  Biso   1.000  C
  H58      1.0000 0.44588  0.57169  0.06929  Biso   1.000  H
  C70      1.0000 0.45540  0.52379  0.90733  Biso   1.000  C
  H59      1.0000 0.51149  0.53408  0.91372  Biso   1.000  H
  C71      1.0000 0.53400  0.81990  0.88224  Biso   1.000  C
  H60      1.0000 0.55931  0.76420  0.89431  Biso   1.000  H
  H61      1.0000 0.53778  0.77730  0.95993  Biso   1.000  H
  O11      1.0000 0.62280  0.74508  0.90633  Biso   1.000  O
  C72      1.0000 0.72198  0.80190  0.91020  Biso   1.000  C
  H62      1.0000 0.69959  0.75228  0.90743  Biso   1.000  H
  H63      1.0000 0.71679  0.76400  0.97823  Biso   1.000  H
  C73      1.0000 0.41871  0.52789  0.93413  Biso   1.000  C
  H64      1.0000 0.39408  0.55180  0.01549  Biso   1.000  H
  H65      1.0000 0.45769  0.51029  0.86721  Biso   1.000  H
  C74      1.0000 0.55340  0.83030  0.82070  Biso   1.000  C
  C75      1.0000 0.50109  0.84220  0.89914  Biso   1.000  C
  C76      1.0000 0.61179  0.70819  0.94942  Biso   1.000  C
  C77      1.0000 0.71398  0.80869  0.84800  Biso   1.000  C
  C78      1.0000 0.75850  0.82489  0.92770  Biso   1.000  C
  S4       1.0000 0.37623  0.51058  0.89984  Biso   1.000  S
  C79      1.0000 0.54288  0.86100  0.78409  Biso   1.000  C
  O12      1.0000 0.58350  0.80720  0.79852  Biso   1.000  O
  C80      1.0000 0.49129  0.87290  0.86283  Biso   1.000  C
  H66      1.0000 0.48630  0.83529  0.93604  Biso   1.000  H
  H67      1.0000 0.58531  0.71000  0.96360  Biso   1.000  H
  H68      1.0000 0.62770  0.70710  0.98934  Biso   1.000  H
  C81      1.0000 0.61750  0.67179  0.90803  Biso   1.000  C
  C82      1.0000 0.72720  0.83678  0.81034  Biso   1.000  C
  O13      1.0000 0.68130  0.79350  0.80571  Biso   1.000  O
  C83      1.0000 0.77719  0.85378  0.89501  Biso   1.000  C
  H69      1.0000 0.76988  0.81778  0.96822  Biso   1.000  H
  N4       1.0000 0.35048  0.54549  0.88712  Biso   1.000  N
  O14      1.0000 0.38729  0.49369  0.83960  Biso   1.000  O
  O15      1.0000 0.35590  0.48959  0.94982  Biso   1.000  O
  C84      1.0000 0.56799  0.87588  0.72672  Biso   1.000  C
  C85      1.0000 0.51138  0.88110  0.80662  Biso   1.000  C
  C86      1.0000 0.57439  0.78008  0.74070  Biso   1.000  C
  H70      1.0000 0.47091  0.88829  0.87601  Biso   1.000  H
  H71      1.0000 0.59889  0.67250  0.87173  Biso   1.000  H
  H72      1.0000 0.61050  0.65029  0.93659  Biso   1.000  H
  C87      1.0000 0.64699  0.66459  0.88400  Biso   1.000  C
  C88      1.0000 0.71269  0.86229  0.73864  Biso   1.000  C
  C89      1.0000 0.76079  0.86069  0.83281  Biso   1.000  C
  C90      1.0000 0.69280  0.75658  0.77303  Biso   1.000  C
  H73      1.0000 0.79820  0.86708  0.91191  Biso   1.000  H
  C91      1.0000 0.35418  0.57149  0.83553  Biso   1.000  C
  C92      1.0000 0.60878  0.88640  0.75091  Biso   1.000  C
  H74      1.0000 0.56980  0.85639  0.69213  Biso   1.000  H
  H75      1.0000 0.55610  0.89838  0.70711  Biso   1.000  H
  H76      1.0000 0.50338  0.90200  0.78112  Biso   1.000  H
  H77      1.0000 0.55570  0.79218  0.71153  Biso   1.000  H
  H78      1.0000 0.59749  0.77590  0.71460  Biso   1.000  H
  C93      1.0000 0.55790  0.73938  0.76473  Biso   1.000  C
  H79      1.0000 0.64479  0.64229  0.85599  Biso   1.000  H
  H80      1.0000 0.65568  0.68589  0.85730  Biso   1.000  H
  H81      1.0000 0.66560  0.65961  0.91890  Biso   1.000  H
  C94      1.0000 0.67729  0.88288  0.76151  Biso   1.000  C
  H82      1.0000 0.70699  0.84510  0.70173  Biso   1.000  H
  H83      1.0000 0.73230  0.88030  0.72451  Biso   1.000  H
  H84      1.0000 0.77040  0.87998  0.80521  Biso   1.000  H
  H85      1.0000 0.71888  0.74958  0.78439  Biso   1.000  H
  H86      1.0000 0.67560  0.73580  0.78540  Biso   1.000  H
  C95      1.0000 0.68899  0.76819  0.69901  Biso   1.000  C
  C96      1.0000 0.32340  0.58969  0.80963  Biso   1.000  C
  C97      1.0000 0.38930  0.58599  0.80380  Biso   1.000  C
  C98      1.0000 0.61070  0.91398  0.80380  Biso   1.000  C
  C99      1.0000 0.64249  0.87210  0.72883  Biso   1.000  C
  H87      1.0000 0.53509  0.74308  0.79183  Biso   1.000  H
  H88      1.0000 0.57691  0.72628  0.79204  Biso   1.000  H
  C100     1.0000 0.54810  0.71479  0.70203  Biso   1.000  C
  C101     1.0000 0.67660  0.91028  0.80963  Biso   1.000  C
  H89      1.0000 0.66861  0.78671  0.68981  Biso   1.000  H
  H90      1.0000 0.71241  0.77389  0.67614  Biso   1.000  H
  C102     1.0000 0.67549  0.72379  0.69801  Biso   1.000  C
  C103     1.0000 0.32271  0.61710  0.76151  Biso   1.000  C
  H91      1.0000 0.29981  0.58250  0.82713  Biso   1.000  H
  C104     1.0000 0.39119  0.61360  0.75091  Biso   1.000  C
  H92      1.0000 0.41240  0.57631  0.81964  Biso   1.000  H
  C105     1.0000 0.64579  0.92848  0.83553  Biso   1.000  C
  H93      1.0000 0.58760  0.92369  0.81964  Biso   1.000  H
  O16      1.0000 0.63920  0.84630  0.67780  Biso   1.000  O
  H94      1.0000 0.53890  0.69019  0.71611  Biso   1.000  H
  H95      1.0000 0.52869  0.72748  0.67604  Biso   1.000  H
  H96      1.0000 0.57069  0.71160  0.67503  Biso   1.000  H
  H97      1.0000 0.70019  0.91750  0.82713  Biso   1.000  H
  H98      1.0000 0.69650  0.70819  0.68313  Biso   1.000  H
  H99      1.0000 0.66769  0.71599  0.74211  Biso   1.000  H
  H100     1.0000 0.65430  0.72080  0.66734  Biso   1.000  H
  C106     1.0000 0.28731  0.63771  0.73864  Biso   1.000  C
  C107     1.0000 0.35751  0.62790  0.72883  Biso   1.000  C
  C108     1.0000 0.43201  0.62409  0.72672  Biso   1.000  C
  N5       1.0000 0.64949  0.95448  0.88712  Biso   1.000  N
  C109     1.0000 0.64298  0.86679  0.61273  Biso   1.000  C
  C110     1.0000 0.27280  0.66319  0.81034  Biso   1.000  C
  H101     1.0000 0.29298  0.65490  0.70173  Biso   1.000  H
  H102     1.0000 0.26770  0.61970  0.72451  Biso   1.000  H
  O17      1.0000 0.36080  0.65370  0.67780  Biso   1.000  O
  C111     1.0000 0.45709  0.63900  0.78409  Biso   1.000  C
  H103     1.0000 0.43020  0.64358  0.69213  Biso   1.000  H
  H104     1.0000 0.44390  0.60159  0.70711  Biso   1.000  H
  S5       1.0000 0.62377  0.98939  0.89984  Biso   1.000  S
  H105     1.0000 0.62360  0.88660  0.60831  Biso   1.000  H
  H106     1.0000 0.66821  0.87849  0.60861  Biso   1.000  H
  C112     1.0000 0.63751  0.83569  0.56089  Biso   1.000  C
  C113     1.0000 0.28599  0.69128  0.84800  Biso   1.000  C
  C114     1.0000 0.23921  0.63928  0.83281  Biso   1.000  C
  C115     1.0000 0.35699  0.63321  0.61273  Biso   1.000  C
  C116     1.0000 0.44660  0.66970  0.82070  Biso   1.000  C
  C117     1.0000 0.48859  0.61890  0.80662  Biso   1.000  C
  C118     1.0000 0.58129  0.97208  0.93413  Biso   1.000  C
  O18      1.0000 0.61268  0.00631  0.83960  Biso   1.000  O
  O19      1.0000 0.64410  0.01041  0.94982  Biso   1.000  O
  H107     1.0000 0.66138  0.82248  0.55139  Biso   1.000  H
  H108     1.0000 0.61839  0.81720  0.57512  Biso   1.000  H
  C119     1.0000 0.27799  0.69810  0.91020  Biso   1.000  C
  O20      1.0000 0.31870  0.70650  0.80571  Biso   1.000  O
  C120     1.0000 0.22281  0.64619  0.89501  Biso   1.000  C
  H109     1.0000 0.22960  0.61999  0.80521  Biso   1.000  H
  H110     1.0000 0.37640  0.61340  0.60831  Biso   1.000  H
  H111     1.0000 0.33179  0.62148  0.60861  Biso   1.000  H
  C121     1.0000 0.36249  0.66431  0.56089  Biso   1.000  C
  C122     1.0000 0.46600  0.68010  0.88224  Biso   1.000  C
  O21      1.0000 0.41650  0.69280  0.79852  Biso   1.000  O
  C123     1.0000 0.50869  0.62710  0.86283  Biso   1.000  C
  H112     1.0000 0.49659  0.59800  0.78112  Biso   1.000  H
  C124     1.0000 0.58218  0.95239  0.99552  Biso   1.000  C
  C125     1.0000 0.54460  0.97618  0.90733  Biso   1.000  C
  C126     1.0000 0.29659  0.72668  0.93861  Biso   1.000  C
  C127     1.0000 0.24150  0.67508  0.92770  Biso   1.000  C
  C128     1.0000 0.30720  0.74339  0.77303  Biso   1.000  C
  H113     1.0000 0.20180  0.63289  0.91191  Biso   1.000  H
  H114     1.0000 0.33859  0.67749  0.55139  Biso   1.000  H
  H115     1.0000 0.38159  0.68280  0.57512  Biso   1.000  H
  C129     1.0000 0.44551  0.71418  0.92392  Biso   1.000  C
  C130     1.0000 0.49888  0.65780  0.89914  Biso   1.000  C
  C131     1.0000 0.42559  0.71989  0.74070  Biso   1.000  C
  H116     1.0000 0.52909  0.61171  0.87601  Biso   1.000  H
  C132     1.0000 0.55148  0.93929  0.02690  Biso   1.000  C
  H117     1.0000 0.60589  0.94820  0.01549  Biso   1.000  H
  C133     1.0000 0.51198  0.96228  0.93473  Biso   1.000  C
  H118     1.0000 0.54228  0.98968  0.86721  Biso   1.000  H
  C134     1.0000 0.33730  0.70650  0.95872  Biso   1.000  C
  H119     1.0000 0.30041  0.74769  0.90743  Biso   1.000  H
  H120     1.0000 0.28321  0.73600  0.97823  Biso   1.000  H
  H121     1.0000 0.23009  0.68219  0.96822  Biso   1.000  H
  H122     1.0000 0.28109  0.75039  0.78439  Biso   1.000  H
  H123     1.0000 0.32440  0.76420  0.78540  Biso   1.000  H
  C135     1.0000 0.31098  0.73178  0.69901  Biso   1.000  C
  C136     1.0000 0.40641  0.69931  0.95424  Biso   1.000  C
  H124     1.0000 0.44069  0.73580  0.89431  Biso   1.000  H
  H125     1.0000 0.46219  0.72270  0.95993  Biso   1.000  H
  H126     1.0000 0.51370  0.66468  0.93604  Biso   1.000  H
  H127     1.0000 0.44430  0.70779  0.71153  Biso   1.000  H
  H128     1.0000 0.40248  0.72410  0.71460  Biso   1.000  H
  C137     1.0000 0.44210  0.76059  0.76473  Biso   1.000  C
  C138     1.0000 0.51471  0.94158  0.99764  Biso   1.000  C
  H129     1.0000 0.55409  0.92828  0.06929  Biso   1.000  H
  H130     1.0000 0.48851  0.96589  0.91372  Biso   1.000  H
  C139     1.0000 0.33779  0.67379  0.00040  Biso   1.000  C
  C140     1.0000 0.37238  0.72009  0.94082  Biso   1.000  C
  H131     1.0000 0.33139  0.71329  0.68981  Biso   1.000  H
  H132     1.0000 0.28759  0.72608  0.67614  Biso   1.000  H
  C141     1.0000 0.32449  0.77619  0.69801  Biso   1.000  C
  C142     1.0000 0.40469  0.66649  0.99382  Biso   1.000  C
  H133     1.0000 0.46489  0.75689  0.79183  Biso   1.000  H
  H134     1.0000 0.42309  0.77369  0.79204  Biso   1.000  H
  C143     1.0000 0.45190  0.78519  0.70203  Biso   1.000  C
  C144     1.0000 0.47830  0.92329  0.02539  Biso   1.000  C
  C145     1.0000 0.37081  0.65379  0.01820  Biso   1.000  C
  H135     1.0000 0.31451  0.66508  0.01710  Biso   1.000  H
  O22      1.0000 0.37720  0.75489  0.90633  Biso   1.000  O
  H136     1.0000 0.30350  0.79178  0.68313  Biso   1.000  H
  H137     1.0000 0.33228  0.78398  0.74211  Biso   1.000  H
  H138     1.0000 0.34570  0.77920  0.66734  Biso   1.000  H
  H139     1.0000 0.42711  0.65318  0.00352  Biso   1.000  H
  H140     1.0000 0.46110  0.80978  0.71611  Biso   1.000  H
  H141     1.0000 0.47131  0.77249  0.67604  Biso   1.000  H
  H142     1.0000 0.42928  0.78840  0.67503  Biso   1.000  H
  C146     1.0000 0.48300  0.89039  0.06703  Biso   1.000  C
  C147     1.0000 0.44218  0.93490  0.00739  Biso   1.000  C
  N6       1.0000 0.36849  0.62148  0.06009  Biso   1.000  N
  C148     1.0000 0.38821  0.79178  0.94942  Biso   1.000  C
  C149     1.0000 0.45150  0.86880  0.09498  Biso   1.000  C
  H143     1.0000 0.50780  0.88230  0.07668  Biso   1.000  H
  C150     1.0000 0.40839  0.91679  0.03329  Biso   1.000  C
  H144     1.0000 0.43960  0.95508  0.97742  Biso   1.000  H
  S6       1.0000 0.38548  0.62561  0.13601  Biso   1.000  S
  H145     1.0000 0.41469  0.79000  0.96360  Biso   1.000  H
  H146     1.0000 0.37230  0.79290  0.98934  Biso   1.000  H
  C151     1.0000 0.38250  0.82818  0.90803  Biso   1.000  C
  C152     1.0000 0.41578  0.88528  0.07562  Biso   1.000  C
  H147     1.0000 0.45419  0.84710  0.12188  Biso   1.000  H
  H148     1.0000 0.38379  0.92518  0.02308  Biso   1.000  H
  O23      1.0000 0.37499  0.59001  0.16839  Biso   1.000  O
  O24      1.0000 0.42619  0.63650  0.13078  Biso   1.000  O
  C153     1.0000 0.36470  0.66580  0.17443  Biso   1.000  C
  H149     1.0000 0.40111  0.82750  0.87173  Biso   1.000  H
  H150     1.0000 0.38950  0.84968  0.93659  Biso   1.000  H
  C154     1.0000 0.35301  0.83538  0.88400  Biso   1.000  C
  S7       1.0000 0.37562  0.86450  0.11399  Biso   1.000  S
  C155     1.0000 0.38118  0.70148  0.15502  Biso   1.000  C
  C156     1.0000 0.33320  0.65840  0.21671  Biso   1.000  C
  H151     1.0000 0.35519  0.85768  0.85599  Biso   1.000  H
  H152     1.0000 0.34429  0.81408  0.85730  Biso   1.000  H
  H153     1.0000 0.33440  0.84039  0.91890  Biso   1.000  H
  N7       1.0000 0.37150  0.88150  0.18991  Biso   1.000  N
  O25      1.0000 0.38649  0.82380  0.11922  Biso   1.000  O
  O26      1.0000 0.33999  0.87499  0.08161  Biso   1.000  O
  C157     1.0000 0.35960  0.73299  0.18302  Biso   1.000  C
  H154     1.0000 0.40288  0.70418  0.12812  Biso   1.000  H
  C158     1.0000 0.31508  0.69220  0.24261  Biso   1.000  C
  H155     1.0000 0.32480  0.63378  0.22692  Biso   1.000  H
  C159     1.0000 0.40380  0.87918  0.23180  Biso   1.000  C
  C160     1.0000 0.32669  0.72829  0.22461  Biso   1.000  C
  H156     1.0000 0.36768  0.75778  0.17332  Biso   1.000  H
  H157     1.0000 0.29490  0.68959  0.27263  Biso   1.000  H
  C161     1.0000 0.41650  0.84530  0.25618  Biso   1.000  C
  C162     1.0000 0.42381  0.91220  0.24960  Biso   1.000  C
  C163     1.0000 0.30840  0.76469  0.25241  Biso   1.000  C
  C164     1.0000 0.44929  0.84358  0.29581  Biso   1.000  C
  H158     1.0000 0.40320  0.82288  0.24648  Biso   1.000  H
  C165     1.0000 0.45649  0.91269  0.29128  Biso   1.000  C
  H159     1.0000 0.41509  0.93548  0.23290  Biso   1.000  H
  C166     1.0000 0.31070  0.80150  0.22310  Biso   1.000  C
  C167     1.0000 0.28771  0.76200  0.31532  Biso   1.000  C
  C168     1.0000 0.46420  0.80448  0.32613  Biso   1.000  C
  C169     1.0000 0.47010  0.87760  0.30918  Biso   1.000  C
  C170     1.0000 0.47670  0.95339  0.31139  Biso   1.000  C
  C171     1.0000 0.29760  0.83220  0.25453  Biso   1.000  C
  H160     1.0000 0.32170  0.80410  0.18071  Biso   1.000  H
  H161     1.0000 0.28410  0.73849  0.33628  Biso   1.000  H
  C172     1.0000 0.27381  0.79459  0.34272  Biso   1.000  C
  C173     1.0000 0.43009  0.78398  0.36781  Biso   1.000  C
  H162     1.0000 0.48578  0.80929  0.35569  Biso   1.000  H
  H163     1.0000 0.47268  0.78779  0.29012  Biso   1.000  H
  O27      1.0000 0.50490  0.87279  0.34372  Biso   1.000  O
  C174     1.0000 0.44809  0.97199  0.33980  Biso   1.000  C
  H164     1.0000 0.49771  0.94958  0.34262  Biso   1.000  H
  H165     1.0000 0.48598  0.96678  0.27182  Biso   1.000  H
  C175     1.0000 0.27791  0.83128  0.31592  Biso   1.000  C
  H166     1.0000 0.30178  0.85590  0.23451  Biso   1.000  H
  H167     1.0000 0.26030  0.79229  0.38279  Biso   1.000  H
  C176     1.0000 0.41968  0.80339  0.42930  Biso   1.000  C
  C177     1.0000 0.40779  0.75110  0.35092  Biso   1.000  C
  C178     1.0000 0.54179  0.86178  0.30058  Biso   1.000  C
  C179     1.0000 0.44129  0.96400  0.40200  Biso   1.000  C
  C180     1.0000 0.42510  0.00851  0.32230  Biso   1.000  C
  S8       1.0000 0.26059  0.87376  0.35021  Biso   1.000  S
  C181     1.0000 0.38898  0.79290  0.46591  Biso   1.000  C
  O28      1.0000 0.44279  0.83349  0.45153  Biso   1.000  O
  C182     1.0000 0.37709  0.74130  0.38722  Biso   1.000  C
  H168     1.0000 0.41469  0.73628  0.31401  Biso   1.000  H
  H169     1.0000 0.53999  0.83529  0.28640  Biso   1.000  H
  H170     1.0000 0.54288  0.87769  0.26071  Biso   1.000  H
  C183     1.0000 0.57820  0.86748  0.34202  Biso   1.000  C
  C184     1.0000 0.41320  0.97718  0.43971  Biso   1.000  C
  O29      1.0000 0.45649  0.93129  0.44429  Biso   1.000  O
  C185     1.0000 0.39620  0.02720  0.35499  Biso   1.000  C
  H171     1.0000 0.43221  0.01989  0.28183  Biso   1.000  H
  O30      1.0000 0.24371  0.86270  0.41040  Biso   1.000  O
  O31      1.0000 0.23961  0.89408  0.30018  Biso   1.000  O
  N8       1.0000 0.29551  0.89950  0.36293  Biso   1.000  N
  C186     1.0000 0.37410  0.81798  0.52333  Biso   1.000  C
  C187     1.0000 0.36889  0.76139  0.44343  Biso   1.000  C
  C188     1.0000 0.46990  0.82440  0.50930  Biso   1.000  C
  H172     1.0000 0.36169  0.72089  0.37399  Biso   1.000  H
  H173     1.0000 0.57748  0.84888  0.37832  Biso   1.000  H
  H174     1.0000 0.59970  0.86049  0.31341  Biso   1.000  H
  C189     1.0000 0.58539  0.89698  0.36600  Biso   1.000  C
  C190     1.0000 0.38769  0.96268  0.51141  Biso   1.000  C
  C191     1.0000 0.38930  0.01081  0.41719  Biso   1.000  C
  C192     1.0000 0.49341  0.94279  0.47702  Biso   1.000  C
  H175     1.0000 0.38290  0.04819  0.33809  Biso   1.000  H
  C193     1.0000 0.32150  0.89580  0.41452  Biso   1.000  C
  C194     1.0000 0.36358  0.85880  0.49909  Biso   1.000  C
  H176     1.0000 0.39360  0.81978  0.55792  Biso   1.000  H
  H177     1.0000 0.35160  0.80608  0.54289  Biso   1.000  H
  H178     1.0000 0.34799  0.75340  0.46893  Biso   1.000  H
  H179     1.0000 0.45781  0.80568  0.53852  Biso   1.000  H
  H180     1.0000 0.47409  0.84750  0.53540  Biso   1.000  H
  C195     1.0000 0.51061  0.80789  0.48532  Biso   1.000  C
  H181     1.0000 0.60769  0.89480  0.39401  Biso   1.000  H
  H182     1.0000 0.56409  0.90569  0.39270  Biso   1.000  H
  H183     1.0000 0.59038  0.91558  0.33110  Biso   1.000  H
  C196     1.0000 0.36711  0.92728  0.48849  Biso   1.000  C
  H184     1.0000 0.40489  0.95700  0.54832  Biso   1.000  H
  H185     1.0000 0.36969  0.98229  0.52549  Biso   1.000  H
  H186     1.0000 0.37001  0.02041  0.44479  Biso   1.000  H
  H187     1.0000 0.50040  0.96890  0.46561  Biso   1.000  H
  H188     1.0000 0.51419  0.92559  0.46460  Biso   1.000  H
  C197     1.0000 0.48180  0.93900  0.55104  Biso   1.000  C
  C198     1.0000 0.33601  0.86069  0.44620  Biso   1.000  C
  C199     1.0000 0.33971  0.92659  0.44042  Biso   1.000  C
  C200     1.0000 0.37789  0.89248  0.52122  Biso   1.000  C
  H189     1.0000 0.50691  0.78510  0.45822  Biso   1.000  H
  H190     1.0000 0.52371  0.82689  0.45801  Biso   1.000  H
  C201     1.0000 0.53520  0.79809  0.54802  Biso   1.000  C
  H191     1.0000 0.46328  0.91859  0.56019  Biso   1.000  H
  H192     1.0000 0.47609  0.96239  0.57391  Biso   1.000  H
  C202     1.0000 0.52620  0.92550  0.55199  Biso   1.000  C
  H193     1.0000 0.32629  0.83759  0.43041  Biso   1.000  H
  H194     1.0000 0.33248  0.95018  0.42292  Biso   1.000  H
  O32      1.0000 0.40369  0.88918  0.57220  Biso   1.000  O
  H195     1.0000 0.55979  0.78888  0.53389  Biso   1.000  H
  H196     1.0000 0.52250  0.77868  0.57401  Biso   1.000  H
  H197     1.0000 0.53838  0.82070  0.57502  Biso   1.000  H
  H198     1.0000 0.54179  0.94648  0.56692  Biso   1.000  H
  H199     1.0000 0.53400  0.91770  0.50789  Biso   1.000  H
  H200     1.0000 0.52918  0.90429  0.58271  Biso   1.000  H
  C203     1.0000 0.38319  0.89299  0.63732  Biso   1.000  C
  H201     1.0000 0.36338  0.87359  0.64169  Biso   1.000  H
  H202     1.0000 0.37150  0.91819  0.64139  Biso   1.000  H
  C204     1.0000 0.41429  0.88749  0.68911  Biso   1.000  C
  H203     1.0000 0.42751  0.91140  0.69861  Biso   1.000  H
  H204     1.0000 0.43278  0.86840  0.67493  Biso   1.000  H
  O33      1.0000 0.85590  0.48959  0.55023  Biso   1.000  O
  S9       1.0000 0.87620  0.51058  0.60021  Biso   1.000  S
  N9       1.0000 0.85048  0.54549  0.61293  Biso   1.000  N
  O34      1.0000 0.88729  0.49369  0.66040  Biso   1.000  O
  C205     1.0000 0.91868  0.52789  0.56592  Biso   1.000  C
  C206     1.0000 0.85418  0.57149  0.66452  Biso   1.000  C
  C207     1.0000 0.91779  0.54758  0.50453  Biso   1.000  C
  C208     1.0000 0.95540  0.52379  0.59272  Biso   1.000  C
  C209     1.0000 0.82340  0.58969  0.69042  Biso   1.000  C
  C210     1.0000 0.88930  0.58599  0.69620  Biso   1.000  C
  H205     1.0000 0.89408  0.55180  0.48451  Biso   1.000  H
  C211     1.0000 0.94849  0.56068  0.47310  Biso   1.000  C
  C212     1.0000 0.98799  0.53769  0.56532  Biso   1.000  C
  H206     1.0000 0.95769  0.51029  0.63279  Biso   1.000  H
  C213     1.0000 0.82268  0.61710  0.73854  Biso   1.000  C
  H207     1.0000 0.79981  0.58250  0.67292  Biso   1.000  H
  C214     1.0000 0.89119  0.61360  0.74909  Biso   1.000  C
  H208     1.0000 0.91240  0.57631  0.68041  Biso   1.000  H
  H209     1.0000 0.94588  0.57169  0.43071  Biso   1.000  H
  C215     1.0000 0.98529  0.55839  0.50241  Biso   1.000  C
  H210     1.0000 0.01149  0.53408  0.58633  Biso   1.000  H
  C216     1.0000 0.78728  0.63771  0.76141  Biso   1.000  C
  C217     1.0000 0.85748  0.62790  0.77122  Biso   1.000  C
  C218     1.0000 0.93198  0.62409  0.77333  Biso   1.000  C
  C219     1.0000 0.02170  0.57671  0.47461  Biso   1.000  C
  C220     1.0000 0.77280  0.66319  0.68971  Biso   1.000  C
  H211     1.0000 0.79298  0.65490  0.79832  Biso   1.000  H
  H212     1.0000 0.76770  0.61970  0.77549  Biso   1.000  H
  O35      1.0000 0.86080  0.65370  0.82220  Biso   1.000  O
  H213     1.0000 0.93020  0.64358  0.80792  Biso   1.000  H
  H214     1.0000 0.94390  0.60159  0.79294  Biso   1.000  H
  C221     1.0000 0.95709  0.63900  0.71591  Biso   1.000  C
  C222     1.0000 0.01700  0.60959  0.43302  Biso   1.000  C
  C223     1.0000 0.05779  0.56510  0.49261  Biso   1.000  C
  C224     1.0000 0.73918  0.63928  0.66724  Biso   1.000  C
  C225     1.0000 0.78599  0.69128  0.65200  Biso   1.000  C
  C226     1.0000 0.85699  0.63321  0.88732  Biso   1.000  C
  C227     1.0000 0.94660  0.66970  0.67930  Biso   1.000  C
  C228     1.0000 0.98859  0.61890  0.69343  Biso   1.000  C
  H215     1.0000 0.99217  0.61770  0.42332  Biso   1.000  H
  C229     1.0000 0.04850  0.63120  0.40502  Biso   1.000  C
  H216     1.0000 0.06040  0.54489  0.52263  Biso   1.000  H
  C230     1.0000 0.09161  0.58319  0.46671  Biso   1.000  C
  C231     1.0000 0.72278  0.64619  0.60499  Biso   1.000  C
  H217     1.0000 0.72960  0.61999  0.69479  Biso   1.000  H
  C232     1.0000 0.77799  0.69810  0.58980  Biso   1.000  C
  O36      1.0000 0.81870  0.70650  0.69434  Biso   1.000  O
  H218     1.0000 0.87640  0.61340  0.89169  Biso   1.000  H
  H219     1.0000 0.83179  0.62148  0.89144  Biso   1.000  H
  C233     1.0000 0.86249  0.66431  0.93911  Biso   1.000  C
  C234     1.0000 0.96597  0.68010  0.61781  Biso   1.000  C
  O37      1.0000 0.91650  0.69280  0.70153  Biso   1.000  O
  C235     1.0000 0.00871  0.62710  0.63722  Biso   1.000  C
  H220     1.0000 0.99659  0.59800  0.71893  Biso   1.000  H
  C236     1.0000 0.08419  0.61469  0.42443  Biso   1.000  C
  H221     1.0000 0.04581  0.65290  0.37812  Biso   1.000  H
  H222     1.0000 0.11621  0.57479  0.47692  Biso   1.000  H
  C237     1.0000 0.74150  0.67508  0.57230  Biso   1.000  C
  H223     1.0000 0.70180  0.63289  0.58809  Biso   1.000  H
  C238     1.0000 0.79659  0.72668  0.56139  Biso   1.000  C
  C239     1.0000 0.80720  0.74339  0.72702  Biso   1.000  C
  H224     1.0000 0.83859  0.67749  0.94861  Biso   1.000  H
  H225     1.0000 0.88159  0.68280  0.92493  Biso   1.000  H
  C240     1.0000 0.94548  0.71418  0.57613  Biso   1.000  C
  C241     1.0000 0.99888  0.65780  0.60092  Biso   1.000  C
  C242     1.0000 0.92559  0.71989  0.75930  Biso   1.000  C
  H226     1.0000 0.02909  0.61171  0.62399  Biso   1.000  H
  S10      1.0000 0.12438  0.63550  0.38601  Biso   1.000  S
  H227     1.0000 0.73009  0.68219  0.53183  Biso   1.000  H
  C243     1.0000 0.83730  0.70650  0.54133  Biso   1.000  C
  H228     1.0000 0.80038  0.74769  0.59262  Biso   1.000  H
  H229     1.0000 0.78318  0.73600  0.52182  Biso   1.000  H
  H230     1.0000 0.78109  0.75039  0.71561  Biso   1.000  H
  H231     1.0000 0.82440  0.76420  0.71460  Biso   1.000  H
  C244     1.0000 0.81098  0.73178  0.80104  Biso   1.000  C
  C245     1.0000 0.90638  0.69931  0.54581  Biso   1.000  C
  H232     1.0000 0.94069  0.73580  0.60569  Biso   1.000  H
  H233     1.0000 0.96219  0.72270  0.54012  Biso   1.000  H
  H234     1.0000 0.01370  0.66468  0.56401  Biso   1.000  H
  H235     1.0000 0.94428  0.70779  0.78852  Biso   1.000  H
  H236     1.0000 0.90248  0.72410  0.78540  Biso   1.000  H
  C246     1.0000 0.94210  0.76059  0.73532  Biso   1.000  C
  O38      1.0000 0.11351  0.67620  0.38083  Biso   1.000  O
  O39      1.0000 0.16001  0.62498  0.41839  Biso   1.000  O
  N10      1.0000 0.12850  0.61850  0.31009  Biso   1.000  N
  C247     1.0000 0.87238  0.72009  0.55923  Biso   1.000  C
  C248     1.0000 0.83779  0.67379  0.49960  Biso   1.000  C
  H237     1.0000 0.83139  0.71329  0.81024  Biso   1.000  H
  H238     1.0000 0.78759  0.72608  0.82391  Biso   1.000  H
  C249     1.0000 0.82449  0.77619  0.80199  Biso   1.000  C
  C250     1.0000 0.90469  0.66649  0.50623  Biso   1.000  C
  H239     1.0000 0.96489  0.75689  0.70822  Biso   1.000  H
  H240     1.0000 0.92309  0.77369  0.70801  Biso   1.000  H
  C251     1.0000 0.95190  0.78519  0.79802  Biso   1.000  C
  C252     1.0000 0.09620  0.62079  0.26820  Biso   1.000  C
  O40      1.0000 0.87720  0.75489  0.59372  Biso   1.000  O
  C253     1.0000 0.87078  0.65379  0.48180  Biso   1.000  C
  H241     1.0000 0.81448  0.66508  0.48290  Biso   1.000  H
  H242     1.0000 0.80350  0.79178  0.81692  Biso   1.000  H
  H243     1.0000 0.83228  0.78398  0.75789  Biso   1.000  H
  H244     1.0000 0.84570  0.77920  0.83271  Biso   1.000  H
  H245     1.0000 0.92708  0.65318  0.49653  Biso   1.000  H
  H246     1.0000 0.96110  0.80978  0.78394  Biso   1.000  H
  H247     1.0000 0.97128  0.77249  0.82401  Biso   1.000  H
  H248     1.0000 0.92928  0.78840  0.82502  Biso   1.000  H
  C254     1.0000 0.08350  0.65470  0.24382  Biso   1.000  C
  C255     1.0000 0.07619  0.58780  0.25040  Biso   1.000  C
  C256     1.0000 0.88818  0.79178  0.55063  Biso   1.000  C
  N11      1.0000 0.86849  0.62148  0.43991  Biso   1.000  N
  C257     1.0000 0.05071  0.65640  0.20419  Biso   1.000  C
  H249     1.0000 0.09680  0.67709  0.25352  Biso   1.000  H
  C258     1.0000 0.04351  0.58728  0.20872  Biso   1.000  C
  H250     1.0000 0.08491  0.56450  0.26710  Biso   1.000  H
  H251     1.0000 0.91469  0.79000  0.53640  Biso   1.000  H
  H252     1.0000 0.87230  0.79290  0.51071  Biso   1.000  H
  C259     1.0000 0.88250  0.82818  0.59202  Biso   1.000  C
  S11      1.0000 0.88548  0.62561  0.36399  Biso   1.000  S
  C260     1.0000 0.02990  0.62240  0.19082  Biso   1.000  C
  C261     1.0000 0.03580  0.69549  0.17392  Biso   1.000  C
  C262     1.0000 0.02330  0.54658  0.18861  Biso   1.000  C
  H253     1.0000 0.90108  0.82750  0.62832  Biso   1.000  H
  H254     1.0000 0.88950  0.84968  0.56341  Biso   1.000  H
  C263     1.0000 0.85298  0.83538  0.61600  Biso   1.000  C
  O41      1.0000 0.92619  0.63650  0.36922  Biso   1.000  O
  O42      1.0000 0.87499  0.59001  0.33161  Biso   1.000  O
  C264     1.0000 0.86470  0.66580  0.32562  Biso   1.000  C
  O43      1.0000 0.99510  0.62719  0.15633  Biso   1.000  O
  C265     1.0000 0.06991  0.71599  0.13219  Biso   1.000  C
  H255     1.0000 0.01419  0.69068  0.14431  Biso   1.000  H
  H256     1.0000 0.02729  0.71221  0.20993  Biso   1.000  H
  H257     1.0000 0.00229  0.55039  0.15738  Biso   1.000  H
  H258     1.0000 0.01399  0.53319  0.22823  Biso   1.000  H
  C266     1.0000 0.05191  0.52801  0.16020  Biso   1.000  C
  H259     1.0000 0.85519  0.85768  0.64401  Biso   1.000  H
  H260     1.0000 0.84429  0.81408  0.64270  Biso   1.000  H
  H261     1.0000 0.83440  0.84039  0.58110  Biso   1.000  H
  C267     1.0000 0.88118  0.70148  0.34498  Biso   1.000  C
  C268     1.0000 0.83320  0.65840  0.28329  Biso   1.000  C
  C269     1.0000 0.95818  0.63819  0.19942  Biso   1.000  C
  C270     1.0000 0.09219  0.74890  0.14908  Biso   1.000  C
  C271     1.0000 0.08029  0.69658  0.07070  Biso   1.000  C
  C272     1.0000 0.07490  0.49149  0.17770  Biso   1.000  C
  C273     1.0000 0.05871  0.53600  0.09800  Biso   1.000  C
  C274     1.0000 0.85960  0.73299  0.31703  Biso   1.000  C
  H262     1.0000 0.90288  0.70418  0.37188  Biso   1.000  H
  C275     1.0000 0.81508  0.69220  0.25739  Biso   1.000  C
  H263     1.0000 0.82480  0.63378  0.27313  Biso   1.000  H
  H264     1.0000 0.95998  0.66468  0.21360  Biso   1.000  H
  H265     1.0000 0.95709  0.62228  0.23929  Biso   1.000  H
  C276     1.0000 0.92180  0.63249  0.15798  Biso   1.000  C
  C277     1.0000 0.12289  0.75870  0.11278  Biso   1.000  C
  H266     1.0000 0.08531  0.76369  0.18599  Biso   1.000  H
  O44      1.0000 0.05719  0.66649  0.04852  Biso   1.000  O
  C278     1.0000 0.11099  0.70710  0.03409  Biso   1.000  C
  H267     1.0000 0.06779  0.48011  0.21822  Biso   1.000  H
  C279     1.0000 0.10380  0.47280  0.14501  Biso   1.000  C
  O45      1.0000 0.04351  0.56868  0.05571  Biso   1.000  O
  C280     1.0000 0.08680  0.52279  0.06029  Biso   1.000  C
  C281     1.0000 0.82669  0.72829  0.27539  Biso   1.000  C
  H268     1.0000 0.86768  0.75778  0.32673  Biso   1.000  H
  H269     1.0000 0.79490  0.68959  0.22742  Biso   1.000  H
  H270     1.0000 0.92249  0.65109  0.12168  Biso   1.000  H
  H271     1.0000 0.90030  0.63948  0.18659  Biso   1.000  H
  C282     1.0000 0.91458  0.60299  0.13400  Biso   1.000  C
  C283     1.0000 0.13111  0.73861  0.05662  Biso   1.000  C
  H272     1.0000 0.13831  0.77908  0.12601  Biso   1.000  H
  C284     1.0000 0.03010  0.67560  0.99070  Biso   1.000  C
  C285     1.0000 0.12590  0.68199  0.97672  Biso   1.000  C
  H273     1.0000 0.11710  0.45179  0.16191  Biso   1.000  H
  C286     1.0000 0.11070  0.48919  0.08281  Biso   1.000  C
  C287     1.0000 0.00659  0.55719  0.02298  Biso   1.000  C
  C288     1.0000 0.11231  0.53729  0.98864  Biso   1.000  C
  C289     1.0000 0.80840  0.76469  0.24759  Biso   1.000  C
  H274     1.0000 0.89228  0.60520  0.10599  Biso   1.000  H
  H275     1.0000 0.93588  0.59431  0.10730  Biso   1.000  H
  H276     1.0000 0.90959  0.58439  0.16890  Biso   1.000  H
  H277     1.0000 0.15201  0.74660  0.03112  Biso   1.000  H
  C290     1.0000 0.98939  0.69208  0.01468  Biso   1.000  C
  H278     1.0000 0.04219  0.69429  0.96153  Biso   1.000  H
  H279     1.0000 0.02591  0.65250  0.96460  Biso   1.000  H
  H280     1.0000 0.10640  0.68019  0.94213  Biso   1.000  H
  H281     1.0000 0.14840  0.69389  0.95711  Biso   1.000  H
  C291     1.0000 0.13639  0.64120  0.00091  Biso   1.000  C
  H282     1.0000 0.12999  0.47959  0.05521  Biso   1.000  H
  H283     1.0000 0.99960  0.53110  0.03439  Biso   1.000  H
  H284     1.0000 0.98578  0.57439  0.03540  Biso   1.000  H
  C292     1.0000 0.01820  0.56100  0.94901  Biso   1.000  C
  H285     1.0000 0.09511  0.54300  0.95173  Biso   1.000  H
  H286     1.0000 0.13031  0.51769  0.97451  Biso   1.000  H
  C293     1.0000 0.13289  0.57269  0.01151  Biso   1.000  C
  C294     1.0000 0.81070  0.80150  0.27690  Biso   1.000  C
  C295     1.0000 0.78768  0.76200  0.18468  Biso   1.000  C
  H287     1.0000 0.99309  0.71490  0.04178  Biso   1.000  H
  H288     1.0000 0.97629  0.67308  0.04199  Biso   1.000  H
  C296     1.0000 0.96480  0.70189  0.95203  Biso   1.000  C
  C297     1.0000 0.12211  0.60749  0.97883  Biso   1.000  C
  C298     1.0000 0.16399  0.63928  0.05380  Biso   1.000  C
  C299     1.0000 0.97380  0.57450  0.94801  Biso   1.000  C
  H289     1.0000 0.03669  0.58138  0.93981  Biso   1.000  H
  H290     1.0000 0.02391  0.53758  0.92614  Biso   1.000  H
  C300     1.0000 0.16029  0.57338  0.05958  Biso   1.000  C
  C301     1.0000 0.79760  0.83220  0.24552  Biso   1.000  C
  H291     1.0000 0.82168  0.80410  0.31929  Biso   1.000  H
  H292     1.0000 0.78410  0.73849  0.16372  Biso   1.000  H
  C302     1.0000 0.77378  0.79459  0.15728  Biso   1.000  C
  H293     1.0000 0.94018  0.71109  0.96611  Biso   1.000  H
  H294     1.0000 0.97750  0.72129  0.92604  Biso   1.000  H
  H295     1.0000 0.96159  0.67930  0.92503  Biso   1.000  H
  O46      1.0000 0.09629  0.61079  0.92780  Biso   1.000  O
  H296     1.0000 0.17371  0.66239  0.06959  Biso   1.000  H
  C303     1.0000 0.17850  0.60420  0.08548  Biso   1.000  C
  H297     1.0000 0.95818  0.55349  0.93313  Biso   1.000  H
  H298     1.0000 0.96597  0.58230  0.99211  Biso   1.000  H
  H299     1.0000 0.97079  0.59568  0.91734  Biso   1.000  H
  H300     1.0000 0.16749  0.54979  0.07708  Biso   1.000  H
  C304     1.0000 0.77791  0.83128  0.18408  Biso   1.000  C
  H301     1.0000 0.80178  0.85590  0.26549  Biso   1.000  H
  H302     1.0000 0.76030  0.79229  0.11721  Biso   1.000  H
  C305     1.0000 0.11681  0.60701  0.86273  Biso   1.000  C
  N12      1.0000 0.20449  0.60050  0.13712  Biso   1.000  N
  S12      1.0000 0.76059  0.87376  0.14979  Biso   1.000  S
  H303     1.0000 0.13659  0.62638  0.85831  Biso   1.000  H
  H304     1.0000 0.12850  0.58178  0.85861  Biso   1.000  H
  C306     1.0000 0.08571  0.61248  0.81094  Biso   1.000  C
  S13      1.0000 0.23941  0.62621  0.14979  Biso   1.000  S
  O47      1.0000 0.74368  0.86270  0.08960  Biso   1.000  O
  O48      1.0000 0.73958  0.89408  0.19982  Biso   1.000  O
  N13      1.0000 0.79548  0.89950  0.13712  Biso   1.000  N
  H305     1.0000 0.07249  0.58860  0.80144  Biso   1.000  H
  H306     1.0000 0.06719  0.63160  0.82512  Biso   1.000  H
  O49      1.0000 0.25629  0.63730  0.08960  Biso   1.000  O
  O50      1.0000 0.26039  0.60589  0.19982  Biso   1.000  O
  C307     1.0000 0.22209  0.66869  0.18408  Biso   1.000  C
  C308     1.0000 0.82150  0.89580  0.08548  Biso   1.000  C
  C309     1.0000 0.20240  0.66780  0.24552  Biso   1.000  C
  C310     1.0000 0.22619  0.70538  0.15728  Biso   1.000  C
  C311     1.0000 0.83598  0.86069  0.05380  Biso   1.000  C
  C312     1.0000 0.83968  0.92659  0.05958  Biso   1.000  C
  H307     1.0000 0.19819  0.64410  0.26549  Biso   1.000  H
  C313     1.0000 0.18930  0.69850  0.27690  Biso   1.000  C
  C314     1.0000 0.21229  0.73800  0.18468  Biso   1.000  C
  H308     1.0000 0.23970  0.70771  0.11721  Biso   1.000  H
  C315     1.0000 0.86358  0.85880  0.00091  Biso   1.000  C
  H309     1.0000 0.82629  0.83759  0.06959  Biso   1.000  H
  C316     1.0000 0.86708  0.92728  0.01151  Biso   1.000  C
  H310     1.0000 0.83248  0.95018  0.07708  Biso   1.000  H
  H311     1.0000 0.17830  0.69590  0.31929  Biso   1.000  H
  C317     1.0000 0.19160  0.73528  0.24759  Biso   1.000  C
  H312     1.0000 0.21590  0.76148  0.16372  Biso   1.000  H
  C318     1.0000 0.87789  0.89248  0.97883  Biso   1.000  C
  C319     1.0000 0.87410  0.81798  0.97672  Biso   1.000  C
  C320     1.0000 0.88769  0.96268  0.98864  Biso   1.000  C
  C321     1.0000 0.17331  0.77168  0.27539  Biso   1.000  C
  O51      1.0000 0.90369  0.88918  0.92780  Biso   1.000  O
  C322     1.0000 0.88898  0.79290  0.03409  Biso   1.000  C
  H313     1.0000 0.89360  0.81978  0.94213  Biso   1.000  H
  H314     1.0000 0.85160  0.80608  0.95711  Biso   1.000  H
  C323     1.0000 0.91320  0.97718  0.06029  Biso   1.000  C
  H315     1.0000 0.90489  0.95700  0.95173  Biso   1.000  H
  H316     1.0000 0.86969  0.98229  0.97451  Biso   1.000  H
  C324     1.0000 0.14040  0.76698  0.31703  Biso   1.000  C
  C325     1.0000 0.18489  0.80780  0.25739  Biso   1.000  C
  C326     1.0000 0.88319  0.89299  0.86273  Biso   1.000  C
  C327     1.0000 0.86889  0.76139  0.05662  Biso   1.000  C
  C328     1.0000 0.91968  0.80339  0.07070  Biso   1.000  C
  C329     1.0000 0.94129  0.96400  0.09800  Biso   1.000  C
  C330     1.0000 0.88930  0.01081  0.08281  Biso   1.000  C
  H317     1.0000 0.13229  0.74219  0.32673  Biso   1.000  H
  C331     1.0000 0.11879  0.79849  0.34498  Biso   1.000  C
  H318     1.0000 0.20510  0.81038  0.22742  Biso   1.000  H
  C332     1.0000 0.16680  0.84160  0.28329  Biso   1.000  C
  H319     1.0000 0.86338  0.87359  0.85831  Biso   1.000  H
  H320     1.0000 0.87150  0.91819  0.85861  Biso   1.000  H
  C333     1.0000 0.91429  0.88749  0.81094  Biso   1.000  C
  H321     1.0000 0.84799  0.75340  0.03112  Biso   1.000  H
  C334     1.0000 0.87709  0.74130  0.11278  Biso   1.000  C
  O52      1.0000 0.94279  0.83349  0.04852  Biso   1.000  O
  C335     1.0000 0.93009  0.78398  0.13219  Biso   1.000  C
  O53      1.0000 0.95649  0.93129  0.05571  Biso   1.000  O
  C336     1.0000 0.94809  0.97199  0.16020  Biso   1.000  C
  C337     1.0000 0.89618  0.02720  0.14501  Biso   1.000  C
  H322     1.0000 0.86998  0.02041  0.05521  Biso   1.000  H
  C338     1.0000 0.13530  0.83420  0.32562  Biso   1.000  C
  H323     1.0000 0.09709  0.79579  0.37188  Biso   1.000  H
  H324     1.0000 0.17520  0.86619  0.27313  Biso   1.000  H
  H325     1.0000 0.92748  0.91140  0.80144  Biso   1.000  H
  H326     1.0000 0.93278  0.86840  0.82512  Biso   1.000  H
  H327     1.0000 0.86169  0.72089  0.12601  Biso   1.000  H
  C339     1.0000 0.90779  0.75110  0.14908  Biso   1.000  C
  C340     1.0000 0.96990  0.82440  0.99070  Biso   1.000  C
  C341     1.0000 0.96420  0.80448  0.17392  Biso   1.000  C
  C342     1.0000 0.99338  0.94279  0.02298  Biso   1.000  C
  C343     1.0000 0.97670  0.95339  0.18861  Biso   1.000  C
  C344     1.0000 0.92510  0.00851  0.17770  Biso   1.000  C
  H328     1.0000 0.88288  0.04819  0.16191  Biso   1.000  H
  S14      1.0000 0.11449  0.87436  0.36399  Biso   1.000  S
  H329     1.0000 0.91469  0.73628  0.18599  Biso   1.000  H
  H330     1.0000 0.95778  0.80568  0.96153  Biso   1.000  H
  H331     1.0000 0.97409  0.84750  0.96460  Biso   1.000  H
  C345     1.0000 0.01061  0.80789  0.01468  Biso   1.000  C
  C346     1.0000 0.94929  0.84358  0.20419  Biso   1.000  C
  H332     1.0000 0.98578  0.80929  0.14431  Biso   1.000  H
  H333     1.0000 0.97268  0.78779  0.20993  Biso   1.000  H
  C347     1.0000 0.98180  0.93900  0.94901  Biso   1.000  C
  H334     1.0000 0.00040  0.96890  0.03439  Biso   1.000  H
  H335     1.0000 0.01419  0.92559  0.03540  Biso   1.000  H
  C348     1.0000 0.95649  0.91269  0.20872  Biso   1.000  C
  H336     1.0000 0.99768  0.94958  0.15738  Biso   1.000  H
  H337     1.0000 0.98598  0.96678  0.22823  Biso   1.000  H
  H338     1.0000 0.93218  0.01989  0.21822  Biso   1.000  H
  O54      1.0000 0.07381  0.86350  0.36922  Biso   1.000  O
  O55      1.0000 0.12501  0.90999  0.33161  Biso   1.000  O
  N14      1.0000 0.13149  0.87849  0.43991  Biso   1.000  N
  C349     1.0000 0.03520  0.79809  0.95203  Biso   1.000  C
  H339     1.0000 0.00691  0.78510  0.04178  Biso   1.000  H
  H340     1.0000 0.02371  0.82689  0.04199  Biso   1.000  H
  C350     1.0000 0.97010  0.87760  0.19082  Biso   1.000  C
  C351     1.0000 0.91650  0.84530  0.24382  Biso   1.000  C
  H341     1.0000 0.96328  0.91859  0.93981  Biso   1.000  H
  H342     1.0000 0.97609  0.96239  0.92614  Biso   1.000  H
  C352     1.0000 0.02620  0.92550  0.94801  Biso   1.000  C
  C353     1.0000 0.92378  0.91220  0.25040  Biso   1.000  C
  C354     1.0000 0.12919  0.84618  0.48180  Biso   1.000  C
  H343     1.0000 0.05979  0.78888  0.96611  Biso   1.000  H
  H344     1.0000 0.02250  0.77868  0.92604  Biso   1.000  H
  H345     1.0000 0.03841  0.82070  0.92503  Biso   1.000  H
  O56      1.0000 0.00490  0.87279  0.15633  Biso   1.000  O
  H346     1.0000 0.90320  0.82288  0.25352  Biso   1.000  H
  C355     1.0000 0.90380  0.87918  0.26820  Biso   1.000  C
  H347     1.0000 0.04179  0.94648  0.93313  Biso   1.000  H
  H348     1.0000 0.03400  0.91770  0.99211  Biso   1.000  H
  H349     1.0000 0.02921  0.90429  0.91734  Biso   1.000  H
  H350     1.0000 0.91509  0.93548  0.26710  Biso   1.000  H
  C356     1.0000 0.09531  0.83349  0.50623  Biso   1.000  C
  C357     1.0000 0.16219  0.82618  0.49960  Biso   1.000  C
  C358     1.0000 0.04179  0.86178  0.19942  Biso   1.000  C
  N15      1.0000 0.87150  0.88150  0.31009  Biso   1.000  N
  C359     1.0000 0.09359  0.80069  0.54581  Biso   1.000  C
  H351     1.0000 0.07289  0.84679  0.49653  Biso   1.000  H
  C360     1.0000 0.16270  0.79350  0.54133  Biso   1.000  C
  H352     1.0000 0.18549  0.83489  0.48290  Biso   1.000  H
  H353     1.0000 0.03999  0.83529  0.21360  Biso   1.000  H
  H354     1.0000 0.04291  0.87769  0.23929  Biso   1.000  H
  C361     1.0000 0.07820  0.86748  0.15798  Biso   1.000  C
  S15      1.0000 0.87562  0.86450  0.38601  Biso   1.000  S
  C362     1.0000 0.12759  0.77988  0.55923  Biso   1.000  C
  C363     1.0000 0.05449  0.78579  0.57613  Biso   1.000  C
  C364     1.0000 0.20341  0.77329  0.56139  Biso   1.000  C
  H355     1.0000 0.07751  0.84888  0.12168  Biso   1.000  H
  H356     1.0000 0.09970  0.86049  0.18659  Biso   1.000  H
  C365     1.0000 0.08539  0.89698  0.13400  Biso   1.000  C
  O57      1.0000 0.88649  0.82380  0.38083  Biso   1.000  O
  O58      1.0000 0.83999  0.87499  0.41839  Biso   1.000  O
  C366     1.0000 0.91578  0.88528  0.42443  Biso   1.000  C
  O59      1.0000 0.12280  0.74508  0.59372  Biso   1.000  O
  C367     1.0000 0.03400  0.81990  0.61781  Biso   1.000  C
  H357     1.0000 0.05931  0.76420  0.60569  Biso   1.000  H
  H358     1.0000 0.03781  0.77730  0.54012  Biso   1.000  H
  H359     1.0000 0.19959  0.75228  0.59262  Biso   1.000  H
  H360     1.0000 0.21679  0.76400  0.52182  Biso   1.000  H
  C368     1.0000 0.22201  0.80190  0.58980  Biso   1.000  C
  H361     1.0000 0.10769  0.89480  0.10599  Biso   1.000  H
  H362     1.0000 0.06409  0.90569  0.10730  Biso   1.000  H
  H363     1.0000 0.09041  0.91558  0.16890  Biso   1.000  H
  C369     1.0000 0.95150  0.86880  0.40502  Biso   1.000  C
  C370     1.0000 0.90839  0.91679  0.46671  Biso   1.000  C
  C371     1.0000 0.11179  0.70819  0.55063  Biso   1.000  C
  C372     1.0000 0.05340  0.83030  0.67930  Biso   1.000  C
  C373     1.0000 0.00109  0.84220  0.60092  Biso   1.000  C
  C374     1.0000 0.21401  0.80869  0.65200  Biso   1.000  C
  C375     1.0000 0.25850  0.82489  0.57230  Biso   1.000  C
  C376     1.0000 0.98300  0.89039  0.43302  Biso   1.000  C
  H364     1.0000 0.95419  0.84710  0.37812  Biso   1.000  H
  C377     1.0000 0.94218  0.93490  0.49261  Biso   1.000  C
  H365     1.0000 0.88379  0.92518  0.47692  Biso   1.000  H
  H366     1.0000 0.08531  0.71000  0.53640  Biso   1.000  H
  H367     1.0000 0.12770  0.70710  0.51071  Biso   1.000  H
  C378     1.0000 0.11750  0.67179  0.59202  Biso   1.000  C
  C379     1.0000 0.04291  0.86100  0.71591  Biso   1.000  C
  O60      1.0000 0.08350  0.80720  0.70153  Biso   1.000  O
  C380     1.0000 0.99129  0.87290  0.63722  Biso   1.000  C
  H368     1.0000 0.98630  0.83529  0.56401  Biso   1.000  H
  C381     1.0000 0.22720  0.83678  0.68971  Biso   1.000  C
  O61      1.0000 0.18130  0.79350  0.69434  Biso   1.000  O
  C382     1.0000 0.27719  0.85378  0.60499  Biso   1.000  C
  H369     1.0000 0.26991  0.81778  0.53183  Biso   1.000  H
  C383     1.0000 0.97830  0.92329  0.47461  Biso   1.000  C
  H370     1.0000 0.00780  0.88230  0.42332  Biso   1.000  H
  H371     1.0000 0.93960  0.95508  0.52263  Biso   1.000  H
  H372     1.0000 0.09889  0.67250  0.62832  Biso   1.000  H
  H373     1.0000 0.11050  0.65029  0.56341  Biso   1.000  H
  C384     1.0000 0.14699  0.66459  0.61600  Biso   1.000  C
  C385     1.0000 0.06799  0.87588  0.77333  Biso   1.000  C
  C386     1.0000 0.01141  0.88110  0.69343  Biso   1.000  C
  C387     1.0000 0.07439  0.78008  0.75930  Biso   1.000  C
  H374     1.0000 0.97088  0.88829  0.62399  Biso   1.000  H
  C388     1.0000 0.21269  0.86229  0.76141  Biso   1.000  C
  C389     1.0000 0.26079  0.86069  0.66724  Biso   1.000  C
  C390     1.0000 0.19280  0.75658  0.72702  Biso   1.000  C
  H375     1.0000 0.29820  0.86708  0.58809  Biso   1.000  H
  C391     1.0000 0.01471  0.94158  0.50241  Biso   1.000  C
  H376     1.0000 0.14479  0.64229  0.64401  Biso   1.000  H
  H377     1.0000 0.15571  0.68589  0.64270  Biso   1.000  H
  H378     1.0000 0.16560  0.65961  0.58110  Biso   1.000  H
  C392     1.0000 0.10881  0.88640  0.74909  Biso   1.000  C
  H379     1.0000 0.06980  0.85639  0.80792  Biso   1.000  H
  H380     1.0000 0.05610  0.89838  0.79294  Biso   1.000  H
  H381     1.0000 0.00341  0.90200  0.71893  Biso   1.000  H
  H382     1.0000 0.05570  0.79218  0.78852  Biso   1.000  H
  H383     1.0000 0.09749  0.77590  0.78540  Biso   1.000  H
  C393     1.0000 0.05790  0.73938  0.73532  Biso   1.000  C
  C394     1.0000 0.17729  0.88288  0.73854  Biso   1.000  C
  H384     1.0000 0.20699  0.84510  0.79832  Biso   1.000  H
  H385     1.0000 0.23230  0.88030  0.77549  Biso   1.000  H
  H386     1.0000 0.27040  0.87998  0.69479  Biso   1.000  H
  H387     1.0000 0.21888  0.74958  0.71561  Biso   1.000  H
  H388     1.0000 0.17560  0.73580  0.71460  Biso   1.000  H
  C395     1.0000 0.18899  0.76819  0.80104  Biso   1.000  C
  C396     1.0000 0.05151  0.93929  0.47310  Biso   1.000  C
  C397     1.0000 0.01201  0.96228  0.56532  Biso   1.000  C
  C398     1.0000 0.11070  0.91398  0.69620  Biso   1.000  C
  C399     1.0000 0.14249  0.87210  0.77122  Biso   1.000  C
  H389     1.0000 0.03509  0.74308  0.70822  Biso   1.000  H
  H390     1.0000 0.07691  0.72628  0.70801  Biso   1.000  H
  C400     1.0000 0.04810  0.71479  0.79802  Biso   1.000  C
  C401     1.0000 0.17660  0.91028  0.69042  Biso   1.000  C
  H391     1.0000 0.16861  0.78671  0.81024  Biso   1.000  H
  H392     1.0000 0.21241  0.77389  0.82391  Biso   1.000  H
  C402     1.0000 0.17549  0.72379  0.80199  Biso   1.000  C
  C403     1.0000 0.08221  0.95239  0.50453  Biso   1.000  C
  H393     1.0000 0.05409  0.92828  0.43071  Biso   1.000  H
  H394     1.0000 0.98848  0.96589  0.58633  Biso   1.000  H
  C404     1.0000 0.04460  0.97618  0.59272  Biso   1.000  C
  C405     1.0000 0.14579  0.92848  0.66452  Biso   1.000  C
  H395     1.0000 0.08760  0.92369  0.68041  Biso   1.000  H
  O62      1.0000 0.13920  0.84630  0.82220  Biso   1.000  O
  H396     1.0000 0.03890  0.69019  0.78394  Biso   1.000  H
  H397     1.0000 0.02869  0.72748  0.82401  Biso   1.000  H
  H398     1.0000 0.07069  0.71160  0.82502  Biso   1.000  H
  H399     1.0000 0.20019  0.91750  0.67292  Biso   1.000  H
  H400     1.0000 0.19650  0.70819  0.81692  Biso   1.000  H
  H401     1.0000 0.16769  0.71599  0.75789  Biso   1.000  H
  H402     1.0000 0.15430  0.72080  0.83271  Biso   1.000  H
  C406     1.0000 0.08129  0.97208  0.56592  Biso   1.000  C
  H403     1.0000 0.10589  0.94820  0.48451  Biso   1.000  H
  H404     1.0000 0.04231  0.98968  0.63279  Biso   1.000  H
  N16      1.0000 0.14949  0.95448  0.61293  Biso   1.000  N
  C407     1.0000 0.14301  0.86679  0.88732  Biso   1.000  C
  S16      1.0000 0.12377  0.98939  0.60021  Biso   1.000  S
  H405     1.0000 0.12360  0.88660  0.89169  Biso   1.000  H
  H406     1.0000 0.16821  0.87849  0.89144  Biso   1.000  H
  C408     1.0000 0.13751  0.83569  0.93911  Biso   1.000  C
  O63      1.0000 0.11271  0.00631  0.66040  Biso   1.000  O
  O64      1.0000 0.14410  0.01041  0.55023  Biso   1.000  O
  H407     1.0000 0.16141  0.82248  0.94861  Biso   1.000  H
  H408     1.0000 0.11839  0.81720  0.92493  Biso   1.000  H
  O65      1.0000 0.83999  0.37499  0.58161  Biso   1.000  O
  S17      1.0000 0.87562  0.36450  0.61399  Biso   1.000  S
  N17      1.0000 0.87150  0.38150  0.68991  Biso   1.000  N
  O66      1.0000 0.88649  0.32380  0.61922  Biso   1.000  O
  C409     1.0000 0.91578  0.38528  0.57562  Biso   1.000  C
  C410     1.0000 0.90380  0.37921  0.73180  Biso   1.000  C
  C411     1.0000 0.95150  0.36880  0.59503  Biso   1.000  C
  C412     1.0000 0.90839  0.41679  0.53329  Biso   1.000  C
  C413     1.0000 0.91650  0.34530  0.75623  Biso   1.000  C
  C414     1.0000 0.92378  0.41220  0.74960  Biso   1.000  C
  C415     1.0000 0.98300  0.39039  0.56703  Biso   1.000  C
  H409     1.0000 0.95419  0.34710  0.62193  Biso   1.000  H
  C416     1.0000 0.94218  0.43490  0.50739  Biso   1.000  C
  H410     1.0000 0.88379  0.42518  0.52313  Biso   1.000  H
  C417     1.0000 0.94929  0.34360  0.79581  Biso   1.000  C
  H411     1.0000 0.90320  0.32291  0.74653  Biso   1.000  H
  C418     1.0000 0.95649  0.41269  0.79133  Biso   1.000  C
  H412     1.0000 0.91509  0.43550  0.73290  Biso   1.000  H
  C419     1.0000 0.97830  0.42329  0.52539  Biso   1.000  C
  H413     1.0000 0.00780  0.38230  0.57673  Biso   1.000  H
  H414     1.0000 0.93960  0.45508  0.47742  Biso   1.000  H
  C420     1.0000 0.96420  0.30451  0.82613  Biso   1.000  C
  C421     1.0000 0.97010  0.37760  0.80923  Biso   1.000  C
  C422     1.0000 0.97670  0.45339  0.81139  Biso   1.000  C
  C423     1.0000 0.01471  0.44158  0.49759  Biso   1.000  C
  C424     1.0000 0.93009  0.28401  0.86781  Biso   1.000  C
  H415     1.0000 0.98578  0.30929  0.85574  Biso   1.000  H
  H416     1.0000 0.97268  0.28779  0.79012  Biso   1.000  H
  O67      1.0000 0.00490  0.37279  0.84372  Biso   1.000  O
  C425     1.0000 0.94809  0.47199  0.83980  Biso   1.000  C
  H417     1.0000 0.99768  0.44961  0.84262  Biso   1.000  H
  H418     1.0000 0.98598  0.46681  0.77182  Biso   1.000  H
  C426     1.0000 0.05151  0.43929  0.52690  Biso   1.000  C
  C427     1.0000 0.01201  0.46231  0.43468  Biso   1.000  C
  C428     1.0000 0.91968  0.30339  0.92930  Biso   1.000  C
  C429     1.0000 0.90779  0.25110  0.85092  Biso   1.000  C
  C430     1.0000 0.04179  0.36181  0.80063  Biso   1.000  C
  C431     1.0000 0.94129  0.46400  0.90200  Biso   1.000  C
  C432     1.0000 0.92510  0.50848  0.82230  Biso   1.000  C
  C433     1.0000 0.08221  0.45239  0.49552  Biso   1.000  C
  H419     1.0000 0.05409  0.42831  0.56929  Biso   1.000  H
  H420     1.0000 0.98848  0.46589  0.41372  Biso   1.000  H
  C434     1.0000 0.04460  0.47621  0.40733  Biso   1.000  C
  C435     1.0000 0.88898  0.29290  0.96591  Biso   1.000  C
  O68      1.0000 0.94279  0.33349  0.95153  Biso   1.000  O
  C436     1.0000 0.87709  0.24130  0.88722  Biso   1.000  C
  H421     1.0000 0.91469  0.23628  0.81401  Biso   1.000  H
  H422     1.0000 0.03999  0.33529  0.78640  Biso   1.000  H
  H423     1.0000 0.04291  0.37769  0.76071  Biso   1.000  H
  C437     1.0000 0.07820  0.36748  0.84202  Biso   1.000  C
  C438     1.0000 0.91320  0.47718  0.93971  Biso   1.000  C
  O69      1.0000 0.95649  0.43129  0.94434  Biso   1.000  O
  C439     1.0000 0.89618  0.52720  0.85504  Biso   1.000  C
  H424     1.0000 0.93218  0.51989  0.78183  Biso   1.000  H
  C440     1.0000 0.08129  0.47208  0.43413  Biso   1.000  C
  H425     1.0000 0.10589  0.44820  0.51549  Biso   1.000  H
  H426     1.0000 0.04231  0.48968  0.36721  Biso   1.000  H
  C441     1.0000 0.87410  0.31801  0.02328  Biso   1.000  C
  C442     1.0000 0.86889  0.26139  0.94343  Biso   1.000  C
  C443     1.0000 0.96990  0.32440  0.00930  Biso   1.000  C
  H427     1.0000 0.86169  0.22089  0.87399  Biso   1.000  H
  H428     1.0000 0.07751  0.34891  0.87832  Biso   1.000  H
  H429     1.0000 0.09970  0.36049  0.81341  Biso   1.000  H
  C444     1.0000 0.08539  0.39701  0.86600  Biso   1.000  C
  C445     1.0000 0.88769  0.46271  0.01141  Biso   1.000  C
  C446     1.0000 0.88930  0.51081  0.91724  Biso   1.000  C
  C447     1.0000 0.99338  0.44279  0.97702  Biso   1.000  C
  H430     1.0000 0.88288  0.54819  0.83809  Biso   1.000  H
  S18      1.0000 0.12377  0.48939  0.39979  Biso   1.000  S
  C448     1.0000 0.86358  0.35880  0.99915  Biso   1.000  C
  H431     1.0000 0.89360  0.31978  0.05792  Biso   1.000  H
  H432     1.0000 0.85160  0.30608  0.04289  Biso   1.000  H
  H433     1.0000 0.84799  0.25340  0.96893  Biso   1.000  H
  H434     1.0000 0.95778  0.30571  0.03852  Biso   1.000  H
  H435     1.0000 0.97409  0.34750  0.03540  Biso   1.000  H
  C449     1.0000 0.01061  0.30789  0.98532  Biso   1.000  C
  H436     1.0000 0.10769  0.39480  0.89401  Biso   1.000  H
  H437     1.0000 0.06409  0.40569  0.89270  Biso   1.000  H
  H438     1.0000 0.09041  0.41558  0.83110  Biso   1.000  H
  C450     1.0000 0.86708  0.42731  0.98854  Biso   1.000  C
  H439     1.0000 0.90489  0.45700  0.04832  Biso   1.000  H
  H440     1.0000 0.86969  0.48229  0.02549  Biso   1.000  H
  H441     1.0000 0.86998  0.52038  0.94484  Biso   1.000  H
  C451     1.0000 0.98180  0.43900  0.05099  Biso   1.000  C
  H442     1.0000 0.00040  0.46890  0.96561  Biso   1.000  H
  H443     1.0000 0.01419  0.42559  0.96460  Biso   1.000  H
  O70      1.0000 0.11271  0.50631  0.33960  Biso   1.000  O
  O71      1.0000 0.14410  0.51041  0.44982  Biso   1.000  O
  N18      1.0000 0.14949  0.45451  0.38712  Biso   1.000  N
  C452     1.0000 0.83598  0.36069  0.94620  Biso   1.000  C
  C453     1.0000 0.87789  0.39251  0.02122  Biso   1.000  C
  H444     1.0000 0.00691  0.28510  0.95822  Biso   1.000  H
  H445     1.0000 0.02371  0.32689  0.95801  Biso   1.000  H
  C454     1.0000 0.03520  0.29809  0.04802  Biso   1.000  C
  C455     1.0000 0.83968  0.42659  0.94042  Biso   1.000  C
  H446     1.0000 0.96328  0.41859  0.06019  Biso   1.000  H
  H447     1.0000 0.97609  0.46239  0.07391  Biso   1.000  H
  C456     1.0000 0.02620  0.42550  0.05199  Biso   1.000  C
  C457     1.0000 0.14579  0.42848  0.33553  Biso   1.000  C
  C458     1.0000 0.82150  0.39580  0.91452  Biso   1.000  C
  H448     1.0000 0.82629  0.33759  0.93041  Biso   1.000  H
  O72      1.0000 0.90369  0.38918  0.07220  Biso   1.000  O
  H449     1.0000 0.05979  0.28888  0.03389  Biso   1.000  H
  H450     1.0000 0.02250  0.27871  0.07401  Biso   1.000  H
  H451     1.0000 0.03841  0.32070  0.07502  Biso   1.000  H
  H452     1.0000 0.83248  0.45018  0.92292  Biso   1.000  H
  H453     1.0000 0.04179  0.44648  0.06692  Biso   1.000  H
  H454     1.0000 0.03400  0.41770  0.00789  Biso   1.000  H
  H455     1.0000 0.02921  0.40429  0.08271  Biso   1.000  H
  C459     1.0000 0.11070  0.41401  0.30380  Biso   1.000  C
  C460     1.0000 0.17660  0.41031  0.30958  Biso   1.000  C
  N19      1.0000 0.79548  0.39950  0.86293  Biso   1.000  N
  C461     1.0000 0.88319  0.39299  0.13732  Biso   1.000  C
  C462     1.0000 0.10881  0.38640  0.25091  Biso   1.000  C
  H456     1.0000 0.08760  0.42369  0.31959  Biso   1.000  H
  C463     1.0000 0.17729  0.38290  0.26151  Biso   1.000  C
  H457     1.0000 0.20019  0.41750  0.32708  Biso   1.000  H
  S19      1.0000 0.76059  0.37379  0.85021  Biso   1.000  S
  H458     1.0000 0.86338  0.37359  0.14169  Biso   1.000  H
  H459     1.0000 0.87150  0.41819  0.14139  Biso   1.000  H
  C464     1.0000 0.91429  0.38749  0.18911  Biso   1.000  C
  C465     1.0000 0.14249  0.37210  0.22878  Biso   1.000  C
  C466     1.0000 0.06799  0.37588  0.22672  Biso   1.000  C
  C467     1.0000 0.21269  0.36229  0.23859  Biso   1.000  C
  C468     1.0000 0.77791  0.33131  0.81592  Biso   1.000  C
  O73      1.0000 0.74368  0.36270  0.91040  Biso   1.000  O
  O74      1.0000 0.73958  0.39408  0.80023  Biso   1.000  O
  H460     1.0000 0.92748  0.41140  0.19861  Biso   1.000  H
  H461     1.0000 0.93278  0.36840  0.17488  Biso   1.000  H
  O75      1.0000 0.13920  0.34630  0.17780  Biso   1.000  O
  H462     1.0000 0.06980  0.35639  0.19213  Biso   1.000  H
  H463     1.0000 0.05610  0.39838  0.20711  Biso   1.000  H
  C469     1.0000 0.04291  0.36100  0.28409  Biso   1.000  C
  C470     1.0000 0.22720  0.33678  0.31029  Biso   1.000  C
  H464     1.0000 0.20699  0.34510  0.20168  Biso   1.000  H
  H465     1.0000 0.23230  0.38030  0.22451  Biso   1.000  H
  C471     1.0000 0.79760  0.33220  0.75453  Biso   1.000  C
  C472     1.0000 0.77378  0.29459  0.84272  Biso   1.000  C
  C473     1.0000 0.14301  0.36679  0.11268  Biso   1.000  C
  C474     1.0000 0.01141  0.38110  0.30662  Biso   1.000  C
  C475     1.0000 0.05340  0.33030  0.32070  Biso   1.000  C
  C476     1.0000 0.26079  0.36069  0.33281  Biso   1.000  C
  C477     1.0000 0.21401  0.30869  0.34800  Biso   1.000  C
  C478     1.0000 0.81070  0.30150  0.72310  Biso   1.000  C
  H466     1.0000 0.80178  0.35590  0.73451  Biso   1.000  H
  C479     1.0000 0.78768  0.26200  0.81532  Biso   1.000  C
  H467     1.0000 0.76030  0.29229  0.88279  Biso   1.000  H
  H468     1.0000 0.12360  0.38660  0.10831  Biso   1.000  H
  H469     1.0000 0.16821  0.37849  0.10861  Biso   1.000  H
  C480     1.0000 0.13751  0.33569  0.06089  Biso   1.000  C
  C481     1.0000 0.99129  0.37290  0.36283  Biso   1.000  C
  H470     1.0000 0.00341  0.40200  0.28112  Biso   1.000  H
  C482     1.0000 0.03400  0.31990  0.38219  Biso   1.000  C
  O76      1.0000 0.08350  0.30720  0.29852  Biso   1.000  O
  C483     1.0000 0.27719  0.35381  0.39501  Biso   1.000  C
  H471     1.0000 0.27040  0.38001  0.30521  Biso   1.000  H
  C484     1.0000 0.22201  0.30190  0.41020  Biso   1.000  C
  O77      1.0000 0.18130  0.29350  0.30571  Biso   1.000  O
  C485     1.0000 0.80840  0.26469  0.75241  Biso   1.000  C
  H472     1.0000 0.82168  0.30410  0.68071  Biso   1.000  H
  H473     1.0000 0.78410  0.23849  0.83633  Biso   1.000  H
  H474     1.0000 0.16141  0.32251  0.05139  Biso   1.000  H
  H475     1.0000 0.11839  0.31720  0.07512  Biso   1.000  H
  C486     1.0000 0.00109  0.34220  0.39908  Biso   1.000  C
  H476     1.0000 0.97088  0.38829  0.37601  Biso   1.000  H
  C487     1.0000 0.05449  0.28579  0.42392  Biso   1.000  C
  C488     1.0000 0.07439  0.28008  0.24070  Biso   1.000  C
  C489     1.0000 0.25850  0.32489  0.42770  Biso   1.000  C
  H477     1.0000 0.29820  0.36711  0.41191  Biso   1.000  H
  C490     1.0000 0.20341  0.27329  0.43861  Biso   1.000  C
  C491     1.0000 0.19280  0.25661  0.27303  Biso   1.000  C
  C492     1.0000 0.82669  0.22829  0.72461  Biso   1.000  C
  H478     1.0000 0.98630  0.33529  0.43599  Biso   1.000  H
  C493     1.0000 0.09359  0.30069  0.45419  Biso   1.000  C
  H479     1.0000 0.05931  0.26420  0.39431  Biso   1.000  H
  H480     1.0000 0.03781  0.27730  0.45993  Biso   1.000  H
  H481     1.0000 0.05570  0.29221  0.21148  Biso   1.000  H
  H482     1.0000 0.09749  0.27590  0.21460  Biso   1.000  H
  C494     1.0000 0.05790  0.23941  0.26468  Biso   1.000  C
  H483     1.0000 0.26991  0.31781  0.46822  Biso   1.000  H
  C495     1.0000 0.16270  0.29350  0.45872  Biso   1.000  C
  H484     1.0000 0.19959  0.25231  0.40743  Biso   1.000  H
  H485     1.0000 0.21679  0.26400  0.47823  Biso   1.000  H
  H486     1.0000 0.21888  0.24958  0.28439  Biso   1.000  H
  H487     1.0000 0.17560  0.23580  0.28540  Biso   1.000  H
  C496     1.0000 0.18899  0.26819  0.19901  Biso   1.000  C
  C497     1.0000 0.85960  0.23299  0.68302  Biso   1.000  C
  C498     1.0000 0.81508  0.19220  0.74261  Biso   1.000  C
  C499     1.0000 0.09531  0.33349  0.49382  Biso   1.000  C
  C500     1.0000 0.12759  0.27988  0.44082  Biso   1.000  C
  H488     1.0000 0.03509  0.24311  0.29178  Biso   1.000  H
  H489     1.0000 0.07691  0.22631  0.29199  Biso   1.000  H
  C501     1.0000 0.04810  0.21479  0.20198  Biso   1.000  C
  C502     1.0000 0.16219  0.32621  0.50040  Biso   1.000  C
  H490     1.0000 0.16861  0.28671  0.18981  Biso   1.000  H
  H491     1.0000 0.21241  0.27389  0.17609  Biso   1.000  H
  C503     1.0000 0.17549  0.22379  0.19801  Biso   1.000  C
  C504     1.0000 0.88118  0.20148  0.65502  Biso   1.000  C
  H492     1.0000 0.86768  0.25781  0.67332  Biso   1.000  H
  C505     1.0000 0.83320  0.15840  0.71671  Biso   1.000  C
  H493     1.0000 0.79490  0.18959  0.77263  Biso   1.000  H
  C506     1.0000 0.12919  0.34618  0.51820  Biso   1.000  C
  H494     1.0000 0.07289  0.34679  0.50352  Biso   1.000  H
  O78      1.0000 0.12280  0.24508  0.40633  Biso   1.000  O
  H495     1.0000 0.03890  0.19019  0.21611  Biso   1.000  H
  H496     1.0000 0.02869  0.22748  0.17599  Biso   1.000  H
  H497     1.0000 0.07069  0.21160  0.17498  Biso   1.000  H
  H498     1.0000 0.18549  0.33489  0.51710  Biso   1.000  H
  H499     1.0000 0.19650  0.20819  0.18313  Biso   1.000  H
  H500     1.0000 0.16769  0.21599  0.24211  Biso   1.000  H
  H501     1.0000 0.15430  0.22080  0.16729  Biso   1.000  H
  C507     1.0000 0.86470  0.16580  0.67443  Biso   1.000  C
  H502     1.0000 0.90288  0.20421  0.62812  Biso   1.000  H
  H503     1.0000 0.82480  0.13381  0.72692  Biso   1.000  H
  N20      1.0000 0.13149  0.37849  0.56009  Biso   1.000  N
  C508     1.0000 0.11179  0.20819  0.44942  Biso   1.000  C
  S20      1.0000 0.88548  0.12561  0.63601  Biso   1.000  S
  S21      1.0000 0.11449  0.37436  0.63601  Biso   1.000  S
  H504     1.0000 0.08531  0.21000  0.46360  Biso   1.000  H
  H505     1.0000 0.12770  0.20710  0.48929  Biso   1.000  H
  C509     1.0000 0.11750  0.17179  0.40798  Biso   1.000  C
  N21      1.0000 0.86849  0.12151  0.56009  Biso   1.000  N
  O79      1.0000 0.92619  0.13650  0.63083  Biso   1.000  O
  O80      1.0000 0.87499  0.09001  0.66839  Biso   1.000  O
  C510     1.0000 0.13530  0.33420  0.67443  Biso   1.000  C
  O81      1.0000 0.07381  0.36350  0.63083  Biso   1.000  O
  O82      1.0000 0.12501  0.40999  0.66839  Biso   1.000  O
  H506     1.0000 0.09889  0.17250  0.37173  Biso   1.000  H
  H507     1.0000 0.11050  0.15029  0.43659  Biso   1.000  H
  C511     1.0000 0.14699  0.16459  0.38400  Biso   1.000  C
  C512     1.0000 0.87078  0.15379  0.51820  Biso   1.000  C
  C513     1.0000 0.11879  0.29849  0.65502  Biso   1.000  C
  C514     1.0000 0.16680  0.34160  0.71671  Biso   1.000  C
  H508     1.0000 0.14479  0.14229  0.35599  Biso   1.000  H
  H509     1.0000 0.15571  0.18589  0.35730  Biso   1.000  H
  H510     1.0000 0.16560  0.15961  0.41890  Biso   1.000  H
  C515     1.0000 0.83779  0.17379  0.50040  Biso   1.000  C
  C516     1.0000 0.90469  0.16649  0.49382  Biso   1.000  C
  C517     1.0000 0.14040  0.26698  0.68302  Biso   1.000  C
  H511     1.0000 0.09709  0.29579  0.62812  Biso   1.000  H
  C518     1.0000 0.18489  0.30780  0.74261  Biso   1.000  C
  H512     1.0000 0.17520  0.36619  0.72692  Biso   1.000  H
  C519     1.0000 0.83730  0.20650  0.45872  Biso   1.000  C
  H513     1.0000 0.81448  0.16511  0.51710  Biso   1.000  H
  C520     1.0000 0.90638  0.19931  0.45419  Biso   1.000  C
  H514     1.0000 0.92708  0.15318  0.50352  Biso   1.000  H
  C521     1.0000 0.17331  0.27168  0.72461  Biso   1.000  C
  H515     1.0000 0.13229  0.24219  0.67332  Biso   1.000  H
  H516     1.0000 0.20510  0.31038  0.77263  Biso   1.000  H
  C522     1.0000 0.79659  0.22671  0.43861  Biso   1.000  C
  C523     1.0000 0.87238  0.22009  0.44082  Biso   1.000  C
  C524     1.0000 0.94548  0.21418  0.42392  Biso   1.000  C
  C525     1.0000 0.19160  0.23531  0.75241  Biso   1.000  C
  C526     1.0000 0.77799  0.19810  0.41020  Biso   1.000  C
  H517     1.0000 0.80038  0.24769  0.40743  Biso   1.000  H
  H518     1.0000 0.78318  0.23600  0.47823  Biso   1.000  H
  O83      1.0000 0.87720  0.25489  0.40633  Biso   1.000  O
  C527     1.0000 0.96597  0.18010  0.38219  Biso   1.000  C
  H519     1.0000 0.94069  0.23580  0.39431  Biso   1.000  H
  H520     1.0000 0.96219  0.22270  0.45993  Biso   1.000  H
  C528     1.0000 0.18930  0.19850  0.72310  Biso   1.000  C
  C529     1.0000 0.21229  0.23800  0.81532  Biso   1.000  C
  C530     1.0000 0.74150  0.17508  0.42770  Biso   1.000  C
  C531     1.0000 0.78599  0.19131  0.34800  Biso   1.000  C
  C532     1.0000 0.88818  0.29181  0.44942  Biso   1.000  C
  C533     1.0000 0.99888  0.15780  0.39908  Biso   1.000  C
  C534     1.0000 0.94660  0.16970  0.32070  Biso   1.000  C
  C535     1.0000 0.20240  0.16780  0.75453  Biso   1.000  C
  H521     1.0000 0.17830  0.19590  0.68071  Biso   1.000  H
  C536     1.0000 0.22619  0.20541  0.84272  Biso   1.000  C
  H522     1.0000 0.21590  0.26151  0.83633  Biso   1.000  H
  C537     1.0000 0.72278  0.14619  0.39501  Biso   1.000  C
  H523     1.0000 0.73009  0.18219  0.46822  Biso   1.000  H
  C538     1.0000 0.77280  0.16319  0.31029  Biso   1.000  C
  O84      1.0000 0.81870  0.20650  0.30571  Biso   1.000  O
  H524     1.0000 0.91469  0.29000  0.46360  Biso   1.000  H
  H525     1.0000 0.87230  0.29290  0.48929  Biso   1.000  H
  C539     1.0000 0.88250  0.32818  0.40798  Biso   1.000  C
  C540     1.0000 0.00871  0.12710  0.36283  Biso   1.000  C
  H526     1.0000 0.01370  0.16471  0.43599  Biso   1.000  H
  C541     1.0000 0.95709  0.13900  0.28409  Biso   1.000  C
  O85      1.0000 0.91650  0.19280  0.29852  Biso   1.000  O
  C542     1.0000 0.22209  0.16869  0.81592  Biso   1.000  C
  H527     1.0000 0.19819  0.14410  0.73451  Biso   1.000  H
  H528     1.0000 0.23970  0.20771  0.88279  Biso   1.000  H
  H529     1.0000 0.70180  0.13289  0.41191  Biso   1.000  H
  C543     1.0000 0.73918  0.13931  0.33281  Biso   1.000  C
  C544     1.0000 0.78728  0.13771  0.23859  Biso   1.000  C
  C545     1.0000 0.80720  0.24339  0.27303  Biso   1.000  C
  H530     1.0000 0.90108  0.32750  0.37173  Biso   1.000  H
  H531     1.0000 0.88950  0.34968  0.43659  Biso   1.000  H
  C546     1.0000 0.85298  0.33541  0.38400  Biso   1.000  C
  C547     1.0000 0.98859  0.11890  0.30662  Biso   1.000  C
  H532     1.0000 0.02909  0.11171  0.37601  Biso   1.000  H
  C548     1.0000 0.93198  0.12409  0.22672  Biso   1.000  C
  C549     1.0000 0.92559  0.21989  0.24070  Biso   1.000  C
  S22      1.0000 0.23941  0.12621  0.85021  Biso   1.000  S
  H533     1.0000 0.72960  0.11999  0.30521  Biso   1.000  H
  H534     1.0000 0.79298  0.15490  0.20168  Biso   1.000  H
  H535     1.0000 0.76770  0.11970  0.22451  Biso   1.000  H
  C550     1.0000 0.82268  0.11710  0.26151  Biso   1.000  C
  H536     1.0000 0.78109  0.25039  0.28439  Biso   1.000  H
  H537     1.0000 0.82440  0.26420  0.28540  Biso   1.000  H
  C551     1.0000 0.81098  0.23178  0.19901  Biso   1.000  C
  H538     1.0000 0.85519  0.35771  0.35599  Biso   1.000  H
  H539     1.0000 0.84429  0.31411  0.35730  Biso   1.000  H
  H540     1.0000 0.83440  0.34039  0.41890  Biso   1.000  H
  H541     1.0000 0.99659  0.09800  0.28112  Biso   1.000  H
  C552     1.0000 0.89119  0.11360  0.25091  Biso   1.000  C
  H542     1.0000 0.93020  0.14361  0.19213  Biso   1.000  H
  H543     1.0000 0.94390  0.10159  0.20711  Biso   1.000  H
  H544     1.0000 0.94428  0.20779  0.21148  Biso   1.000  H
  H545     1.0000 0.90248  0.22410  0.21460  Biso   1.000  H
  C553     1.0000 0.94210  0.26059  0.26468  Biso   1.000  C
  N22      1.0000 0.20449  0.10050  0.86293  Biso   1.000  N
  O86      1.0000 0.25629  0.13730  0.91040  Biso   1.000  O
  O87      1.0000 0.26039  0.10589  0.80023  Biso   1.000  O
  C554     1.0000 0.85748  0.12790  0.22878  Biso   1.000  C
  C555     1.0000 0.82340  0.08969  0.30958  Biso   1.000  C
  H546     1.0000 0.83139  0.21329  0.18981  Biso   1.000  H
  H547     1.0000 0.78759  0.22611  0.17609  Biso   1.000  H
  C556     1.0000 0.82449  0.27619  0.19801  Biso   1.000  C
  C557     1.0000 0.88930  0.08599  0.30380  Biso   1.000  C
  H548     1.0000 0.96489  0.25689  0.29178  Biso   1.000  H
  H549     1.0000 0.92309  0.27369  0.29199  Biso   1.000  H
  C558     1.0000 0.95190  0.28519  0.20198  Biso   1.000  C
  C559     1.0000 0.17850  0.10420  0.91452  Biso   1.000  C
  O88      1.0000 0.86080  0.15370  0.17780  Biso   1.000  O
  C560     1.0000 0.85418  0.07149  0.33553  Biso   1.000  C
  H550     1.0000 0.79981  0.08250  0.32708  Biso   1.000  H
  H551     1.0000 0.80350  0.29181  0.18313  Biso   1.000  H
  H552     1.0000 0.83228  0.28401  0.24211  Biso   1.000  H
  H553     1.0000 0.84570  0.27920  0.16729  Biso   1.000  H
  H554     1.0000 0.91240  0.07631  0.31959  Biso   1.000  H
  H555     1.0000 0.96110  0.30981  0.21611  Biso   1.000  H
  H556     1.0000 0.97128  0.27249  0.17599  Biso   1.000  H
  H557     1.0000 0.92928  0.28840  0.17498  Biso   1.000  H
  C561     1.0000 0.16399  0.13931  0.94620  Biso   1.000  C
  C562     1.0000 0.16029  0.07341  0.94042  Biso   1.000  C
  C563     1.0000 0.85699  0.13321  0.11268  Biso   1.000  C
  N23      1.0000 0.85048  0.04549  0.38712  Biso   1.000  N
  C564     1.0000 0.13639  0.14120  0.99915  Biso   1.000  C
  H558     1.0000 0.17371  0.16239  0.93041  Biso   1.000  H
  C565     1.0000 0.13289  0.07269  0.98854  Biso   1.000  C
  H559     1.0000 0.16749  0.04979  0.92292  Biso   1.000  H
  H560     1.0000 0.87640  0.11340  0.10831  Biso   1.000  H
  H561     1.0000 0.83179  0.12151  0.10861  Biso   1.000  H
  C566     1.0000 0.86249  0.16431  0.06089  Biso   1.000  C
  S23      1.0000 0.87620  0.01058  0.39979  Biso   1.000  S
  C567     1.0000 0.12590  0.18199  0.02328  Biso   1.000  C
  C568     1.0000 0.12211  0.10749  0.02122  Biso   1.000  C
  C569     1.0000 0.11231  0.03729  0.01141  Biso   1.000  C
  H562     1.0000 0.83859  0.17749  0.05139  Biso   1.000  H
  H563     1.0000 0.88159  0.18280  0.07512  Biso   1.000  H
  C570     1.0000 0.91868  0.02789  0.43413  Biso   1.000  C
  O89      1.0000 0.88729  0.99369  0.33960  Biso   1.000  O
  O90      1.0000 0.85590  0.98959  0.44982  Biso   1.000  O
  C571     1.0000 0.11099  0.20710  0.96591  Biso   1.000  C
  H564     1.0000 0.10640  0.18019  0.05792  Biso   1.000  H
  H565     1.0000 0.14840  0.19389  0.04289  Biso   1.000  H
  O91      1.0000 0.09629  0.11079  0.07220  Biso   1.000  O
  C572     1.0000 0.08680  0.02279  0.93971  Biso   1.000  C
  H566     1.0000 0.09511  0.04300  0.04832  Biso   1.000  H
  H567     1.0000 0.13031  0.01769  0.02549  Biso   1.000  H
  C573     1.0000 0.91779  0.04761  0.49552  Biso   1.000  C
  C574     1.0000 0.95540  0.02379  0.40733  Biso   1.000  C
  C575     1.0000 0.08029  0.19661  0.92930  Biso   1.000  C
  C576     1.0000 0.13111  0.23861  0.94343  Biso   1.000  C
  C577     1.0000 0.11681  0.10701  0.13732  Biso   1.000  C
  C578     1.0000 0.05871  0.03600  0.90200  Biso   1.000  C
  C579     1.0000 0.11070  0.98919  0.91724  Biso   1.000  C
  H568     1.0000 0.89408  0.05180  0.51549  Biso   1.000  H
  C580     1.0000 0.94849  0.06071  0.52690  Biso   1.000  C
  C581     1.0000 0.98799  0.03769  0.43468  Biso   1.000  C
  H569     1.0000 0.95769  0.01029  0.36721  Biso   1.000  H
  C582     1.0000 0.06991  0.21599  0.86781  Biso   1.000  C
  O92      1.0000 0.05719  0.16649  0.95153  Biso   1.000  O
  C583     1.0000 0.12289  0.25870  0.88722  Biso   1.000  C
  H570     1.0000 0.15201  0.24660  0.96893  Biso   1.000  H
  H571     1.0000 0.13659  0.12641  0.14169  Biso   1.000  H
  H572     1.0000 0.12850  0.08181  0.14139  Biso   1.000  H
  C584     1.0000 0.08571  0.11251  0.18911  Biso   1.000  C
  C585     1.0000 0.05191  0.02801  0.83980  Biso   1.000  C
  O93      1.0000 0.04351  0.06871  0.94434  Biso   1.000  O
  C586     1.0000 0.10380  0.97280  0.85504  Biso   1.000  C
  H573     1.0000 0.12999  0.97959  0.94484  Biso   1.000  H
  H574     1.0000 0.94588  0.07169  0.56929  Biso   1.000  H
  C587     1.0000 0.98529  0.05839  0.49759  Biso   1.000  C
  H575     1.0000 0.01149  0.03411  0.41372  Biso   1.000  H
  C588     1.0000 0.03580  0.19549  0.82613  Biso   1.000  C
  C589     1.0000 0.09219  0.24890  0.85092  Biso   1.000  C
  C590     1.0000 0.03010  0.17560  0.00930  Biso   1.000  C
  H576     1.0000 0.13831  0.27911  0.87399  Biso   1.000  H
  H577     1.0000 0.07249  0.08860  0.19861  Biso   1.000  H
  H578     1.0000 0.06719  0.13160  0.17488  Biso   1.000  H
  C591     1.0000 0.02330  0.04661  0.81139  Biso   1.000  C
  C592     1.0000 0.07490  0.99149  0.82230  Biso   1.000  C
  C593     1.0000 0.00659  0.05719  0.97702  Biso   1.000  C
  H579     1.0000 0.11710  0.95179  0.83809  Biso   1.000  H
  C594     1.0000 0.02170  0.07671  0.52539  Biso   1.000  C
  C595     1.0000 0.05071  0.15640  0.79581  Biso   1.000  C
  H580     1.0000 0.01419  0.19071  0.85574  Biso   1.000  H
  H581     1.0000 0.02729  0.21221  0.79012  Biso   1.000  H
  H582     1.0000 0.08531  0.26369  0.81401  Biso   1.000  H
  C596     1.0000 0.98939  0.19211  0.98532  Biso   1.000  C
  H583     1.0000 0.04219  0.19429  0.03852  Biso   1.000  H
  H584     1.0000 0.02591  0.15250  0.03540  Biso   1.000  H
  C597     1.0000 0.04351  0.08731  0.79133  Biso   1.000  C
  H585     1.0000 0.00229  0.05039  0.84262  Biso   1.000  H
  H586     1.0000 0.01399  0.03319  0.77182  Biso   1.000  H
  H587     1.0000 0.06779  0.98008  0.78183  Biso   1.000  H
  H588     1.0000 0.99960  0.03110  0.96561  Biso   1.000  H
  H589     1.0000 0.98578  0.07439  0.96460  Biso   1.000  H
  C598     1.0000 0.01820  0.06100  0.05099  Biso   1.000  C
  C599     1.0000 0.01700  0.10959  0.56703  Biso   1.000  C
  C600     1.0000 0.05779  0.06510  0.50739  Biso   1.000  C
  C601     1.0000 0.08350  0.15470  0.75623  Biso   1.000  C
  C602     1.0000 0.02990  0.12240  0.80923  Biso   1.000  C
  H590     1.0000 0.99309  0.21490  0.95822  Biso   1.000  H
  H591     1.0000 0.97629  0.17311  0.95801  Biso   1.000  H
  C603     1.0000 0.96480  0.20189  0.04802  Biso   1.000  C
  C604     1.0000 0.07619  0.08780  0.74960  Biso   1.000  C
  C605     1.0000 0.97380  0.07450  0.05199  Biso   1.000  C
  H592     1.0000 0.03669  0.08141  0.06019  Biso   1.000  H
  H593     1.0000 0.02391  0.03761  0.07391  Biso   1.000  H
  H594     1.0000 0.99217  0.11770  0.57673  Biso   1.000  H
  C606     1.0000 0.04850  0.13120  0.59503  Biso   1.000  C
  H595     1.0000 0.06040  0.04489  0.47742  Biso   1.000  H
  C607     1.0000 0.09161  0.08319  0.53329  Biso   1.000  C
  C608     1.0000 0.09620  0.12079  0.73180  Biso   1.000  C
  H596     1.0000 0.09680  0.17709  0.74653  Biso   1.000  H
  O94      1.0000 0.99510  0.12719  0.84372  Biso   1.000  O
  H597     1.0000 0.94018  0.21109  0.03389  Biso   1.000  H
  H598     1.0000 0.97750  0.22129  0.07401  Biso   1.000  H
  H599     1.0000 0.96159  0.17930  0.07502  Biso   1.000  H
  H600     1.0000 0.08491  0.06450  0.73290  Biso   1.000  H
  H601     1.0000 0.95818  0.05349  0.06692  Biso   1.000  H
  H602     1.0000 0.96597  0.08230  0.00789  Biso   1.000  H
  H603     1.0000 0.97079  0.09571  0.08271  Biso   1.000  H
  C609     1.0000 0.08419  0.11469  0.57562  Biso   1.000  C
  H604     1.0000 0.04581  0.15290  0.62193  Biso   1.000  H
  H605     1.0000 0.11621  0.07479  0.52313  Biso   1.000  H
  N24      1.0000 0.12850  0.11850  0.68991  Biso   1.000  N
  C610     1.0000 0.95818  0.13819  0.80063  Biso   1.000  C
  S24      1.0000 0.12438  0.13550  0.61399  Biso   1.000  S
  H606     1.0000 0.95998  0.16471  0.78640  Biso   1.000  H
  H607     1.0000 0.95709  0.12231  0.76071  Biso   1.000  H
  C611     1.0000 0.92180  0.13249  0.84202  Biso   1.000  C
  O95      1.0000 0.11351  0.17620  0.61922  Biso   1.000  O
  O96      1.0000 0.16001  0.12501  0.58161  Biso   1.000  O
  H608     1.0000 0.92249  0.15109  0.87832  Biso   1.000  H
  H609     1.0000 0.90030  0.13951  0.81341  Biso   1.000  H
  C612     1.0000 0.91458  0.10299  0.86600  Biso   1.000  C
  H610     1.0000 0.89228  0.10520  0.89401  Biso   1.000  H
  H611     1.0000 0.93588  0.09431  0.89270  Biso   1.000  H
  H612     1.0000 0.90959  0.08439  0.83110  Biso   1.000  H
  C613     1.0000 0.58539  0.39701  0.63400  Biso   1.000  C
  C614     1.0000 0.57820  0.36748  0.65803  Biso   1.000  C
  H613     1.0000 0.60769  0.39480  0.60599  Biso   1.000  H
  H614     1.0000 0.56409  0.40569  0.60730  Biso   1.000  H
  H615     1.0000 0.59038  0.41558  0.66890  Biso   1.000  H
  C615     1.0000 0.54179  0.36181  0.69942  Biso   1.000  C
  H616     1.0000 0.57748  0.34891  0.62173  Biso   1.000  H
  H617     1.0000 0.59970  0.36049  0.68659  Biso   1.000  H
  O97      1.0000 0.50490  0.37279  0.65633  Biso   1.000  O
  H618     1.0000 0.53999  0.33529  0.71360  Biso   1.000  H
  H619     1.0000 0.54288  0.37769  0.73929  Biso   1.000  H
  C616     1.0000 0.47010  0.37760  0.69082  Biso   1.000  C
  C617     1.0000 0.44929  0.34360  0.70419  Biso   1.000  C
  C618     1.0000 0.45649  0.41269  0.70872  Biso   1.000  C
  C619     1.0000 0.46420  0.30451  0.67392  Biso   1.000  C
  C620     1.0000 0.41650  0.34530  0.74382  Biso   1.000  C
  C621     1.0000 0.47670  0.45339  0.68861  Biso   1.000  C
  C622     1.0000 0.42381  0.41220  0.75040  Biso   1.000  C
  C623     1.0000 0.43009  0.28401  0.63219  Biso   1.000  C
  H620     1.0000 0.48578  0.30929  0.64431  Biso   1.000  H
  H621     1.0000 0.47268  0.28779  0.70993  Biso   1.000  H
  H622     1.0000 0.40320  0.32291  0.75352  Biso   1.000  H
  C624     1.0000 0.40380  0.37921  0.76820  Biso   1.000  C
  C625     1.0000 0.44809  0.47199  0.66020  Biso   1.000  C
  H623     1.0000 0.49771  0.44961  0.65743  Biso   1.000  H
  H624     1.0000 0.48598  0.46681  0.72823  Biso   1.000  H
  H625     1.0000 0.41509  0.43550  0.76710  Biso   1.000  H
  C626     1.0000 0.41968  0.30339  0.57070  Biso   1.000  C
  C627     1.0000 0.40779  0.25110  0.64914  Biso   1.000  C
  N25      1.0000 0.37150  0.38150  0.81014  Biso   1.000  N
  C628     1.0000 0.44129  0.46400  0.59800  Biso   1.000  C
  C629     1.0000 0.42510  0.50848  0.67770  Biso   1.000  C
  C630     1.0000 0.38898  0.29290  0.53409  Biso   1.000  C
  O98      1.0000 0.44279  0.33349  0.54852  Biso   1.000  O
  C631     1.0000 0.37709  0.24130  0.61283  Biso   1.000  C
  H626     1.0000 0.41469  0.23628  0.68599  Biso   1.000  H
  S25      1.0000 0.37562  0.36450  0.88601  Biso   1.000  S
  C632     1.0000 0.41320  0.47718  0.56029  Biso   1.000  C
  O99      1.0000 0.45649  0.43129  0.55571  Biso   1.000  O
  C633     1.0000 0.39620  0.52720  0.64501  Biso   1.000  C
  H627     1.0000 0.43221  0.51989  0.71822  Biso   1.000  H
  C634     1.0000 0.37410  0.31801  0.47672  Biso   1.000  C
  C635     1.0000 0.36889  0.26139  0.55662  Biso   1.000  C
  C636     1.0000 0.46990  0.32440  0.49070  Biso   1.000  C
  H628     1.0000 0.36169  0.22089  0.62601  Biso   1.000  H
  O100     1.0000 0.38649  0.32380  0.88083  Biso   1.000  O
  O101     1.0000 0.33999  0.37499  0.91844  Biso   1.000  O
  C637     1.0000 0.41578  0.38528  0.92443  Biso   1.000  C
  C638     1.0000 0.38769  0.46271  0.48859  Biso   1.000  C
  C639     1.0000 0.38930  0.51081  0.58281  Biso   1.000  C
  C640     1.0000 0.49341  0.44279  0.52303  Biso   1.000  C
  H629     1.0000 0.38290  0.54819  0.66191  Biso   1.000  H
  C641     1.0000 0.36358  0.35880  0.50091  Biso   1.000  C
  H630     1.0000 0.39360  0.31978  0.44213  Biso   1.000  H
  H631     1.0000 0.35160  0.30608  0.45711  Biso   1.000  H
  H632     1.0000 0.34799  0.25340  0.53112  Biso   1.000  H
  H633     1.0000 0.45781  0.30571  0.46148  Biso   1.000  H
  H634     1.0000 0.47409  0.34750  0.46460  Biso   1.000  H
  C642     1.0000 0.51061  0.30789  0.51473  Biso   1.000  C
  C643     1.0000 0.45150  0.36880  0.90502  Biso   1.000  C
  C644     1.0000 0.40839  0.41679  0.96671  Biso   1.000  C
  C645     1.0000 0.36711  0.42731  0.51151  Biso   1.000  C
  H635     1.0000 0.40489  0.45700  0.45173  Biso   1.000  H
  H636     1.0000 0.36969  0.48229  0.47451  Biso   1.000  H
  H637     1.0000 0.37001  0.52038  0.55521  Biso   1.000  H
  H638     1.0000 0.50040  0.46890  0.53439  Biso   1.000  H
  H639     1.0000 0.51419  0.42559  0.53540  Biso   1.000  H
  C646     1.0000 0.48180  0.43900  0.44901  Biso   1.000  C
  C647     1.0000 0.37789  0.39251  0.47883  Biso   1.000  C
  C648     1.0000 0.33601  0.36069  0.55380  Biso   1.000  C
  H640     1.0000 0.50691  0.28510  0.54183  Biso   1.000  H
  H641     1.0000 0.52371  0.32689  0.54204  Biso   1.000  H
  C649     1.0000 0.53520  0.29809  0.45203  Biso   1.000  C
  C650     1.0000 0.48300  0.39039  0.93302  Biso   1.000  C
  H642     1.0000 0.45419  0.34710  0.87812  Biso   1.000  H
  C651     1.0000 0.44218  0.43490  0.99261  Biso   1.000  C
  H643     1.0000 0.38379  0.42518  0.97692  Biso   1.000  H
  C652     1.0000 0.33971  0.42659  0.55963  Biso   1.000  C
  H644     1.0000 0.46328  0.41859  0.43981  Biso   1.000  H
  H645     1.0000 0.47609  0.46239  0.42609  Biso   1.000  H
  C653     1.0000 0.52620  0.42550  0.44801  Biso   1.000  C
  O102     1.0000 0.40369  0.38918  0.42780  Biso   1.000  O
  H646     1.0000 0.32629  0.33759  0.56959  Biso   1.000  H
  C654     1.0000 0.32150  0.39580  0.58553  Biso   1.000  C
  H647     1.0000 0.55979  0.28888  0.46611  Biso   1.000  H
  H648     1.0000 0.52250  0.27871  0.42599  Biso   1.000  H
  H649     1.0000 0.53838  0.32070  0.42503  Biso   1.000  H
  C655     1.0000 0.47830  0.42329  0.97461  Biso   1.000  C
  H650     1.0000 0.50780  0.38230  0.92332  Biso   1.000  H
  H651     1.0000 0.43960  0.45508  0.02258  Biso   1.000  H
  H652     1.0000 0.33248  0.45018  0.57713  Biso   1.000  H
  H653     1.0000 0.54179  0.44648  0.43313  Biso   1.000  H
  H654     1.0000 0.53400  0.41770  0.49211  Biso   1.000  H
  H655     1.0000 0.52918  0.40429  0.41729  Biso   1.000  H
  C656     1.0000 0.38319  0.39299  0.36273  Biso   1.000  C
  N26      1.0000 0.29551  0.39950  0.63712  Biso   1.000  N
  C657     1.0000 0.51471  0.44158  0.00241  Biso   1.000  C
  H656     1.0000 0.36338  0.37359  0.35831  Biso   1.000  H
  H657     1.0000 0.37150  0.41819  0.35861  Biso   1.000  H
  C658     1.0000 0.41429  0.38749  0.31089  Biso   1.000  C
  S26      1.0000 0.26059  0.37379  0.64979  Biso   1.000  S
  C659     1.0000 0.55148  0.43929  0.97310  Biso   1.000  C
  C660     1.0000 0.51198  0.46231  0.06532  Biso   1.000  C
  H658     1.0000 0.42751  0.41140  0.30139  Biso   1.000  H
  H659     1.0000 0.43278  0.36840  0.32512  Biso   1.000  H
  O103     1.0000 0.24371  0.36270  0.58960  Biso   1.000  O
  O104     1.0000 0.23961  0.39408  0.69982  Biso   1.000  O
  C661     1.0000 0.27791  0.33131  0.68413  Biso   1.000  C
  H660     1.0000 0.55409  0.42831  0.93071  Biso   1.000  H
  C662     1.0000 0.58218  0.45239  0.00448  Biso   1.000  C
  H661     1.0000 0.48851  0.46589  0.08628  Biso   1.000  H
  C663     1.0000 0.54460  0.47621  0.09272  Biso   1.000  C
  C664     1.0000 0.29760  0.33220  0.74552  Biso   1.000  C
  C665     1.0000 0.27381  0.29459  0.65733  Biso   1.000  C
  H662     1.0000 0.60589  0.44820  0.98451  Biso   1.000  H
  C666     1.0000 0.58129  0.47208  0.06592  Biso   1.000  C
  H663     1.0000 0.54228  0.48968  0.13279  Biso   1.000  H
  H664     1.0000 0.30178  0.35590  0.76554  Biso   1.000  H
  C667     1.0000 0.31070  0.30150  0.77690  Biso   1.000  C
  C668     1.0000 0.28771  0.26200  0.68473  Biso   1.000  C
  H665     1.0000 0.26030  0.29229  0.61721  Biso   1.000  H
  S27      1.0000 0.62377  0.48939  0.10021  Biso   1.000  S
  H666     1.0000 0.32170  0.30410  0.81934  Biso   1.000  H
  C669     1.0000 0.30840  0.26469  0.74764  Biso   1.000  C
  H667     1.0000 0.28410  0.23849  0.66372  Biso   1.000  H
  O105     1.0000 0.61268  0.50631  0.16040  Biso   1.000  O
  O106     1.0000 0.64410  0.51041  0.05018  Biso   1.000  O
  N27      1.0000 0.64949  0.45451  0.11288  Biso   1.000  N
  C670     1.0000 0.32669  0.22829  0.77539  Biso   1.000  C
  C671     1.0000 0.64579  0.42848  0.16452  Biso   1.000  C
  C672     1.0000 0.35960  0.23299  0.81703  Biso   1.000  C
  C673     1.0000 0.31508  0.19220  0.75739  Biso   1.000  C
  C674     1.0000 0.61070  0.41401  0.19620  Biso   1.000  C
  C675     1.0000 0.67660  0.41031  0.19042  Biso   1.000  C
  H668     1.0000 0.36768  0.25781  0.82673  Biso   1.000  H
  C676     1.0000 0.38118  0.20148  0.84503  Biso   1.000  C
  H669     1.0000 0.29490  0.18959  0.72742  Biso   1.000  H
  C677     1.0000 0.33320  0.15840  0.78334  Biso   1.000  C
  C678     1.0000 0.60878  0.38640  0.24909  Biso   1.000  C
  H670     1.0000 0.58760  0.42369  0.18041  Biso   1.000  H
  C679     1.0000 0.67729  0.38290  0.23849  Biso   1.000  C
  H671     1.0000 0.70019  0.41750  0.17292  Biso   1.000  H
  C680     1.0000 0.36470  0.16580  0.82562  Biso   1.000  C
  H672     1.0000 0.40288  0.20421  0.87193  Biso   1.000  H
  H673     1.0000 0.32480  0.13381  0.77313  Biso   1.000  H
  C681     1.0000 0.64249  0.37210  0.27122  Biso   1.000  C
  C682     1.0000 0.56799  0.37588  0.27328  Biso   1.000  C
  C683     1.0000 0.71269  0.36229  0.26141  Biso   1.000  C
  S28      1.0000 0.38548  0.12561  0.86404  Biso   1.000  S
  O107     1.0000 0.63920  0.34630  0.32220  Biso   1.000  O
  H674     1.0000 0.56980  0.35639  0.30792  Biso   1.000  H
  H675     1.0000 0.55610  0.39838  0.29289  Biso   1.000  H
  C684     1.0000 0.54288  0.36100  0.21591  Biso   1.000  C
  C685     1.0000 0.72720  0.33678  0.18971  Biso   1.000  C
  H676     1.0000 0.70699  0.34510  0.29832  Biso   1.000  H
  H677     1.0000 0.73230  0.38030  0.27549  Biso   1.000  H
  O108     1.0000 0.42619  0.13650  0.86922  Biso   1.000  O
  O109     1.0000 0.37499  0.09001  0.83161  Biso   1.000  O
  N28      1.0000 0.36849  0.12151  0.93991  Biso   1.000  N
  C686     1.0000 0.64298  0.36679  0.38732  Biso   1.000  C
  C687     1.0000 0.51138  0.38110  0.19338  Biso   1.000  C
  C688     1.0000 0.55340  0.33030  0.17930  Biso   1.000  C
  C689     1.0000 0.76079  0.36069  0.16719  Biso   1.000  C
  C690     1.0000 0.71398  0.30869  0.15200  Biso   1.000  C
  C691     1.0000 0.37081  0.15379  0.98180  Biso   1.000  C
  H678     1.0000 0.62360  0.38660  0.39169  Biso   1.000  H
  H679     1.0000 0.66821  0.37849  0.39139  Biso   1.000  H
  C692     1.0000 0.63751  0.33569  0.43911  Biso   1.000  C
  H680     1.0000 0.50338  0.40200  0.21893  Biso   1.000  H
  C693     1.0000 0.49129  0.37290  0.13722  Biso   1.000  C
  O110     1.0000 0.58350  0.30720  0.20153  Biso   1.000  O
  C694     1.0000 0.53400  0.31990  0.11781  Biso   1.000  C
  C695     1.0000 0.77719  0.35381  0.10499  Biso   1.000  C
  H681     1.0000 0.77040  0.38001  0.19479  Biso   1.000  H
  O111     1.0000 0.68130  0.29350  0.19429  Biso   1.000  O
  C696     1.0000 0.72198  0.30190  0.08980  Biso   1.000  C
  C697     1.0000 0.33779  0.17379  0.99960  Biso   1.000  C
  C698     1.0000 0.40469  0.16649  0.00618  Biso   1.000  C
  H682     1.0000 0.66138  0.32251  0.44861  Biso   1.000  H
  H683     1.0000 0.61839  0.31720  0.42493  Biso   1.000  H
  H684     1.0000 0.47091  0.38829  0.12399  Biso   1.000  H
  C699     1.0000 0.50109  0.34220  0.10092  Biso   1.000  C
  C700     1.0000 0.57439  0.28008  0.25930  Biso   1.000  C
  C701     1.0000 0.55449  0.28579  0.07613  Biso   1.000  C
  C702     1.0000 0.75850  0.32489  0.07230  Biso   1.000  C
  H685     1.0000 0.79820  0.36711  0.08809  Biso   1.000  H
  C703     1.0000 0.69280  0.25661  0.22702  Biso   1.000  C
  C704     1.0000 0.70341  0.27329  0.06139  Biso   1.000  C
  H686     1.0000 0.31451  0.16511  0.98290  Biso   1.000  H
  C705     1.0000 0.33730  0.20650  0.04128  Biso   1.000  C
  H687     1.0000 0.42711  0.15318  0.99653  Biso   1.000  H
  C706     1.0000 0.40641  0.19931  0.04581  Biso   1.000  C
  H688     1.0000 0.48630  0.33529  0.06401  Biso   1.000  H
  H689     1.0000 0.55570  0.29221  0.28852  Biso   1.000  H
  H690     1.0000 0.59749  0.27590  0.28540  Biso   1.000  H
  C707     1.0000 0.55790  0.23941  0.23532  Biso   1.000  C
  C708     1.0000 0.59359  0.30069  0.04581  Biso   1.000  C
  H691     1.0000 0.55931  0.26420  0.10569  Biso   1.000  H
  H692     1.0000 0.53778  0.27730  0.04012  Biso   1.000  H
  H693     1.0000 0.76988  0.31781  0.03178  Biso   1.000  H
  H694     1.0000 0.71888  0.24958  0.21561  Biso   1.000  H
  H695     1.0000 0.67560  0.23580  0.21460  Biso   1.000  H
  C709     1.0000 0.68899  0.26819  0.30099  Biso   1.000  C
  C710     1.0000 0.66270  0.29350  0.04128  Biso   1.000  C
  H696     1.0000 0.69959  0.25231  0.09262  Biso   1.000  H
  H697     1.0000 0.71679  0.26400  0.02182  Biso   1.000  H
  C711     1.0000 0.37238  0.22009  0.05918  Biso   1.000  C
  C712     1.0000 0.29659  0.22671  0.06139  Biso   1.000  C
  C713     1.0000 0.44551  0.21418  0.07613  Biso   1.000  C
  H698     1.0000 0.53509  0.24311  0.20822  Biso   1.000  H
  H699     1.0000 0.57691  0.22631  0.20801  Biso   1.000  H
  C714     1.0000 0.54810  0.21479  0.29802  Biso   1.000  C
  C715     1.0000 0.62759  0.27988  0.05918  Biso   1.000  C
  C716     1.0000 0.59528  0.33349  0.00618  Biso   1.000  C
  H700     1.0000 0.66861  0.28671  0.31019  Biso   1.000  H
  H701     1.0000 0.71241  0.27389  0.32391  Biso   1.000  H
  C717     1.0000 0.67549  0.22379  0.30199  Biso   1.000  C
  C718     1.0000 0.66219  0.32621  0.99960  Biso   1.000  C
  O112     1.0000 0.37720  0.25489  0.09372  Biso   1.000  O
  H702     1.0000 0.30041  0.24769  0.09262  Biso   1.000  H
  H703     1.0000 0.28321  0.23600  0.02182  Biso   1.000  H
  C719     1.0000 0.27799  0.19810  0.08980  Biso   1.000  C
  C720     1.0000 0.46600  0.18010  0.11781  Biso   1.000  C
  H704     1.0000 0.44069  0.23580  0.10569  Biso   1.000  H
  H705     1.0000 0.46219  0.22270  0.04012  Biso   1.000  H
  H706     1.0000 0.53890  0.19019  0.28389  Biso   1.000  H
  H707     1.0000 0.52869  0.22748  0.32401  Biso   1.000  H
  H708     1.0000 0.57069  0.21160  0.32502  Biso   1.000  H
  O113     1.0000 0.62280  0.24508  0.09372  Biso   1.000  O
  H709     1.0000 0.57289  0.34679  0.99653  Biso   1.000  H
  C721     1.0000 0.62919  0.34618  0.98180  Biso   1.000  C
  H710     1.0000 0.69650  0.20819  0.31692  Biso   1.000  H
  H711     1.0000 0.66769  0.21599  0.25789  Biso   1.000  H
  H712     1.0000 0.65430  0.22080  0.33271  Biso   1.000  H
  H713     1.0000 0.68549  0.33489  0.98290  Biso   1.000  H
  C722     1.0000 0.38821  0.29181  0.05058  Biso   1.000  C
  C723     1.0000 0.24150  0.17508  0.07230  Biso   1.000  C
  C724     1.0000 0.28599  0.19131  0.15200  Biso   1.000  C
  C725     1.0000 0.49888  0.15780  0.10092  Biso   1.000  C
  C726     1.0000 0.44660  0.16970  0.17930  Biso   1.000  C
  C727     1.0000 0.61179  0.20819  0.05058  Biso   1.000  C
  N29      1.0000 0.63149  0.37849  0.93991  Biso   1.000  N
  H714     1.0000 0.41469  0.29000  0.03640  Biso   1.000  H
  H715     1.0000 0.37230  0.29290  0.01071  Biso   1.000  H
  C728     1.0000 0.38250  0.32818  0.09202  Biso   1.000  C
  H716     1.0000 0.23009  0.18219  0.03178  Biso   1.000  H
  C729     1.0000 0.22281  0.14619  0.10499  Biso   1.000  C
  O114     1.0000 0.31870  0.20650  0.19429  Biso   1.000  O
  C730     1.0000 0.27280  0.16319  0.18971  Biso   1.000  C
  C731     1.0000 0.50869  0.12710  0.13722  Biso   1.000  C
  H717     1.0000 0.51370  0.16471  0.06401  Biso   1.000  H
  O115     1.0000 0.41650  0.19280  0.20153  Biso   1.000  O
  C732     1.0000 0.45709  0.13900  0.21591  Biso   1.000  C
  H718     1.0000 0.58531  0.21000  0.03640  Biso   1.000  H
  H719     1.0000 0.62770  0.20710  0.01071  Biso   1.000  H
  C733     1.0000 0.61750  0.17179  0.09202  Biso   1.000  C
  S29      1.0000 0.61449  0.37436  0.86404  Biso   1.000  S
  H720     1.0000 0.40111  0.32750  0.12832  Biso   1.000  H
  H721     1.0000 0.38950  0.34968  0.06341  Biso   1.000  H
  C734     1.0000 0.35301  0.33541  0.11600  Biso   1.000  C
  H722     1.0000 0.20180  0.13289  0.08809  Biso   1.000  H
  C735     1.0000 0.23921  0.13931  0.16719  Biso   1.000  C
  C736     1.0000 0.30720  0.24339  0.22702  Biso   1.000  C
  C737     1.0000 0.28731  0.13771  0.26141  Biso   1.000  C
  C738     1.0000 0.48859  0.11890  0.19338  Biso   1.000  C
  H723     1.0000 0.52909  0.11171  0.12399  Biso   1.000  H
  C739     1.0000 0.42559  0.21989  0.25930  Biso   1.000  C
  C740     1.0000 0.43201  0.12409  0.27328  Biso   1.000  C
  H724     1.0000 0.59889  0.17250  0.12832  Biso   1.000  H
  H725     1.0000 0.61050  0.15029  0.06341  Biso   1.000  H
  C741     1.0000 0.64699  0.16459  0.11600  Biso   1.000  C
  O116     1.0000 0.57378  0.36350  0.86922  Biso   1.000  O
  O117     1.0000 0.62498  0.40999  0.83161  Biso   1.000  O
  C742     1.0000 0.63530  0.33420  0.82562  Biso   1.000  C
  H726     1.0000 0.35519  0.35771  0.14401  Biso   1.000  H
  H727     1.0000 0.34429  0.31411  0.14270  Biso   1.000  H
  H728     1.0000 0.33440  0.34039  0.08110  Biso   1.000  H
  H729     1.0000 0.22960  0.11999  0.19479  Biso   1.000  H
  H730     1.0000 0.28109  0.25039  0.21561  Biso   1.000  H
  H731     1.0000 0.32440  0.26420  0.21460  Biso   1.000  H
  C743     1.0000 0.31098  0.23178  0.30099  Biso   1.000  C
  H732     1.0000 0.29298  0.15490  0.29832  Biso   1.000  H
  H733     1.0000 0.26770  0.11970  0.27549  Biso   1.000  H
  C744     1.0000 0.32271  0.11710  0.23849  Biso   1.000  C
  H734     1.0000 0.49659  0.09800  0.21893  Biso   1.000  H
  H735     1.0000 0.44430  0.20779  0.28852  Biso   1.000  H
  H736     1.0000 0.40248  0.22410  0.28540  Biso   1.000  H
  C745     1.0000 0.44210  0.26059  0.23532  Biso   1.000  C
  C746     1.0000 0.39119  0.11360  0.24909  Biso   1.000  C
  H737     1.0000 0.43020  0.14361  0.30792  Biso   1.000  H
  H738     1.0000 0.44390  0.10159  0.29289  Biso   1.000  H
  H739     1.0000 0.64479  0.14229  0.14401  Biso   1.000  H
  H740     1.0000 0.65568  0.18589  0.14270  Biso   1.000  H
  H741     1.0000 0.66560  0.15961  0.08110  Biso   1.000  H
  C747     1.0000 0.61879  0.29849  0.84503  Biso   1.000  C
  C748     1.0000 0.66680  0.34160  0.78334  Biso   1.000  C
  H742     1.0000 0.33139  0.21329  0.31019  Biso   1.000  H
  H743     1.0000 0.28759  0.22611  0.32391  Biso   1.000  H
  C749     1.0000 0.32449  0.27619  0.30199  Biso   1.000  C
  C750     1.0000 0.35751  0.12790  0.27122  Biso   1.000  C
  C751     1.0000 0.32340  0.08969  0.19042  Biso   1.000  C
  H744     1.0000 0.46489  0.25689  0.20822  Biso   1.000  H
  H745     1.0000 0.42309  0.27369  0.20801  Biso   1.000  H
  C752     1.0000 0.45190  0.28519  0.29802  Biso   1.000  C
  C753     1.0000 0.38930  0.08599  0.19620  Biso   1.000  C
  C754     1.0000 0.64040  0.26698  0.81703  Biso   1.000  C
  H746     1.0000 0.59709  0.29579  0.87193  Biso   1.000  H
  C755     1.0000 0.68489  0.30780  0.75739  Biso   1.000  C
  H747     1.0000 0.67520  0.36619  0.77313  Biso   1.000  H
  H748     1.0000 0.30350  0.29181  0.31692  Biso   1.000  H
  H749     1.0000 0.33228  0.28401  0.25789  Biso   1.000  H
  H750     1.0000 0.34570  0.27920  0.33271  Biso   1.000  H
  O118     1.0000 0.36080  0.15370  0.32220  Biso   1.000  O
  C756     1.0000 0.35418  0.07149  0.16452  Biso   1.000  C
  H751     1.0000 0.29981  0.08250  0.17292  Biso   1.000  H
  H752     1.0000 0.46110  0.30981  0.28389  Biso   1.000  H
  H753     1.0000 0.47131  0.27249  0.32401  Biso   1.000  H
  H754     1.0000 0.42928  0.28840  0.32502  Biso   1.000  H
  H755     1.0000 0.41240  0.07631  0.18041  Biso   1.000  H
  C757     1.0000 0.67328  0.27168  0.77539  Biso   1.000  C
  H756     1.0000 0.63229  0.24219  0.82673  Biso   1.000  H
  H757     1.0000 0.70510  0.31038  0.72742  Biso   1.000  H
  C758     1.0000 0.35699  0.13321  0.38732  Biso   1.000  C
  N30      1.0000 0.35048  0.04549  0.11288  Biso   1.000  N
  C759     1.0000 0.69160  0.23531  0.74764  Biso   1.000  C
  H758     1.0000 0.37640  0.11340  0.39169  Biso   1.000  H
  H759     1.0000 0.33179  0.12151  0.39139  Biso   1.000  H
  C760     1.0000 0.36249  0.16431  0.43911  Biso   1.000  C
  S30      1.0000 0.37623  0.01058  0.10021  Biso   1.000  S
  C761     1.0000 0.68930  0.19850  0.77690  Biso   1.000  C
  C762     1.0000 0.71229  0.23800  0.68473  Biso   1.000  C
  H760     1.0000 0.33859  0.17749  0.44861  Biso   1.000  H
  H761     1.0000 0.38159  0.18280  0.42493  Biso   1.000  H
  O119     1.0000 0.38729  0.99369  0.16040  Biso   1.000  O
  O120     1.0000 0.35590  0.98959  0.05018  Biso   1.000  O
  C763     1.0000 0.41871  0.02789  0.06592  Biso   1.000  C
  C764     1.0000 0.70240  0.16780  0.74552  Biso   1.000  C
  H762     1.0000 0.67830  0.19590  0.81934  Biso   1.000  H
  H763     1.0000 0.71590  0.26151  0.66372  Biso   1.000  H
  C765     1.0000 0.72619  0.20541  0.65733  Biso   1.000  C
  C766     1.0000 0.41779  0.04761  0.00448  Biso   1.000  C
  C767     1.0000 0.45540  0.02379  0.09272  Biso   1.000  C
  C768     1.0000 0.72209  0.16869  0.68413  Biso   1.000  C
  H764     1.0000 0.69819  0.14410  0.76554  Biso   1.000  H
  H765     1.0000 0.73970  0.20771  0.61721  Biso   1.000  H
  H766     1.0000 0.39408  0.05180  0.98451  Biso   1.000  H
  C769     1.0000 0.44849  0.06071  0.97310  Biso   1.000  C
  C770     1.0000 0.48799  0.03769  0.06532  Biso   1.000  C
  H767     1.0000 0.45769  0.01029  0.13279  Biso   1.000  H
  S31      1.0000 0.73941  0.12621  0.64979  Biso   1.000  S
  H768     1.0000 0.44588  0.07169  0.93071  Biso   1.000  H
  C771     1.0000 0.48529  0.05839  0.00241  Biso   1.000  C
  H769     1.0000 0.51149  0.03411  0.08628  Biso   1.000  H
  O121     1.0000 0.75629  0.13730  0.58960  Biso   1.000  O
  O122     1.0000 0.76039  0.10589  0.69982  Biso   1.000  O
  N31      1.0000 0.70449  0.10050  0.63712  Biso   1.000  N
  C772     1.0000 0.52170  0.07671  0.97461  Biso   1.000  C
  C773     1.0000 0.67850  0.10420  0.58553  Biso   1.000  C
  C774     1.0000 0.51700  0.10959  0.93302  Biso   1.000  C
  C775     1.0000 0.55779  0.06510  0.99261  Biso   1.000  C
  C776     1.0000 0.66399  0.13931  0.55380  Biso   1.000  C
  C777     1.0000 0.66029  0.07341  0.55963  Biso   1.000  C
  H770     1.0000 0.49220  0.11770  0.92332  Biso   1.000  H
  C778     1.0000 0.54850  0.13120  0.90502  Biso   1.000  C
  C779     1.0000 0.59158  0.08319  0.96671  Biso   1.000  C
  H771     1.0000 0.56040  0.04489  0.02258  Biso   1.000  H
  C780     1.0000 0.63639  0.14120  0.50091  Biso   1.000  C
  H772     1.0000 0.67368  0.16239  0.56959  Biso   1.000  H
  C781     1.0000 0.63289  0.07269  0.51151  Biso   1.000  C
  H773     1.0000 0.66749  0.04979  0.57713  Biso   1.000  H
  C782     1.0000 0.58419  0.11469  0.92443  Biso   1.000  C
  H774     1.0000 0.54581  0.15290  0.87812  Biso   1.000  H
  H775     1.0000 0.61621  0.07479  0.97692  Biso   1.000  H
  C783     1.0000 0.62590  0.18199  0.47672  Biso   1.000  C
  C784     1.0000 0.62208  0.10749  0.47883  Biso   1.000  C
  C785     1.0000 0.61228  0.03729  0.48859  Biso   1.000  C
  S32      1.0000 0.62438  0.13550  0.88601  Biso   1.000  S
  C786     1.0000 0.61099  0.20710  0.53409  Biso   1.000  C
  H776     1.0000 0.60640  0.18019  0.44213  Biso   1.000  H
  H777     1.0000 0.64840  0.19389  0.45711  Biso   1.000  H
  O123     1.0000 0.59629  0.11079  0.42780  Biso   1.000  O
  C787     1.0000 0.58680  0.02279  0.56029  Biso   1.000  C
  H778     1.0000 0.59508  0.04300  0.45173  Biso   1.000  H
  H779     1.0000 0.63028  0.01769  0.47451  Biso   1.000  H
  O124     1.0000 0.61348  0.17620  0.88083  Biso   1.000  O
  O125     1.0000 0.65998  0.12501  0.91844  Biso   1.000  O
  N32      1.0000 0.62850  0.11850  0.81014  Biso   1.000  N
  C788     1.0000 0.58029  0.19661  0.57070  Biso   1.000  C
  C789     1.0000 0.63108  0.23861  0.55662  Biso   1.000  C
  C790     1.0000 0.61678  0.10701  0.36273  Biso   1.000  C
  C791     1.0000 0.55871  0.03600  0.59800  Biso   1.000  C
  C792     1.0000 0.61070  0.98919  0.58281  Biso   1.000  C
  C793     1.0000 0.59620  0.12079  0.76820  Biso   1.000  C
  C794     1.0000 0.56988  0.21599  0.63219  Biso   1.000  C
  O126     1.0000 0.55719  0.16649  0.54852  Biso   1.000  O
  C795     1.0000 0.62289  0.25870  0.61283  Biso   1.000  C
  H780     1.0000 0.65198  0.24660  0.53112  Biso   1.000  H
  H781     1.0000 0.63659  0.12641  0.35831  Biso   1.000  H
  H782     1.0000 0.62850  0.08181  0.35861  Biso   1.000  H
  C796     1.0000 0.58568  0.11251  0.31089  Biso   1.000  C
  C797     1.0000 0.55188  0.02801  0.66020  Biso   1.000  C
  O127     1.0000 0.54348  0.06871  0.55571  Biso   1.000  O
  C798     1.0000 0.60380  0.97280  0.64501  Biso   1.000  C
  H783     1.0000 0.62999  0.97959  0.55521  Biso   1.000  H
  C799     1.0000 0.58350  0.15470  0.74382  Biso   1.000  C
  C800     1.0000 0.57619  0.08780  0.75040  Biso   1.000  C
  C801     1.0000 0.53580  0.19549  0.67392  Biso   1.000  C
  C802     1.0000 0.59219  0.24890  0.64914  Biso   1.000  C
  C803     1.0000 0.53010  0.17560  0.49070  Biso   1.000  C
  H784     1.0000 0.63828  0.27911  0.62601  Biso   1.000  H
  H785     1.0000 0.57249  0.08860  0.30139  Biso   1.000  H
  H786     1.0000 0.56719  0.13160  0.32512  Biso   1.000  H
  C804     1.0000 0.52330  0.04661  0.68861  Biso   1.000  C
  C805     1.0000 0.57490  0.99149  0.67770  Biso   1.000  C
  C806     1.0000 0.50659  0.05719  0.52303  Biso   1.000  C
  H787     1.0000 0.61710  0.95179  0.66191  Biso   1.000  H
  C807     1.0000 0.55068  0.15640  0.70419  Biso   1.000  C
  H788     1.0000 0.59680  0.17709  0.75352  Biso   1.000  H
  C808     1.0000 0.54348  0.08731  0.70872  Biso   1.000  C
  H789     1.0000 0.58491  0.06450  0.76710  Biso   1.000  H
  H790     1.0000 0.51419  0.19071  0.64431  Biso   1.000  H
  H791     1.0000 0.52729  0.21221  0.70993  Biso   1.000  H
  H792     1.0000 0.58531  0.26369  0.68599  Biso   1.000  H
  H793     1.0000 0.54219  0.19429  0.46148  Biso   1.000  H
  H794     1.0000 0.52588  0.15250  0.46460  Biso   1.000  H
  C809     1.0000 0.48939  0.19211  0.51473  Biso   1.000  C
  H795     1.0000 0.50229  0.05039  0.65743  Biso   1.000  H
  H796     1.0000 0.51399  0.03319  0.72823  Biso   1.000  H
  H797     1.0000 0.56779  0.98008  0.71822  Biso   1.000  H
  H798     1.0000 0.49960  0.03110  0.53439  Biso   1.000  H
  H799     1.0000 0.48578  0.07439  0.53540  Biso   1.000  H
  C810     1.0000 0.51820  0.06100  0.44901  Biso   1.000  C
  C811     1.0000 0.52990  0.12240  0.69082  Biso   1.000  C
  H800     1.0000 0.49309  0.21490  0.54183  Biso   1.000  H
  H801     1.0000 0.47629  0.17311  0.54204  Biso   1.000  H
  C812     1.0000 0.46480  0.20189  0.45203  Biso   1.000  C
  H802     1.0000 0.53669  0.08141  0.43981  Biso   1.000  H
  H803     1.0000 0.52391  0.03761  0.42609  Biso   1.000  H
  C813     1.0000 0.47380  0.07450  0.44801  Biso   1.000  C
  O128     1.0000 0.49510  0.12719  0.65633  Biso   1.000  O
  H804     1.0000 0.44021  0.21109  0.46611  Biso   1.000  H
  H805     1.0000 0.47750  0.22129  0.42599  Biso   1.000  H
  H806     1.0000 0.46159  0.17930  0.42503  Biso   1.000  H
  H807     1.0000 0.45821  0.05349  0.43313  Biso   1.000  H
  H808     1.0000 0.46600  0.08230  0.49211  Biso   1.000  H
  H809     1.0000 0.47079  0.09571  0.41729  Biso   1.000  H
  C814     1.0000 0.45821  0.13819  0.69942  Biso   1.000  C
  H810     1.0000 0.45998  0.16471  0.71360  Biso   1.000  H
  H811     1.0000 0.45709  0.12231  0.73929  Biso   1.000  H
  C815     1.0000 0.42180  0.13249  0.65803  Biso   1.000  C
  H812     1.0000 0.42249  0.15109  0.62173  Biso   1.000  H
  H813     1.0000 0.40030  0.13951  0.68659  Biso   1.000  H
  C816     1.0000 0.41461  0.10299  0.63400  Biso   1.000  C
  H814     1.0000 0.39231  0.10520  0.60599  Biso   1.000  H
  H815     1.0000 0.43591  0.09431  0.60730  Biso   1.000  H
  H816     1.0000 0.40959  0.08439  0.66890  Biso   1.000  H
