data_image0
_cell_length_a       29.414
_cell_length_b       29.414
_cell_length_c       52.947
_cell_angle_alpha    90
_cell_angle_beta     90
_cell_angle_gamma    120

_symmetry_space_group_name_H-M    "P 1"
_symmetry_int_tables_number       1

loop_
  _symmetry_equiv_pos_as_xyz
  'x, y, z'

loop_
  _atom_site_label
  _atom_site_occupancy
  _atom_site_fract_x
  _atom_site_fract_y
  _atom_site_fract_z
  _atom_site_thermal_displace_type
  _atom_site_B_iso_or_equiv
  _atom_site_type_symbol
  C1       1.0000 0.40607  0.37989  0.49185  Biso   1.000  C
  N1       1.0000 0.35320  0.35025  0.48246  Biso   1.000  N
  N2       1.0000 0.43094  0.34899  0.49618  Biso   1.000  N
  H1       1.0000 0.40565  0.39653  0.50764  Biso   1.000  H
  H2       1.0000 0.42698  0.40745  0.47984  Biso   1.000  H
  C2       1.0000 0.33953  0.35873  0.45878  Biso   1.000  C
  C3       1.0000 0.30810  0.32253  0.49890  Biso   1.000  C
  C4       1.0000 0.42307  0.31802  0.51842  Biso   1.000  C
  C5       1.0000 0.47064  0.35300  0.48156  Biso   1.000  C
  N3       1.0000 0.28553  0.33341  0.45757  Biso   1.000  N
  O1       1.0000 0.36942  0.38472  0.44180  Biso   1.000  O
  C6       1.0000 0.26125  0.31233  0.48192  Biso   1.000  C
  N4       1.0000 0.29712  0.27032  0.50573  Biso   1.000  N
  H3       1.0000 0.31058  0.34334  0.51383  Biso   1.000  H
  N5       1.0000 0.37405  0.26730  0.51869  Biso   1.000  N
  H4       1.0000 0.42675  0.33824  0.53374  Biso   1.000  H
  C7       1.0000 0.46568  0.30267  0.51689  Biso   1.000  C
  O2       1.0000 0.48788  0.37910  0.46222  Biso   1.000  O
  N6       1.0000 0.48888  0.32222  0.49194  Biso   1.000  N
  C8       1.0000 0.25883  0.34495  0.43748  Biso   1.000  C
  N7       1.0000 0.22844  0.25595  0.48250  Biso   1.000  N
  H5       1.0000 0.24277  0.32984  0.48843  Biso   1.000  H
  C9       1.0000 0.24912  0.23271  0.49763  Biso   1.000  C
  C10      1.0000 0.32497  0.26216  0.52615  Biso   1.000  C
  C11      1.0000 0.38403  0.22647  0.52095  Biso   1.000  C
  N8       1.0000 0.43726  0.24665  0.51901  Biso   1.000  N
  H6       1.0000 0.49165  0.31892  0.53044  Biso   1.000  H
  C12      1.0000 0.53688  0.32465  0.48346  Biso   1.000  C
  N9       1.0000 0.22318  0.29957  0.42263  Biso   1.000  N
  H7       1.0000 0.23927  0.36002  0.44494  Biso   1.000  H
  H8       1.0000 0.28508  0.37113  0.42633  Biso   1.000  H
  C13      1.0000 0.17420  0.22961  0.47464  Biso   1.000  C
  O3       1.0000 0.22829  0.18541  0.50235  Biso   1.000  O
  H9       1.0000 0.33126  0.28732  0.53943  Biso   1.000  H
  H10      1.0000 0.30287  0.22722  0.53302  Biso   1.000  H
  O4       1.0000 0.35097  0.18035  0.52430  Biso   1.000  O
  C14      1.0000 0.46230  0.21576  0.52554  Biso   1.000  C
  N10      1.0000 0.52839  0.27492  0.47449  Biso   1.000  N
  H11      1.0000 0.55216  0.35033  0.47004  Biso   1.000  H
  H12      1.0000 0.56174  0.33631  0.49733  Biso   1.000  H
  C15      1.0000 0.23033  0.29564  0.39742  Biso   1.000  C
  C16      1.0000 0.17006  0.26267  0.43068  Biso   1.000  C
  N11      1.0000 0.16672  0.22180  0.44773  Biso   1.000  N
  H13      1.0000 0.15577  0.19562  0.48294  Biso   1.000  H
  H14      1.0000 0.15847  0.25003  0.48033  Biso   1.000  H
  N12      1.0000 0.48304  0.20229  0.50365  Biso   1.000  N
  H15      1.0000 0.49066  0.23562  0.53733  Biso   1.000  H
  H16      1.0000 0.43676  0.18364  0.53393  Biso   1.000  H
  C17      1.0000 0.54253  0.26993  0.45028  Biso   1.000  C
  C18      1.0000 0.53167  0.23699  0.49160  Biso   1.000  C
  N13      1.0000 0.18552  0.25580  0.38786  Biso   1.000  N
  O5       1.0000 0.27126  0.32391  0.38565  Biso   1.000  O
  C19      1.0000 0.14375  0.23228  0.40646  Biso   1.000  C
  H17      1.0000 0.15216  0.28045  0.43763  Biso   1.000  H
  C20      1.0000 0.13882  0.17293  0.43731  Biso   1.000  C
  C21      1.0000 0.46235  0.15098  0.49578  Biso   1.000  C
  N14      1.0000 0.54532  0.22506  0.44883  Biso   1.000  N
  O6       1.0000 0.54920  0.29980  0.43292  Biso   1.000  O
  C22      1.0000 0.54117  0.20221  0.47368  Biso   1.000  C
  H18      1.0000 0.56027  0.25462  0.50382  Biso   1.000  H
  C23      1.0000 0.17614  0.24661  0.36104  Biso   1.000  C
  N15      1.0000 0.12827  0.17854  0.41249  Biso   1.000  N
  H19      1.0000 0.11357  0.23605  0.40174  Biso   1.000  H
  O7       1.0000 0.12609  0.13163  0.44800  Biso   1.000  O
  N16      1.0000 0.49318  0.15063  0.47674  Biso   1.000  N
  O8       1.0000 0.42365  0.11330  0.50445  Biso   1.000  O
  C24      1.0000 0.56772  0.21281  0.42752  Biso   1.000  C
  H20      1.0000 0.57285  0.20092  0.47814  Biso   1.000  H
  N17      1.0000 0.17134  0.19711  0.35248  Biso   1.000  N
  H21      1.0000 0.20476  0.27523  0.35194  Biso   1.000  H
  H22      1.0000 0.14417  0.24673  0.35673  Biso   1.000  H
  C25      1.0000 0.08829  0.13347  0.39861  Biso   1.000  C
  C26      1.0000 0.49138  0.10270  0.46817  Biso   1.000  C
  N18      1.0000 0.52947  0.16610  0.41396  Biso   1.000  N
  H23      1.0000 0.59596  0.20755  0.43334  Biso   1.000  H
  H24      1.0000 0.58267  0.24245  0.41604  Biso   1.000  H
  C27      1.0000 0.20450  0.19672  0.33473  Biso   1.000  C
  C28      1.0000 0.12134  0.14870  0.35298  Biso   1.000  C
  N19      1.0000 0.10876  0.12009  0.37653  Biso   1.000  N
  H25      1.0000 0.06115  0.14093  0.39322  Biso   1.000  H
  H26      1.0000 0.07226  0.10344  0.40982  Biso   1.000  H
  N20      1.0000 0.47829  0.09155  0.44201  Biso   1.000  N
  H27      1.0000 0.52536  0.10572  0.47113  Biso   1.000  H
  H28      1.0000 0.46568  0.07353  0.47814  Biso   1.000  H
  C29      1.0000 0.52119  0.16735  0.38875  Biso   1.000  C
  C30      1.0000 0.51677  0.11302  0.42210  Biso   1.000  C
  N21      1.0000 0.18216  0.14702  0.32476  Biso   1.000  N
  O9       1.0000 0.24626  0.23393  0.32848  Biso   1.000  O
  C31      1.0000 0.13025  0.11255  0.33450  Biso   1.000  C
  H29      1.0000 0.09267  0.15412  0.34733  Biso   1.000  H
  C32      1.0000 0.11026  0.07439  0.37479  Biso   1.000  C
  C33      1.0000 0.43007  0.05202  0.43381  Biso   1.000  C
  N22      1.0000 0.49439  0.11695  0.37987  Biso   1.000  N
  O10      1.0000 0.53400  0.20712  0.37615  Biso   1.000  O
  C34      1.0000 0.48759  0.07942  0.39874  Biso   1.000  C
  H30      1.0000 0.54837  0.11121  0.42612  Biso   1.000  H
  C35      1.0000 0.20392  0.13422  0.30336  Biso   1.000  C
  N23      1.0000 0.12594  0.07129  0.35065  Biso   1.000  N
  H31      1.0000 0.10396  0.09893  0.32104  Biso   1.000  H
  O11      1.0000 0.09922  0.04138  0.39118  Biso   1.000  O
  N24      1.0000 0.43375  0.04734  0.40788  Biso   1.000  N
  O12      1.0000 0.39192  0.02630  0.44650  Biso   1.000  O
  C36      1.0000 0.48611  0.10509  0.35322  Biso   1.000  C
  H32      1.0000 0.50236  0.05763  0.39334  Biso   1.000  H
  N25      1.0000 0.22718  0.10168  0.30978  Biso   1.000  N
  H33      1.0000 0.23068  0.16653  0.29564  Biso   1.000  H
  H34      1.0000 0.17638  0.11573  0.29093  Biso   1.000  H
  C37      1.0000 0.12016  0.02226  0.34093  Biso   1.000  C
  C38      1.0000 0.39597  0.00102  0.39438  Biso   1.000  C
  N26      1.0000 0.43217  0.08083  0.34536  Biso   1.000  N
  H35      1.0000 0.50624  0.13732  0.34383  Biso   1.000  H
  H36      1.0000 0.49956  0.08193  0.34893  Biso   1.000  H
  C39      1.0000 0.27928  0.11965  0.30927  Biso   1.000  C
  C40      1.0000 0.19582  0.04487  0.31154  Biso   1.000  C
  N27      1.0000 0.16923  0.02575  0.33513  Biso   1.000  N
  H37      1.0000 0.09877  0.01233  0.32574  Biso   1.000  H
  H38      1.0000 0.10188  0.99474  0.35333  Biso   1.000  H
  N28      1.0000 0.37138  0.01237  0.37377  Biso   1.000  N
  H39      1.0000 0.41347  0.98292  0.38784  Biso   1.000  H
  H40      1.0000 0.36907  0.97755  0.40603  Biso   1.000  H
  C41      1.0000 0.41321  0.10643  0.33093  Biso   1.000  C
  C42      1.0000 0.39481  0.02638  0.34880  Biso   1.000  C
  O13      1.0000 0.31417  0.16570  0.30697  Biso   1.000  O
  N29      1.0000 0.28704  0.07718  0.31199  Biso   1.000  N
  C43      1.0000 0.23756  0.02799  0.31175  Biso   1.000  C
  H41      1.0000 0.17185  0.02984  0.29713  Biso   1.000  H
  C44      1.0000 0.18445  0.99289  0.34735  Biso   1.000  C
  C45      1.0000 0.31699  0.98885  0.37252  Biso   1.000  C
  N30      1.0000 0.36242  0.07058  0.32397  Biso   1.000  N
  O14      1.0000 0.43647  0.15294  0.32546  Biso   1.000  O
  C46      1.0000 0.34780  0.01688  0.33160  Biso   1.000  C
  H42      1.0000 0.40937  0.00424  0.34374  Biso   1.000  H
  C47      1.0000 0.33632  0.08103  0.30393  Biso   1.000  C
  H43      1.0000 0.23468  0.00734  0.29673  Biso   1.000  H
  N31      1.0000 0.22718  0.99764  0.33394  Biso   1.000  N
  O15      1.0000 0.16431  0.96655  0.36580  Biso   1.000  O
  N32      1.0000 0.30318  0.99305  0.34865  Biso   1.000  N
  O16      1.0000 0.28744  0.96844  0.39013  Biso   1.000  O
  H44      1.0000 0.34357  0.99435  0.31713  Biso   1.000  H
  H45      1.0000 0.32926  0.05622  0.29033  Biso   1.000  H
  H46      1.0000 0.35937  0.11604  0.29743  Biso   1.000  H
  C48      1.0000 0.24957  0.96435  0.33966  Biso   1.000  C
  H47      1.0000 0.22810  0.93896  0.35233  Biso   1.000  H
  H48      1.0000 0.24835  0.94512  0.32453  Biso   1.000  H
  C49      1.0000 0.59393  0.62010  0.50815  Biso   1.000  C
  N33      1.0000 0.56902  0.65100  0.50382  Biso   1.000  N
  N34      1.0000 0.64679  0.64974  0.51754  Biso   1.000  N
  H49      1.0000 0.59431  0.60346  0.49236  Biso   1.000  H
  H50      1.0000 0.57303  0.59258  0.52016  Biso   1.000  H
  C50      1.0000 0.57693  0.68197  0.48158  Biso   1.000  C
  C51      1.0000 0.52937  0.64703  0.51844  Biso   1.000  C
  C52      1.0000 0.66047  0.64126  0.54122  Biso   1.000  C
  C53      1.0000 0.69189  0.67746  0.50110  Biso   1.000  C
  N35      1.0000 0.62595  0.73269  0.48131  Biso   1.000  N
  H51      1.0000 0.57321  0.66175  0.46626  Biso   1.000  H
  C54      1.0000 0.53434  0.69736  0.48311  Biso   1.000  C
  N36      1.0000 0.51114  0.67781  0.50804  Biso   1.000  N
  O17      1.0000 0.51212  0.62089  0.53778  Biso   1.000  O
  O18      1.0000 0.63058  0.61527  0.55820  Biso   1.000  O
  N37      1.0000 0.71447  0.66658  0.54243  Biso   1.000  N
  N38      1.0000 0.70284  0.72967  0.49427  Biso   1.000  N
  C55      1.0000 0.73874  0.68766  0.51808  Biso   1.000  C
  H52      1.0000 0.68941  0.65665  0.48617  Biso   1.000  H
  C56      1.0000 0.67503  0.73783  0.47385  Biso   1.000  C
  C57      1.0000 0.61597  0.77352  0.47905  Biso   1.000  C
  N39      1.0000 0.56274  0.75334  0.48099  Biso   1.000  N
  H53      1.0000 0.50834  0.68107  0.46956  Biso   1.000  H
  C58      1.0000 0.46312  0.67534  0.51652  Biso   1.000  C
  C59      1.0000 0.74117  0.65504  0.56252  Biso   1.000  C
  C60      1.0000 0.75088  0.76727  0.50237  Biso   1.000  C
  N40      1.0000 0.77156  0.74403  0.51750  Biso   1.000  N
  H54      1.0000 0.75722  0.67015  0.51157  Biso   1.000  H
  H55      1.0000 0.66874  0.71267  0.46057  Biso   1.000  H
  H56      1.0000 0.69712  0.77277  0.46696  Biso   1.000  H
  O19      1.0000 0.64903  0.81964  0.47570  Biso   1.000  O
  C61      1.0000 0.53769  0.78423  0.47446  Biso   1.000  C
  N41      1.0000 0.47157  0.72507  0.52549  Biso   1.000  N
  H57      1.0000 0.44783  0.64966  0.52996  Biso   1.000  H
  H58      1.0000 0.43825  0.66368  0.50267  Biso   1.000  H
  N42      1.0000 0.77678  0.70042  0.57737  Biso   1.000  N
  H59      1.0000 0.76072  0.63996  0.55506  Biso   1.000  H
  H60      1.0000 0.71492  0.62886  0.57367  Biso   1.000  H
  O20      1.0000 0.77173  0.81462  0.49765  Biso   1.000  O
  C62      1.0000 0.82579  0.77038  0.52536  Biso   1.000  C
  N43      1.0000 0.51696  0.79770  0.49633  Biso   1.000  N
  H61      1.0000 0.50934  0.76437  0.46267  Biso   1.000  H
  H62      1.0000 0.56324  0.81635  0.46607  Biso   1.000  H
  C63      1.0000 0.46833  0.76300  0.50840  Biso   1.000  C
  C64      1.0000 0.45747  0.73006  0.54972  Biso   1.000  C
  C65      1.0000 0.76966  0.70435  0.60258  Biso   1.000  C
  C66      1.0000 0.82996  0.73736  0.56932  Biso   1.000  C
  N44      1.0000 0.83327  0.77819  0.55227  Biso   1.000  N
  H63      1.0000 0.84422  0.80437  0.51706  Biso   1.000  H
  H64      1.0000 0.84153  0.74996  0.51967  Biso   1.000  H
  C67      1.0000 0.53761  0.84901  0.50422  Biso   1.000  C
  H65      1.0000 0.43973  0.74537  0.49616  Biso   1.000  H
  C68      1.0000 0.45883  0.79778  0.52632  Biso   1.000  C
  O21      1.0000 0.45079  0.70018  0.56708  Biso   1.000  O
  N45      1.0000 0.45468  0.77493  0.55117  Biso   1.000  N
  N46      1.0000 0.81447  0.74419  0.61214  Biso   1.000  N
  O22      1.0000 0.72874  0.67608  0.61435  Biso   1.000  O
  C69      1.0000 0.85625  0.76771  0.59354  Biso   1.000  C
  H66      1.0000 0.84782  0.71958  0.56237  Biso   1.000  H
  C70      1.0000 0.86118  0.82706  0.56269  Biso   1.000  C
  O23      1.0000 0.57634  0.88669  0.49555  Biso   1.000  O
  N47      1.0000 0.50682  0.84936  0.52326  Biso   1.000  N
  H67      1.0000 0.42714  0.79907  0.52186  Biso   1.000  H
  C71      1.0000 0.43228  0.78718  0.57248  Biso   1.000  C
  C72      1.0000 0.82386  0.75338  0.63896  Biso   1.000  C
  N48      1.0000 0.87173  0.82145  0.58751  Biso   1.000  N
  H68      1.0000 0.88644  0.76398  0.59826  Biso   1.000  H
  O24      1.0000 0.87390  0.86836  0.55200  Biso   1.000  O
  C73      1.0000 0.50862  0.89729  0.53183  Biso   1.000  C
  N49      1.0000 0.47053  0.83389  0.58604  Biso   1.000  N
  H69      1.0000 0.40402  0.79248  0.56666  Biso   1.000  H
  H70      1.0000 0.41734  0.75758  0.58396  Biso   1.000  H
  N50      1.0000 0.82865  0.80288  0.64752  Biso   1.000  N
  H71      1.0000 0.79523  0.72476  0.64806  Biso   1.000  H
  H72      1.0000 0.85582  0.75326  0.64327  Biso   1.000  H
  C74      1.0000 0.91170  0.86652  0.60139  Biso   1.000  C
  N51      1.0000 0.52167  0.90844  0.55799  Biso   1.000  N
  H73      1.0000 0.47464  0.89427  0.52887  Biso   1.000  H
  H74      1.0000 0.53432  0.92646  0.52186  Biso   1.000  H
  C75      1.0000 0.48323  0.88697  0.57790  Biso   1.000  C
  C76      1.0000 0.47881  0.83264  0.61125  Biso   1.000  C
  C77      1.0000 0.79550  0.80327  0.66527  Biso   1.000  C
  C78      1.0000 0.87866  0.85128  0.64702  Biso   1.000  C
  N52      1.0000 0.89123  0.87990  0.62347  Biso   1.000  N
  H75      1.0000 0.93881  0.85906  0.60676  Biso   1.000  H
  H76      1.0000 0.92771  0.89655  0.59016  Biso   1.000  H
  C79      1.0000 0.56993  0.94797  0.56619  Biso   1.000  C
  H77      1.0000 0.45163  0.88877  0.57386  Biso   1.000  H
  C80      1.0000 0.51237  0.92057  0.60126  Biso   1.000  C
  O25      1.0000 0.46601  0.79291  0.62385  Biso   1.000  O
  N53      1.0000 0.50561  0.88304  0.62013  Biso   1.000  N
  O26      1.0000 0.75370  0.76606  0.67152  Biso   1.000  O
  N54      1.0000 0.81783  0.85297  0.67524  Biso   1.000  N
  C81      1.0000 0.86971  0.88744  0.66548  Biso   1.000  C
  H78      1.0000 0.90733  0.84587  0.65267  Biso   1.000  H
  C82      1.0000 0.88974  0.92560  0.62521  Biso   1.000  C
  O27      1.0000 0.60808  0.97369  0.55348  Biso   1.000  O
  N55      1.0000 0.56625  0.95265  0.59212  Biso   1.000  N
  H79      1.0000 0.49763  0.94236  0.60666  Biso   1.000  H
  C83      1.0000 0.51388  0.89490  0.64678  Biso   1.000  C
  C84      1.0000 0.79608  0.86577  0.69664  Biso   1.000  C
  N56      1.0000 0.87405  0.92870  0.64935  Biso   1.000  N
  H80      1.0000 0.89603  0.90106  0.67896  Biso   1.000  H
  O28      1.0000 0.90077  0.95861  0.60882  Biso   1.000  O
  C85      1.0000 0.60403  0.99897  0.60562  Biso   1.000  C
  N57      1.0000 0.56783  0.91916  0.65464  Biso   1.000  N
  H81      1.0000 0.49372  0.86267  0.65617  Biso   1.000  H
  H82      1.0000 0.50044  0.91806  0.65107  Biso   1.000  H
  N58      1.0000 0.77281  0.89831  0.69022  Biso   1.000  N
  H83      1.0000 0.76932  0.83346  0.70436  Biso   1.000  H
  H84      1.0000 0.82362  0.88426  0.70907  Biso   1.000  H
  C86      1.0000 0.87980  0.97773  0.65907  Biso   1.000  C
  N59      1.0000 0.62861  0.98762  0.62623  Biso   1.000  N
  H85      1.0000 0.58652  0.01707  0.61216  Biso   1.000  H
  H86      1.0000 0.63093  0.02244  0.59397  Biso   1.000  H
  C87      1.0000 0.60518  0.97361  0.65120  Biso   1.000  C
  C88      1.0000 0.58678  0.89356  0.66907  Biso   1.000  C
  C89      1.0000 0.72071  0.88033  0.69073  Biso   1.000  C
  C90      1.0000 0.80417  0.95512  0.68846  Biso   1.000  C
  N60      1.0000 0.83076  0.97424  0.66487  Biso   1.000  N
  H87      1.0000 0.90122  0.98766  0.67426  Biso   1.000  H
  H88      1.0000 0.89812  0.00525  0.64667  Biso   1.000  H
  C91      1.0000 0.68300  0.01114  0.62746  Biso   1.000  C
  H89      1.0000 0.59062  0.99575  0.65626  Biso   1.000  H
  C92      1.0000 0.65216  0.98311  0.66840  Biso   1.000  C
  O29      1.0000 0.56352  0.84704  0.67454  Biso   1.000  O
  N61      1.0000 0.63758  0.92941  0.67603  Biso   1.000  N
  N62      1.0000 0.71292  0.92281  0.68801  Biso   1.000  N
  O30      1.0000 0.68582  0.83429  0.69303  Biso   1.000  O
  C93      1.0000 0.76243  0.97200  0.68825  Biso   1.000  C
  H90      1.0000 0.82811  0.97015  0.70287  Biso   1.000  H
  C94      1.0000 0.81554  0.00709  0.65265  Biso   1.000  C
  O31      1.0000 0.71255  0.03155  0.60987  Biso   1.000  O
  N63      1.0000 0.69678  0.00694  0.65135  Biso   1.000  N
  H91      1.0000 0.65642  0.00564  0.68287  Biso   1.000  H
  C95      1.0000 0.66367  0.91896  0.69607  Biso   1.000  C
  N64      1.0000 0.77283  0.00238  0.66606  Biso   1.000  N
  H92      1.0000 0.76531  0.99265  0.70327  Biso   1.000  H
  O32      1.0000 0.83568  0.03344  0.63420  Biso   1.000  O
  C96      1.0000 0.75043  0.03563  0.66034  Biso   1.000  C
  H93      1.0000 0.67074  0.94377  0.70967  Biso   1.000  H
  H94      1.0000 0.64062  0.88395  0.70257  Biso   1.000  H
  H95      1.0000 0.77192  0.06107  0.64767  Biso   1.000  H
  H96      1.0000 0.75161  0.05487  0.67547  Biso   1.000  H
  C97      1.0000 0.61131  0.50861  0.46817  Biso   1.000  C
  N65      1.0000 0.61326  0.52168  0.44201  Biso   1.000  N
  N66      1.0000 0.65743  0.50681  0.47674  Biso   1.000  N
  H97      1.0000 0.58034  0.47462  0.47113  Biso   1.000  H
  H98      1.0000 0.60785  0.53432  0.47814  Biso   1.000  H
  C98      1.0000 0.59623  0.48321  0.42210  Biso   1.000  C
  C99      1.0000 0.62195  0.56993  0.43381  Biso   1.000  C
  C100     1.0000 0.66101  0.45883  0.47368  Biso   1.000  C
  C101     1.0000 0.68861  0.53762  0.49578  Biso   1.000  C
  C102     1.0000 0.59181  0.51238  0.39874  Biso   1.000  C
  N67      1.0000 0.63664  0.47053  0.41396  Biso   1.000  N
  H99      1.0000 0.56288  0.45165  0.42612  Biso   1.000  H
  N68      1.0000 0.61358  0.56624  0.40788  Biso   1.000  N
  O33      1.0000 0.63440  0.60809  0.44650  Biso   1.000  O
  N69      1.0000 0.67974  0.45467  0.44883  Biso   1.000  N
  C103     1.0000 0.70534  0.46833  0.49160  Biso   1.000  C
  H100     1.0000 0.62805  0.42711  0.47814  Biso   1.000  H
  N70      1.0000 0.71925  0.51697  0.50365  Biso   1.000  N
  O34      1.0000 0.68964  0.57633  0.50445  Biso   1.000  O
  N71      1.0000 0.62255  0.50559  0.37987  Biso   1.000  N
  H101     1.0000 0.55526  0.49762  0.39334  Biso   1.000  H
  C104     1.0000 0.64615  0.47882  0.38875  Biso   1.000  C
  C105     1.0000 0.64509  0.43230  0.42752  Biso   1.000  C
  C106     1.0000 0.60502  0.60401  0.39438  Biso   1.000  C
  C107     1.0000 0.72737  0.45746  0.45028  Biso   1.000  C
  N72      1.0000 0.74651  0.47159  0.47449  Biso   1.000  N
  H102     1.0000 0.69436  0.43972  0.50382  Biso   1.000  H
  C108     1.0000 0.75345  0.53770  0.52554  Biso   1.000  C
  C109     1.0000 0.61897  0.51387  0.35322  Biso   1.000  C
  O35      1.0000 0.67311  0.46602  0.37615  Biso   1.000  O
  H103     1.0000 0.61155  0.40403  0.43334  Biso   1.000  H
  H104     1.0000 0.65978  0.41734  0.41604  Biso   1.000  H
  N73      1.0000 0.64099  0.62862  0.37377  Biso   1.000  N
  H105     1.0000 0.56946  0.58654  0.38784  Biso   1.000  H
  H106     1.0000 0.60846  0.63094  0.40603  Biso   1.000  H
  O36      1.0000 0.75062  0.45079  0.43292  Biso   1.000  O
  C110     1.0000 0.78775  0.46311  0.48346  Biso   1.000  C
  N74      1.0000 0.80939  0.56275  0.51901  Biso   1.000  N
  H107     1.0000 0.74497  0.50932  0.53733  Biso   1.000  H
  H108     1.0000 0.74686  0.56322  0.53393  Biso   1.000  H
  N75      1.0000 0.64866  0.56781  0.34536  Biso   1.000  N
  H109     1.0000 0.63107  0.49373  0.34383  Biso   1.000  H
  H110     1.0000 0.58238  0.50045  0.34893  Biso   1.000  H
  C111     1.0000 0.63155  0.60518  0.34880  Biso   1.000  C
  C112     1.0000 0.67185  0.68299  0.37252  Biso   1.000  C
  N76      1.0000 0.83331  0.51112  0.49194  Biso   1.000  N
  H111     1.0000 0.79817  0.44784  0.47004  Biso   1.000  H
  H112     1.0000 0.77456  0.43822  0.49733  Biso   1.000  H
  C113     1.0000 0.83699  0.53432  0.51689  Biso   1.000  C
  C114     1.0000 0.84243  0.61598  0.52095  Biso   1.000  C
  C115     1.0000 0.69320  0.58677  0.33093  Biso   1.000  C
  H113     1.0000 0.59486  0.59062  0.34374  Biso   1.000  H
  C116     1.0000 0.66905  0.65217  0.33160  Biso   1.000  C
  N77      1.0000 0.68984  0.69681  0.34865  Biso   1.000  N
  O37      1.0000 0.68098  0.71255  0.39013  Biso   1.000  O
  C117     1.0000 0.88233  0.52934  0.48156  Biso   1.000  C
  C118     1.0000 0.89494  0.57692  0.51842  Biso   1.000  C
  H114     1.0000 0.82726  0.50834  0.53044  Biso   1.000  H
  N78      1.0000 0.89324  0.62595  0.51869  Biso   1.000  N
  O38      1.0000 0.82936  0.64899  0.52430  Biso   1.000  O
  O39      1.0000 0.71646  0.56353  0.32546  Biso   1.000  O
  N79      1.0000 0.70818  0.63761  0.32397  Biso   1.000  N
  H115     1.0000 0.65074  0.65641  0.31713  Biso   1.000  H
  C119     1.0000 0.71478  0.75043  0.33966  Biso   1.000  C
  O40      1.0000 0.89123  0.51211  0.46222  Biso   1.000  O
  N80      1.0000 0.91802  0.56903  0.49618  Biso   1.000  N
  H116     1.0000 0.91145  0.57323  0.53374  Biso   1.000  H
  C120     1.0000 0.93721  0.67506  0.52615  Biso   1.000  C
  C121     1.0000 0.74470  0.66368  0.30393  Biso   1.000  C
  N81      1.0000 0.77046  0.77285  0.33394  Biso   1.000  N
  H117     1.0000 0.71089  0.77195  0.35233  Biso   1.000  H
  H118     1.0000 0.69674  0.75161  0.32453  Biso   1.000  H
  C122     1.0000 0.97381  0.59392  0.49185  Biso   1.000  C
  N82      1.0000 0.97317  0.70285  0.50573  Biso   1.000  N
  H119     1.0000 0.95608  0.66874  0.53943  Biso   1.000  H
  H120     1.0000 0.92434  0.69712  0.53302  Biso   1.000  H
  N83      1.0000 0.79011  0.71294  0.31199  Biso   1.000  N
  H121     1.0000 0.72695  0.67074  0.29033  Biso   1.000  H
  H122     1.0000 0.75667  0.64063  0.29743  Biso   1.000  H
  C123     1.0000 0.79043  0.76241  0.31175  Biso   1.000  C
  C124     1.0000 0.80842  0.81552  0.34735  Biso   1.000  C
  N84      1.0000 0.99702  0.64680  0.48246  Biso   1.000  N
  H123     1.0000 0.99086  0.59435  0.50764  Biso   1.000  H
  H124     1.0000 0.98047  0.57303  0.47984  Biso   1.000  H
  C125     1.0000 0.01441  0.69190  0.49890  Biso   1.000  C
  C126     1.0000 0.98358  0.75087  0.49763  Biso   1.000  C
  C127     1.0000 0.84037  0.72072  0.30927  Biso   1.000  C
  H125     1.0000 0.77264  0.76531  0.29673  Biso   1.000  H
  C128     1.0000 0.84905  0.80418  0.31154  Biso   1.000  C
  O41      1.0000 0.80224  0.83566  0.36580  Biso   1.000  O
  N85      1.0000 0.85653  0.83075  0.33513  Biso   1.000  N
  C129     1.0000 0.01924  0.66050  0.45878  Biso   1.000  C
  C130     1.0000 0.05108  0.73874  0.48192  Biso   1.000  C
  H126     1.0000 0.03275  0.68943  0.51383  Biso   1.000  H
  N86      1.0000 0.02751  0.77155  0.48250  Biso   1.000  N
  O42      1.0000 0.95711  0.77171  0.50235  Biso   1.000  O
  O43      1.0000 0.85156  0.68586  0.30697  Biso   1.000  O
  N87      1.0000 0.87451  0.77281  0.30978  Biso   1.000  N
  H127     1.0000 0.85797  0.82812  0.29713  Biso   1.000  H
  C131     1.0000 0.90207  0.87982  0.34093  Biso   1.000  C
  O44      1.0000 0.01528  0.63054  0.44180  Biso   1.000  O
  N88      1.0000 0.04789  0.71447  0.45757  Biso   1.000  N
  H128     1.0000 0.08705  0.75723  0.48843  Biso   1.000  H
  C132     1.0000 0.05542  0.82581  0.47464  Biso   1.000  C
  C133     1.0000 0.93031  0.79609  0.30336  Biso   1.000  C
  N89      1.0000 0.94536  0.87405  0.35065  Biso   1.000  N
  H129     1.0000 0.89286  0.89812  0.35333  Biso   1.000  H
  H130     1.0000 0.91355  0.90122  0.32574  Biso   1.000  H
  C134     1.0000 0.08613  0.74117  0.43748  Biso   1.000  C
  N90      1.0000 0.05507  0.83327  0.44773  Biso   1.000  N
  H131     1.0000 0.03988  0.84422  0.48294  Biso   1.000  H
  H132     1.0000 0.09156  0.84151  0.48033  Biso   1.000  H
  N91      1.0000 0.96484  0.81784  0.32476  Biso   1.000  N
  H133     1.0000 0.93586  0.76932  0.29564  Biso   1.000  H
  H134     1.0000 0.93934  0.82361  0.29093  Biso   1.000  H
  C135     1.0000 0.98229  0.86974  0.33450  Biso   1.000  C
  C136     1.0000 0.96413  0.88972  0.37479  Biso   1.000  C
  N92      1.0000 0.07638  0.77681  0.42263  Biso   1.000  N
  H135     1.0000 0.12076  0.76072  0.44494  Biso   1.000  H
  H136     1.0000 0.08607  0.71495  0.42633  Biso   1.000  H
  C137     1.0000 0.03413  0.86122  0.43731  Biso   1.000  C
  C138     1.0000 0.09262  0.82997  0.43068  Biso   1.000  C
  C139     1.0000 0.99220  0.79550  0.33473  Biso   1.000  C
  H137     1.0000 0.99497  0.89604  0.32104  Biso   1.000  H
  C140     1.0000 0.02740  0.87869  0.35298  Biso   1.000  C
  O45      1.0000 0.94215  0.90075  0.39118  Biso   1.000  O
  N93      1.0000 0.01132  0.89121  0.37653  Biso   1.000  N
  C141     1.0000 0.06527  0.76963  0.39742  Biso   1.000  C
  N94      1.0000 0.05030  0.87174  0.41249  Biso   1.000  N
  O46      1.0000 0.00555  0.87390  0.44800  Biso   1.000  O
  C142     1.0000 0.08855  0.85623  0.40646  Biso   1.000  C
  H138     1.0000 0.12827  0.84783  0.43763  Biso   1.000  H
  O47      1.0000 0.98766  0.75373  0.32848  Biso   1.000  O
  N95      1.0000 0.02578  0.82867  0.35248  Biso   1.000  N
  H139     1.0000 0.06148  0.90734  0.34733  Biso   1.000  H
  C143     1.0000 0.04520  0.91170  0.39861  Biso   1.000  C
  N96      1.0000 0.07028  0.81446  0.38786  Biso   1.000  N
  O48      1.0000 0.05264  0.72872  0.38565  Biso   1.000  O
  H140     1.0000 0.12248  0.88642  0.40174  Biso   1.000  H
  C144     1.0000 0.07045  0.82384  0.36104  Biso   1.000  C
  H141     1.0000 0.07977  0.93883  0.39322  Biso   1.000  H
  H142     1.0000 0.03117  0.92772  0.40982  Biso   1.000  H
  H143     1.0000 0.07046  0.79523  0.35194  Biso   1.000  H
  H144     1.0000 0.10256  0.85584  0.35673  Biso   1.000  H
  C145     1.0000 0.38865  0.49138  0.53183  Biso   1.000  C
  N97      1.0000 0.34257  0.49318  0.52326  Biso   1.000  N
  N98      1.0000 0.38674  0.47831  0.55799  Biso   1.000  N
  H145     1.0000 0.41962  0.52537  0.52887  Biso   1.000  H
  H146     1.0000 0.39214  0.46566  0.52186  Biso   1.000  H
  C146     1.0000 0.31138  0.46237  0.50422  Biso   1.000  C
  C147     1.0000 0.33895  0.54116  0.52632  Biso   1.000  C
  C148     1.0000 0.40376  0.51678  0.57790  Biso   1.000  C
  C149     1.0000 0.37805  0.43006  0.56619  Biso   1.000  C
  N99      1.0000 0.28074  0.48302  0.49633  Biso   1.000  N
  O49      1.0000 0.31035  0.42366  0.49555  Biso   1.000  O
  C150     1.0000 0.29466  0.53166  0.50840  Biso   1.000  C
  N100     1.0000 0.32025  0.54532  0.55117  Biso   1.000  N
  H147     1.0000 0.37194  0.57287  0.52186  Biso   1.000  H
  N101     1.0000 0.36335  0.52946  0.58604  Biso   1.000  N
  H148     1.0000 0.43714  0.54838  0.57386  Biso   1.000  H
  C151     1.0000 0.40818  0.48761  0.60126  Biso   1.000  C
  O50      1.0000 0.36560  0.39190  0.55348  Biso   1.000  O
  N102     1.0000 0.38642  0.43375  0.59212  Biso   1.000  N
  C152     1.0000 0.24655  0.46229  0.47446  Biso   1.000  C
  N103     1.0000 0.25349  0.52840  0.52549  Biso   1.000  N
  H149     1.0000 0.30563  0.56027  0.49616  Biso   1.000  H
  C153     1.0000 0.27259  0.54253  0.54972  Biso   1.000  C
  C154     1.0000 0.35492  0.56773  0.57248  Biso   1.000  C
  C155     1.0000 0.35384  0.52117  0.61125  Biso   1.000  C
  N104     1.0000 0.37744  0.49440  0.62013  Biso   1.000  N
  H150     1.0000 0.44473  0.50237  0.60666  Biso   1.000  H
  C156     1.0000 0.39494  0.39598  0.60562  Biso   1.000  C
  N105     1.0000 0.19061  0.43724  0.48099  Biso   1.000  N
  H151     1.0000 0.25502  0.49067  0.46267  Biso   1.000  H
  H152     1.0000 0.25313  0.43677  0.46607  Biso   1.000  H
  C157     1.0000 0.21224  0.53688  0.51652  Biso   1.000  C
  O51      1.0000 0.24938  0.54920  0.56708  Biso   1.000  O
  H153     1.0000 0.38841  0.59596  0.56666  Biso   1.000  H
  H154     1.0000 0.34021  0.58265  0.58396  Biso   1.000  H
  O52      1.0000 0.32691  0.53401  0.62385  Biso   1.000  O
  C158     1.0000 0.38102  0.48612  0.64678  Biso   1.000  C
  N106     1.0000 0.35900  0.37137  0.62623  Biso   1.000  N
  H155     1.0000 0.43053  0.41345  0.61216  Biso   1.000  H
  H156     1.0000 0.39154  0.36905  0.59397  Biso   1.000  H
  C159     1.0000 0.15753  0.38401  0.47905  Biso   1.000  C
  C160     1.0000 0.16300  0.46566  0.48311  Biso   1.000  C
  N107     1.0000 0.16668  0.48887  0.50804  Biso   1.000  N
  H157     1.0000 0.20182  0.55215  0.52996  Biso   1.000  H
  H158     1.0000 0.22543  0.56177  0.50267  Biso   1.000  H
  N108     1.0000 0.35133  0.43218  0.65464  Biso   1.000  N
  H159     1.0000 0.36892  0.50626  0.65617  Biso   1.000  H
  H160     1.0000 0.41764  0.49958  0.65107  Biso   1.000  H
  C161     1.0000 0.36841  0.39481  0.65120  Biso   1.000  C
  C162     1.0000 0.32815  0.31700  0.62746  Biso   1.000  C
  O53      1.0000 0.17064  0.35100  0.47570  Biso   1.000  O
  N109     1.0000 0.10675  0.37404  0.48131  Biso   1.000  N
  C163     1.0000 0.10506  0.42307  0.48158  Biso   1.000  C
  H161     1.0000 0.17273  0.49165  0.46956  Biso   1.000  H
  C164     1.0000 0.11766  0.47065  0.51844  Biso   1.000  C
  C165     1.0000 0.30680  0.41322  0.66907  Biso   1.000  C
  H162     1.0000 0.40513  0.40937  0.65626  Biso   1.000  H
  C166     1.0000 0.33094  0.34782  0.66840  Biso   1.000  C
  O54      1.0000 0.31901  0.28744  0.60987  Biso   1.000  O
  N110     1.0000 0.31015  0.30318  0.65135  Biso   1.000  N
  C167     1.0000 0.06278  0.32493  0.47385  Biso   1.000  C
  N111     1.0000 0.08197  0.43096  0.50382  Biso   1.000  N
  H163     1.0000 0.08854  0.42676  0.46626  Biso   1.000  H
  O55      1.0000 0.10877  0.48788  0.53778  Biso   1.000  O
  O56      1.0000 0.28354  0.43646  0.67454  Biso   1.000  O
  N112     1.0000 0.29182  0.36238  0.67603  Biso   1.000  N
  H164     1.0000 0.34922  0.34358  0.68287  Biso   1.000  H
  C168     1.0000 0.28521  0.24956  0.66034  Biso   1.000  C
  N113     1.0000 0.02682  0.29713  0.49427  Biso   1.000  N
  H165     1.0000 0.04391  0.33125  0.46057  Biso   1.000  H
  H166     1.0000 0.07562  0.30287  0.46696  Biso   1.000  H
  C169     1.0000 0.02618  0.40607  0.50815  Biso   1.000  C
  C170     1.0000 0.25529  0.33631  0.69607  Biso   1.000  C
  N114     1.0000 0.22954  0.22714  0.66606  Biso   1.000  N
  H167     1.0000 0.28913  0.22808  0.64767  Biso   1.000  H
  H168     1.0000 0.30325  0.24838  0.67547  Biso   1.000  H
  C171     1.0000 0.01638  0.24912  0.50237  Biso   1.000  C
  C172     1.0000 0.98555  0.30809  0.50110  Biso   1.000  C
  N115     1.0000 0.00294  0.35319  0.51754  Biso   1.000  N
  H169     1.0000 0.00916  0.40568  0.49236  Biso   1.000  H
  H170     1.0000 0.01952  0.42696  0.52016  Biso   1.000  H
  N116     1.0000 0.20989  0.28705  0.68801  Biso   1.000  N
  H171     1.0000 0.27301  0.32925  0.70967  Biso   1.000  H
  H172     1.0000 0.24332  0.35936  0.70257  Biso   1.000  H
  C173     1.0000 0.19157  0.18447  0.65265  Biso   1.000  C
  C174     1.0000 0.20956  0.23758  0.68825  Biso   1.000  C
  O57      1.0000 0.04288  0.22828  0.49765  Biso   1.000  O
  N117     1.0000 0.97248  0.22844  0.51750  Biso   1.000  N
  C175     1.0000 0.94891  0.26125  0.51808  Biso   1.000  C
  H173     1.0000 0.96724  0.31056  0.48617  Biso   1.000  H
  C176     1.0000 0.98077  0.33953  0.54122  Biso   1.000  C
  C177     1.0000 0.15965  0.27931  0.69073  Biso   1.000  C
  N118     1.0000 0.14347  0.16924  0.66487  Biso   1.000  N
  O58      1.0000 0.19776  0.16433  0.63420  Biso   1.000  O
  C178     1.0000 0.15096  0.19585  0.68846  Biso   1.000  C
  H174     1.0000 0.22735  0.23468  0.70327  Biso   1.000  H
  C179     1.0000 0.94457  0.17418  0.52536  Biso   1.000  C
  N119     1.0000 0.95212  0.28555  0.54243  Biso   1.000  N
  H175     1.0000 0.91291  0.24276  0.51157  Biso   1.000  H
  O59      1.0000 0.98472  0.36945  0.55820  Biso   1.000  O
  N120     1.0000 0.12549  0.22718  0.69022  Biso   1.000  N
  O60      1.0000 0.14845  0.31417  0.69303  Biso   1.000  O
  C180     1.0000 0.09792  0.12017  0.65907  Biso   1.000  C
  H176     1.0000 0.14203  0.17187  0.70287  Biso   1.000  H
  N121     1.0000 0.94492  0.16672  0.55227  Biso   1.000  N
  H177     1.0000 0.96012  0.15577  0.51706  Biso   1.000  H
  H178     1.0000 0.90844  0.15848  0.51967  Biso   1.000  H
  C181     1.0000 0.91387  0.25882  0.56252  Biso   1.000  C
  C182     1.0000 0.06969  0.20390  0.69664  Biso   1.000  C
  N122     1.0000 0.05464  0.12594  0.64935  Biso   1.000  N
  H179     1.0000 0.10713  0.10187  0.64667  Biso   1.000  H
  H180     1.0000 0.08644  0.09877  0.67426  Biso   1.000  H
  C183     1.0000 0.96588  0.13881  0.56269  Biso   1.000  C
  C184     1.0000 0.90737  0.17002  0.56932  Biso   1.000  C
  N123     1.0000 0.92364  0.22321  0.57737  Biso   1.000  N
  H181     1.0000 0.87924  0.23927  0.55506  Biso   1.000  H
  H182     1.0000 0.91394  0.28508  0.57367  Biso   1.000  H
  N124     1.0000 0.03515  0.18215  0.67524  Biso   1.000  N
  H183     1.0000 0.06414  0.23067  0.70436  Biso   1.000  H
  H184     1.0000 0.06065  0.17638  0.70907  Biso   1.000  H
  C185     1.0000 0.03586  0.11027  0.62521  Biso   1.000  C
  C186     1.0000 0.01772  0.13029  0.66548  Biso   1.000  C
  N125     1.0000 0.94969  0.12825  0.58751  Biso   1.000  N
  O61      1.0000 0.99444  0.12609  0.55200  Biso   1.000  O
  C187     1.0000 0.91145  0.14376  0.59354  Biso   1.000  C
  H185     1.0000 0.87172  0.15216  0.56237  Biso   1.000  H
  C188     1.0000 0.93469  0.23036  0.60258  Biso   1.000  C
  C189     1.0000 0.00780  0.20449  0.66527  Biso   1.000  C
  N126     1.0000 0.98867  0.10878  0.62347  Biso   1.000  N
  O62      1.0000 0.05785  0.09924  0.60882  Biso   1.000  O
  C190     1.0000 0.97262  0.12134  0.64702  Biso   1.000  C
  H186     1.0000 0.00503  0.10395  0.67896  Biso   1.000  H
  C191     1.0000 0.95480  0.08829  0.60139  Biso   1.000  C
  N127     1.0000 0.92971  0.18553  0.61214  Biso   1.000  N
  H187     1.0000 0.87752  0.11357  0.59826  Biso   1.000  H
  O63      1.0000 0.94735  0.27126  0.61435  Biso   1.000  O
  N128     1.0000 0.97421  0.17132  0.64752  Biso   1.000  N
  O64      1.0000 0.01233  0.24626  0.67152  Biso   1.000  O
  H188     1.0000 0.93854  0.09269  0.65267  Biso   1.000  H
  H189     1.0000 0.92023  0.06116  0.60676  Biso   1.000  H
  H190     1.0000 0.96882  0.07227  0.59016  Biso   1.000  H
  C192     1.0000 0.92954  0.17615  0.63896  Biso   1.000  C
  H191     1.0000 0.92954  0.20476  0.64806  Biso   1.000  H
  H192     1.0000 0.89743  0.14415  0.64327  Biso   1.000  H
  O65      1.0000 0.50098  0.48180  0.64030  Biso   1.000  O
  C193     1.0000 0.54698  0.49295  0.64260  Biso   1.000  C
  N129     1.0000 0.56497  0.45883  0.64311  Biso   1.000  N
  N130     1.0000 0.58947  0.54320  0.64532  Biso   1.000  N
  C194     1.0000 0.53244  0.40301  0.63669  Biso   1.000  C
  C195     1.0000 0.62180  0.48431  0.64487  Biso   1.000  C
  C196     1.0000 0.63867  0.54292  0.64508  Biso   1.000  C
  C197     1.0000 0.58563  0.58862  0.63726  Biso   1.000  C
  N131     1.0000 0.51965  0.36846  0.65809  Biso   1.000  N
  H193     1.0000 0.50012  0.39748  0.62897  Biso   1.000  H
  H194     1.0000 0.55094  0.39398  0.62427  Biso   1.000  H
  N132     1.0000 0.64090  0.47681  0.66846  Biso   1.000  N
  H195     1.0000 0.63684  0.47536  0.63046  Biso   1.000  H
  N133     1.0000 0.66904  0.56286  0.66727  Biso   1.000  N
  H196     1.0000 0.65934  0.56067  0.63006  Biso   1.000  H
  N134     1.0000 0.59609  0.62517  0.65730  Biso   1.000  N
  H197     1.0000 0.61042  0.60636  0.62366  Biso   1.000  H
  H198     1.0000 0.55061  0.57664  0.63076  Biso   1.000  H
  C198     1.0000 0.55408  0.35103  0.66784  Biso   1.000  C
  C199     1.0000 0.46995  0.34114  0.66806  Biso   1.000  C
  C200     1.0000 0.67373  0.52486  0.68068  Biso   1.000  C
  C201     1.0000 0.64439  0.43124  0.67426  Biso   1.000  C
  C202     1.0000 0.70231  0.61853  0.67299  Biso   1.000  C
  C203     1.0000 0.56025  0.64012  0.66427  Biso   1.000  C
  C204     1.0000 0.64977  0.66426  0.66493  Biso   1.000  C
  N135     1.0000 0.59536  0.38798  0.68399  Biso   1.000  N
  H199     1.0000 0.56773  0.33835  0.65437  Biso   1.000  H
  C205     1.0000 0.51798  0.30597  0.68631  Biso   1.000  C
  O66      1.0000 0.43270  0.34566  0.66181  Biso   1.000  O
  N136     1.0000 0.46954  0.30754  0.68582  Biso   1.000  N
  O67      1.0000 0.70009  0.53107  0.69913  Biso   1.000  O
  H200     1.0000 0.67192  0.44046  0.68667  Biso   1.000  H
  H201     1.0000 0.65433  0.41977  0.65907  Biso   1.000  H
  N137     1.0000 0.67362  0.64350  0.68198  Biso   1.000  N
  H202     1.0000 0.72773  0.62246  0.68567  Biso   1.000  H
  H203     1.0000 0.72152  0.63655  0.65787  Biso   1.000  H
  O68      1.0000 0.51373  0.61684  0.65879  Biso   1.000  O
  N138     1.0000 0.58583  0.68468  0.67870  Biso   1.000  N
  C206     1.0000 0.64026  0.70176  0.68213  Biso   1.000  C
  H204     1.0000 0.67231  0.68256  0.65046  Biso   1.000  H
  C207     1.0000 0.59227  0.36921  0.70812  Biso   1.000  C
  N139     1.0000 0.54658  0.32202  0.70986  Biso   1.000  N
  H205     1.0000 0.51252  0.27185  0.68066  Biso   1.000  H
  C208     1.0000 0.42007  0.26286  0.69437  Biso   1.000  C
  C209     1.0000 0.67782  0.66148  0.70586  Biso   1.000  C
  C210     1.0000 0.56157  0.71436  0.68655  Biso   1.000  C
  N140     1.0000 0.65429  0.69233  0.70710  Biso   1.000  N
  H206     1.0000 0.66242  0.73846  0.67707  Biso   1.000  H
  O69      1.0000 0.62529  0.39119  0.72452  Biso   1.000  O
  C211     1.0000 0.53317  0.28815  0.73194  Biso   1.000  C
  N141     1.0000 0.41085  0.26306  0.72119  Biso   1.000  N
  H207     1.0000 0.39144  0.26286  0.68527  Biso   1.000  H
  H208     1.0000 0.41992  0.23075  0.69007  Biso   1.000  H
  O70      1.0000 0.69823  0.65233  0.72346  Biso   1.000  O
  N142     1.0000 0.54972  0.71078  0.71320  Biso   1.000  N
  H209     1.0000 0.52935  0.70227  0.67717  Biso   1.000  H
  H210     1.0000 0.58473  0.75094  0.68227  Biso   1.000  H
  C212     1.0000 0.66564  0.72829  0.72771  Biso   1.000  C
  N143     1.0000 0.48812  0.28304  0.74582  Biso   1.000  N
  H211     1.0000 0.52574  0.25356  0.72656  Biso   1.000  H
  H212     1.0000 0.56323  0.30216  0.74316  Biso   1.000  H
  C213     1.0000 0.37102  0.26805  0.73075  Biso   1.000  C
  C214     1.0000 0.43436  0.24481  0.73980  Biso   1.000  C
  C215     1.0000 0.49934  0.68719  0.72208  Biso   1.000  C
  C216     1.0000 0.58722  0.74152  0.73207  Biso   1.000  C
  N144     1.0000 0.61934  0.71973  0.74121  Biso   1.000  N
  H213     1.0000 0.68372  0.76386  0.72117  Biso   1.000  H
  H214     1.0000 0.68912  0.72488  0.73936  Biso   1.000  H
  C217     1.0000 0.49376  0.29922  0.77064  Biso   1.000  C
  O71      1.0000 0.34276  0.28069  0.71898  Biso   1.000  O
  N145     1.0000 0.36712  0.25698  0.75596  Biso   1.000  N
  H215     1.0000 0.43061  0.21085  0.73507  Biso   1.000  H
  C218     1.0000 0.40400  0.24072  0.76401  Biso   1.000  C
  O72      1.0000 0.45957  0.66022  0.70948  Biso   1.000  O
  N146     1.0000 0.50055  0.69669  0.74729  Biso   1.000  N
  C219     1.0000 0.55366  0.73709  0.75543  Biso   1.000  C
  H216     1.0000 0.60903  0.77807  0.72667  Biso   1.000  H
  C220     1.0000 0.61464  0.71137  0.76714  Biso   1.000  C
  N147     1.0000 0.44486  0.27825  0.78106  Biso   1.000  N
  O73      1.0000 0.53505  0.32779  0.78133  Biso   1.000  O
  C221     1.0000 0.32170  0.24720  0.77081  Biso   1.000  C
  H217     1.0000 0.38625  0.20508  0.77096  Biso   1.000  H
  C222     1.0000 0.45387  0.68825  0.76084  Biso   1.000  C
  N148     1.0000 0.57511  0.72009  0.77534  Biso   1.000  N
  H218     1.0000 0.55542  0.77045  0.75946  Biso   1.000  H
  O74      1.0000 0.64035  0.69893  0.77984  Biso   1.000  O
  C223     1.0000 0.43706  0.27794  0.80798  Biso   1.000  C
  H219     1.0000 0.30663  0.21258  0.77827  Biso   1.000  H
  H220     1.0000 0.29553  0.24728  0.75967  Biso   1.000  H
  N149     1.0000 0.33324  0.28544  0.79090  Biso   1.000  N
  N150     1.0000 0.44160  0.65359  0.78216  Biso   1.000  N
  H221     1.0000 0.45914  0.72178  0.76667  Biso   1.000  H
  H222     1.0000 0.42423  0.67357  0.74937  Biso   1.000  H
  C224     1.0000 0.56395  0.72197  0.80150  Biso   1.000  C
  H223     1.0000 0.47104  0.29348  0.81627  Biso   1.000  H
  H224     1.0000 0.41663  0.24178  0.81366  Biso   1.000  H
  N151     1.0000 0.41073  0.30585  0.81582  Biso   1.000  N
  C225     1.0000 0.35433  0.28226  0.81525  Biso   1.000  C
  C226     1.0000 0.30795  0.31413  0.79211  Biso   1.000  C
  C227     1.0000 0.39673  0.60593  0.78361  Biso   1.000  C
  C228     1.0000 0.46446  0.67231  0.80701  Biso   1.000  C
  N152     1.0000 0.51602  0.67588  0.81007  Biso   1.000  N
  H225     1.0000 0.56091  0.75295  0.80446  Biso   1.000  H
  H226     1.0000 0.59313  0.72547  0.81147  Biso   1.000  H
  C229     1.0000 0.43396  0.34974  0.83096  Biso   1.000  C
  H227     1.0000 0.33684  0.24626  0.82177  Biso   1.000  H
  C230     1.0000 0.34414  0.31892  0.83223  Biso   1.000  C
  O75      1.0000 0.28191  0.31802  0.77513  Biso   1.000  O
  N153     1.0000 0.31640  0.33627  0.81580  Biso   1.000  N
  O76      1.0000 0.36684  0.58273  0.76626  Biso   1.000  O
  N154     1.0000 0.39173  0.58681  0.80783  Biso   1.000  N
  C231     1.0000 0.42966  0.62799  0.82494  Biso   1.000  C
  H228     1.0000 0.46573  0.70525  0.81147  Biso   1.000  H
  C232     1.0000 0.51567  0.64471  0.82911  Biso   1.000  C
  N155     1.0000 0.39633  0.36014  0.83907  Biso   1.000  N
  O77      1.0000 0.48126  0.37620  0.83567  Biso   1.000  O
  H229     1.0000 0.32332  0.30055  0.84717  Biso   1.000  H
  C233     1.0000 0.28678  0.35951  0.82518  Biso   1.000  C
  C234     1.0000 0.34199  0.54555  0.81680  Biso   1.000  C
  N156     1.0000 0.46437  0.61406  0.83699  Biso   1.000  N
  H230     1.0000 0.41201  0.63894  0.83716  Biso   1.000  H
  O78      1.0000 0.55337  0.64369  0.83778  Biso   1.000  O
  C235     1.0000 0.40454  0.39614  0.85948  Biso   1.000  C
  N157     1.0000 0.31766  0.41530  0.82951  Biso   1.000  N
  H231     1.0000 0.27014  0.34248  0.84097  Biso   1.000  H
  H232     1.0000 0.25922  0.35288  0.81317  Biso   1.000  H
  N158     1.0000 0.34445  0.50001  0.82528  Biso   1.000  N
  H233     1.0000 0.31633  0.53515  0.80337  Biso   1.000  H
  H234     1.0000 0.33035  0.55878  0.83066  Biso   1.000  H
  C236     1.0000 0.45093  0.57990  0.85888  Biso   1.000  C
  N159     1.0000 0.39934  0.44007  0.85202  Biso   1.000  N
  H235     1.0000 0.37932  0.37726  0.87276  Biso   1.000  H
  H236     1.0000 0.43944  0.40898  0.86636  Biso   1.000  H
  C237     1.0000 0.34865  0.43838  0.85176  Biso   1.000  C
  C238     1.0000 0.31368  0.45098  0.81489  Biso   1.000  C
  C239     1.0000 0.36399  0.49632  0.85023  Biso   1.000  C
  N160     1.0000 0.42001  0.52392  0.85234  Biso   1.000  N
  H237     1.0000 0.43103  0.58838  0.87066  Biso   1.000  H
  H238     1.0000 0.48304  0.58646  0.86726  Biso   1.000  H
  C240     1.0000 0.44017  0.49087  0.85429  Biso   1.000  C
  H239     1.0000 0.32842  0.42185  0.86706  Biso   1.000  H
  O79      1.0000 0.28755  0.44211  0.79555  Biso   1.000  O
  H240     1.0000 0.34771  0.50606  0.86377  Biso   1.000  H
  O80      1.0000 0.48628  0.50394  0.85763  Biso   1.000  O
  O81      1.0000 0.49901  0.51819  0.35970  Biso   1.000  O
  C241     1.0000 0.45302  0.50704  0.35740  Biso   1.000  C
  N161     1.0000 0.41052  0.45679  0.35468  Biso   1.000  N
  N162     1.0000 0.43502  0.54116  0.35689  Biso   1.000  N
  C242     1.0000 0.41436  0.41137  0.36274  Biso   1.000  C
  C243     1.0000 0.36135  0.45711  0.35492  Biso   1.000  C
  C244     1.0000 0.37821  0.51572  0.35513  Biso   1.000  C
  C245     1.0000 0.46756  0.59698  0.36331  Biso   1.000  C
  N163     1.0000 0.40391  0.37482  0.34270  Biso   1.000  N
  H241     1.0000 0.38958  0.39363  0.37634  Biso   1.000  H
  H242     1.0000 0.44938  0.42335  0.36924  Biso   1.000  H
  N164     1.0000 0.33096  0.43712  0.33273  Biso   1.000  N
  H243     1.0000 0.34066  0.43932  0.36994  Biso   1.000  H
  N165     1.0000 0.35909  0.52318  0.33154  Biso   1.000  N
  H244     1.0000 0.36315  0.52463  0.36954  Biso   1.000  H
  N166     1.0000 0.48034  0.63152  0.34191  Biso   1.000  N
  H245     1.0000 0.49987  0.60251  0.37103  Biso   1.000  H
  H246     1.0000 0.44908  0.60605  0.37573  Biso   1.000  H
  C246     1.0000 0.35022  0.33572  0.33507  Biso   1.000  C
  C247     1.0000 0.43974  0.35987  0.33573  Biso   1.000  C
  C248     1.0000 0.29769  0.38146  0.32701  Biso   1.000  C
  C249     1.0000 0.32623  0.47513  0.31932  Biso   1.000  C
  C250     1.0000 0.35557  0.56875  0.32574  Biso   1.000  C
  C251     1.0000 0.44588  0.64895  0.33214  Biso   1.000  C
  C252     1.0000 0.53006  0.65889  0.33194  Biso   1.000  C
  C253     1.0000 0.35973  0.29823  0.31787  Biso   1.000  C
  N167     1.0000 0.32634  0.35649  0.31802  Biso   1.000  N
  H247     1.0000 0.32765  0.31743  0.34954  Biso   1.000  H
  N168     1.0000 0.41417  0.31531  0.32130  Biso   1.000  N
  O82      1.0000 0.48626  0.38315  0.34121  Biso   1.000  O
  H248     1.0000 0.27226  0.37753  0.31433  Biso   1.000  H
  H249     1.0000 0.27848  0.36344  0.34213  Biso   1.000  H
  O83      1.0000 0.29991  0.46892  0.30087  Biso   1.000  O
  N169     1.0000 0.40463  0.61201  0.31601  Biso   1.000  N
  H250     1.0000 0.32807  0.55953  0.31333  Biso   1.000  H
  H251     1.0000 0.34566  0.58022  0.34093  Biso   1.000  H
  H252     1.0000 0.43227  0.66163  0.34563  Biso   1.000  H
  C254     1.0000 0.48201  0.69402  0.31369  Biso   1.000  C
  O84      1.0000 0.56726  0.65433  0.33819  Biso   1.000  O
  N170     1.0000 0.53046  0.69245  0.31418  Biso   1.000  N
  N171     1.0000 0.34571  0.30766  0.29290  Biso   1.000  N
  H253     1.0000 0.33757  0.26153  0.32293  Biso   1.000  H
  C255     1.0000 0.32218  0.33851  0.29412  Biso   1.000  C
  C256     1.0000 0.43842  0.28563  0.31345  Biso   1.000  C
  C257     1.0000 0.40775  0.63082  0.29188  Biso   1.000  C
  N172     1.0000 0.45342  0.67797  0.29014  Biso   1.000  N
  H254     1.0000 0.48748  0.72814  0.31934  Biso   1.000  H
  C258     1.0000 0.57992  0.73713  0.30563  Biso   1.000  C
  C259     1.0000 0.33436  0.27170  0.27229  Biso   1.000  C
  O85      1.0000 0.30176  0.34766  0.27654  Biso   1.000  O
  N173     1.0000 0.45027  0.28921  0.28680  Biso   1.000  N
  H255     1.0000 0.47065  0.29772  0.32283  Biso   1.000  H
  H256     1.0000 0.41527  0.24905  0.31773  Biso   1.000  H
  O86      1.0000 0.37470  0.60879  0.27548  Biso   1.000  O
  C260     1.0000 0.46682  0.71184  0.26806  Biso   1.000  C
  N174     1.0000 0.58911  0.73693  0.27881  Biso   1.000  N
  H257     1.0000 0.60855  0.73713  0.31473  Biso   1.000  H
  H258     1.0000 0.58007  0.76924  0.30993  Biso   1.000  H
  N175     1.0000 0.38066  0.28025  0.25879  Biso   1.000  N
  H259     1.0000 0.31627  0.23613  0.27883  Biso   1.000  H
  H260     1.0000 0.31084  0.27511  0.26064  Biso   1.000  H
  C261     1.0000 0.41277  0.25847  0.26793  Biso   1.000  C
  C262     1.0000 0.50066  0.31280  0.27792  Biso   1.000  C
  N176     1.0000 0.51187  0.71695  0.25418  Biso   1.000  N
  H261     1.0000 0.47426  0.74643  0.27342  Biso   1.000  H
  H262     1.0000 0.43676  0.69783  0.25684  Biso   1.000  H
  C263     1.0000 0.56563  0.75518  0.26020  Biso   1.000  C
  C264     1.0000 0.62898  0.73194  0.26925  Biso   1.000  C
  C265     1.0000 0.38535  0.28862  0.23286  Biso   1.000  C
  C266     1.0000 0.44634  0.26290  0.24457  Biso   1.000  C
  H263     1.0000 0.39096  0.22192  0.27333  Biso   1.000  H
  N177     1.0000 0.49944  0.30330  0.25271  Biso   1.000  N
  O87      1.0000 0.54042  0.33977  0.29052  Biso   1.000  O
  C267     1.0000 0.50623  0.70077  0.22936  Biso   1.000  C
  H264     1.0000 0.56939  0.78914  0.26493  Biso   1.000  H
  C268     1.0000 0.59599  0.75927  0.23599  Biso   1.000  C
  O88      1.0000 0.65723  0.71930  0.28102  Biso   1.000  O
  N178     1.0000 0.63288  0.74301  0.24404  Biso   1.000  N
  O89      1.0000 0.35965  0.30106  0.22014  Biso   1.000  O
  N179     1.0000 0.42488  0.27990  0.22466  Biso   1.000  N
  H265     1.0000 0.44458  0.22953  0.24052  Biso   1.000  H
  C269     1.0000 0.54613  0.31174  0.23914  Biso   1.000  C
  N180     1.0000 0.55513  0.72174  0.21894  Biso   1.000  N
  O90      1.0000 0.46495  0.67219  0.21867  Biso   1.000  O
  H266     1.0000 0.61375  0.79491  0.22904  Biso   1.000  H
  C270     1.0000 0.67829  0.75279  0.22919  Biso   1.000  C
  C271     1.0000 0.43604  0.27802  0.19850  Biso   1.000  C
  N181     1.0000 0.55839  0.34640  0.21784  Biso   1.000  N
  H267     1.0000 0.54085  0.27821  0.23333  Biso   1.000  H
  H268     1.0000 0.57577  0.32642  0.25063  Biso   1.000  H
  C272     1.0000 0.56294  0.72205  0.19202  Biso   1.000  C
  N182     1.0000 0.66675  0.71455  0.20910  Biso   1.000  N
  H269     1.0000 0.69336  0.78741  0.22173  Biso   1.000  H
  H270     1.0000 0.70446  0.75271  0.24033  Biso   1.000  H
  N183     1.0000 0.48397  0.32410  0.18993  Biso   1.000  N
  H271     1.0000 0.43909  0.24704  0.19554  Biso   1.000  H
  H272     1.0000 0.40686  0.27452  0.18853  Biso   1.000  H
  C273     1.0000 0.53553  0.32768  0.19299  Biso   1.000  C
  C274     1.0000 0.60327  0.39406  0.21639  Biso   1.000  C
  N184     1.0000 0.58927  0.69414  0.18417  Biso   1.000  N
  H273     1.0000 0.52897  0.70654  0.18373  Biso   1.000  H
  H274     1.0000 0.58338  0.75825  0.18634  Biso   1.000  H
  C275     1.0000 0.64567  0.71773  0.18475  Biso   1.000  C
  C276     1.0000 0.69207  0.68590  0.20789  Biso   1.000  C
  C277     1.0000 0.48429  0.35527  0.17089  Biso   1.000  C
  C278     1.0000 0.57034  0.37200  0.17506  Biso   1.000  C
  H275     1.0000 0.53426  0.29474  0.18853  Biso   1.000  H
  N185     1.0000 0.60827  0.41318  0.19215  Biso   1.000  N
  O91      1.0000 0.63316  0.41726  0.23374  Biso   1.000  O
  C279     1.0000 0.56603  0.65025  0.16904  Biso   1.000  C
  C280     1.0000 0.65586  0.68107  0.16777  Biso   1.000  C
  H276     1.0000 0.66316  0.75373  0.17823  Biso   1.000  H
  N186     1.0000 0.68356  0.66372  0.18420  Biso   1.000  N
  O92      1.0000 0.71808  0.68197  0.22487  Biso   1.000  O
  O93      1.0000 0.44663  0.35630  0.16222  Biso   1.000  O
  N187     1.0000 0.53563  0.38593  0.16301  Biso   1.000  N
  H277     1.0000 0.58798  0.36105  0.16284  Biso   1.000  H
  C281     1.0000 0.65800  0.45444  0.18320  Biso   1.000  C
  N188     1.0000 0.60367  0.63985  0.16093  Biso   1.000  N
  O94      1.0000 0.51874  0.62379  0.16432  Biso   1.000  O
  H278     1.0000 0.67667  0.69944  0.15283  Biso   1.000  H
  C282     1.0000 0.71321  0.64048  0.17482  Biso   1.000  C
  C283     1.0000 0.54909  0.42013  0.14112  Biso   1.000  C
  N189     1.0000 0.65551  0.49998  0.17472  Biso   1.000  N
  H279     1.0000 0.68367  0.46484  0.19663  Biso   1.000  H
  H280     1.0000 0.66966  0.44125  0.16934  Biso   1.000  H
  C284     1.0000 0.59546  0.60385  0.14052  Biso   1.000  C
  N190     1.0000 0.68233  0.58469  0.17049  Biso   1.000  N
  H281     1.0000 0.72986  0.65751  0.15903  Biso   1.000  H
  H282     1.0000 0.74074  0.64711  0.18683  Biso   1.000  H
  N191     1.0000 0.57998  0.47607  0.14766  Biso   1.000  N
  H283     1.0000 0.56898  0.41165  0.12934  Biso   1.000  H
  H284     1.0000 0.51696  0.41353  0.13274  Biso   1.000  H
  C285     1.0000 0.63600  0.50367  0.14977  Biso   1.000  C
  C286     1.0000 0.68631  0.54901  0.18511  Biso   1.000  C
  N192     1.0000 0.60062  0.55992  0.14798  Biso   1.000  N
  H285     1.0000 0.62067  0.62273  0.12724  Biso   1.000  H
  H286     1.0000 0.56055  0.59101  0.13362  Biso   1.000  H
  C287     1.0000 0.65134  0.56161  0.14824  Biso   1.000  C
  C288     1.0000 0.55982  0.50912  0.14571  Biso   1.000  C
  H287     1.0000 0.65225  0.49393  0.13623  Biso   1.000  H
  O95      1.0000 0.71244  0.55788  0.20445  Biso   1.000  O
  H288     1.0000 0.67157  0.57814  0.13293  Biso   1.000  H
  O96      1.0000 0.51371  0.49605  0.14237  Biso   1.000  O
  C289     1.0000 0.78720  0.35492  0.42752  Biso   1.000  C
  N193     1.0000 0.83389  0.36336  0.41396  Biso   1.000  N
  N194     1.0000 0.77494  0.32026  0.44883  Biso   1.000  N
  H289     1.0000 0.79248  0.38845  0.43334  Biso   1.000  H
  H290     1.0000 0.75756  0.34024  0.41604  Biso   1.000  H
  C290     1.0000 0.83267  0.35386  0.38875  Biso   1.000  C
  C291     1.0000 0.88699  0.40376  0.42210  Biso   1.000  C
  C292     1.0000 0.73006  0.27260  0.45028  Biso   1.000  C
  C293     1.0000 0.79780  0.33898  0.47368  Biso   1.000  C
  O97      1.0000 0.79291  0.32689  0.37615  Biso   1.000  O
  N195     1.0000 0.88306  0.37745  0.37987  Biso   1.000  N
  C294     1.0000 0.92056  0.40819  0.39874  Biso   1.000  C
  N196     1.0000 0.90845  0.38676  0.44201  Biso   1.000  N
  H291     1.0000 0.88875  0.43712  0.42612  Biso   1.000  H
  O98      1.0000 0.70017  0.24940  0.43292  Biso   1.000  O
  N197     1.0000 0.72506  0.25348  0.47449  Biso   1.000  N
  N198     1.0000 0.84936  0.34256  0.47674  Biso   1.000  N
  C295     1.0000 0.76299  0.29466  0.49160  Biso   1.000  C
  H292     1.0000 0.79907  0.37192  0.47814  Biso   1.000  H
  C296     1.0000 0.89491  0.38103  0.35322  Biso   1.000  C
  N199     1.0000 0.95264  0.38641  0.40788  Biso   1.000  N
  H293     1.0000 0.94237  0.44474  0.39334  Biso   1.000  H
  C297     1.0000 0.89729  0.38864  0.46817  Biso   1.000  C
  C298     1.0000 0.94798  0.37804  0.43381  Biso   1.000  C
  C299     1.0000 0.67533  0.21222  0.48346  Biso   1.000  C
  C300     1.0000 0.84900  0.31139  0.49578  Biso   1.000  C
  N200     1.0000 0.79770  0.28073  0.50365  Biso   1.000  N
  H294     1.0000 0.74535  0.30561  0.50382  Biso   1.000  H
  N201     1.0000 0.91916  0.35135  0.34536  Biso   1.000  N
  H295     1.0000 0.86265  0.36894  0.34383  Biso   1.000  H
  H296     1.0000 0.91806  0.41761  0.34893  Biso   1.000  H
  C301     1.0000 0.99897  0.39496  0.39438  Biso   1.000  C
  H297     1.0000 0.89424  0.41962  0.47113  Biso   1.000  H
  H298     1.0000 0.92647  0.39214  0.47814  Biso   1.000  H
  O99      1.0000 0.97368  0.36560  0.44650  Biso   1.000  O
  N202     1.0000 0.67779  0.16668  0.49194  Biso   1.000  N
  H299     1.0000 0.64966  0.20182  0.47004  Biso   1.000  H
  H300     1.0000 0.66367  0.22541  0.49733  Biso   1.000  H
  O100     1.0000 0.88670  0.31036  0.50445  Biso   1.000  O
  C302     1.0000 0.78424  0.24653  0.52554  Biso   1.000  C
  C303     1.0000 0.97360  0.36843  0.34880  Biso   1.000  C
  C304     1.0000 0.89359  0.30679  0.33093  Biso   1.000  C
  N203     1.0000 0.98762  0.35900  0.37377  Biso   1.000  N
  H301     1.0000 0.01706  0.43053  0.38784  Biso   1.000  H
  H302     1.0000 0.02249  0.39155  0.40603  Biso   1.000  H
  C305     1.0000 0.64702  0.11765  0.48156  Biso   1.000  C
  C306     1.0000 0.69733  0.16299  0.51689  Biso   1.000  C
  N204     1.0000 0.75335  0.19059  0.51901  Biso   1.000  N
  H303     1.0000 0.76435  0.25501  0.53733  Biso   1.000  H
  H304     1.0000 0.81637  0.25313  0.53393  Biso   1.000  H
  H305     1.0000 0.99576  0.40513  0.34374  Biso   1.000  H
  C307     1.0000 0.98311  0.33094  0.33160  Biso   1.000  C
  O101     1.0000 0.84707  0.28351  0.32546  Biso   1.000  O
  N205     1.0000 0.92942  0.29184  0.32397  Biso   1.000  N
  C308     1.0000 0.01115  0.32815  0.37252  Biso   1.000  C
  O102     1.0000 0.62089  0.10878  0.46222  Biso   1.000  O
  N206     1.0000 0.65100  0.08197  0.49618  Biso   1.000  N
  C309     1.0000 0.68199  0.10505  0.51842  Biso   1.000  C
  H306     1.0000 0.68105  0.17273  0.53044  Biso   1.000  H
  C310     1.0000 0.77351  0.15754  0.52095  Biso   1.000  C
  N207     1.0000 0.00699  0.31017  0.34865  Biso   1.000  N
  H307     1.0000 0.00568  0.34923  0.31713  Biso   1.000  H
  C311     1.0000 0.91897  0.25529  0.30393  Biso   1.000  C
  O103     1.0000 0.03157  0.31900  0.39013  Biso   1.000  O
  C312     1.0000 0.62008  0.02618  0.49185  Biso   1.000  C
  N208     1.0000 0.73267  0.10674  0.51869  Biso   1.000  N
  H308     1.0000 0.66176  0.08852  0.53374  Biso   1.000  H
  O104     1.0000 0.81962  0.17061  0.52430  Biso   1.000  O
  C313     1.0000 0.03564  0.28520  0.33966  Biso   1.000  C
  N209     1.0000 0.92281  0.20987  0.31199  Biso   1.000  N
  H309     1.0000 0.94375  0.27303  0.29033  Biso   1.000  H
  H310     1.0000 0.88395  0.24331  0.29743  Biso   1.000  H
  N210     1.0000 0.64973  0.00294  0.48246  Biso   1.000  N
  H311     1.0000 0.60347  0.00915  0.50764  Biso   1.000  H
  H312     1.0000 0.59256  0.01955  0.47984  Biso   1.000  H
  C314     1.0000 0.73787  0.06281  0.52615  Biso   1.000  C
  N211     1.0000 0.00237  0.22953  0.33394  Biso   1.000  N
  H313     1.0000 0.06107  0.28913  0.35233  Biso   1.000  H
  H314     1.0000 0.05485  0.30322  0.32453  Biso   1.000  H
  C315     1.0000 0.97198  0.20955  0.31175  Biso   1.000  C
  C316     1.0000 0.88031  0.15962  0.30927  Biso   1.000  C
  C317     1.0000 0.64128  0.98080  0.45878  Biso   1.000  C
  C318     1.0000 0.67747  0.98559  0.49890  Biso   1.000  C
  N212     1.0000 0.72966  0.02681  0.50573  Biso   1.000  N
  H315     1.0000 0.71266  0.04393  0.53943  Biso   1.000  H
  H316     1.0000 0.77278  0.07565  0.53302  Biso   1.000  H
  C319     1.0000 0.00710  0.19153  0.34735  Biso   1.000  C
  H317     1.0000 0.99267  0.22734  0.29673  Biso   1.000  H
  C320     1.0000 0.95514  0.15098  0.31154  Biso   1.000  C
  O105     1.0000 0.83431  0.14847  0.30697  Biso   1.000  O
  N213     1.0000 0.89831  0.12550  0.30978  Biso   1.000  N
  O106     1.0000 0.61525  0.98469  0.44180  Biso   1.000  O
  N214     1.0000 0.66657  0.95211  0.45757  Biso   1.000  N
  C321     1.0000 0.68766  0.94893  0.48192  Biso   1.000  C
  H318     1.0000 0.65666  0.96722  0.51383  Biso   1.000  H
  C322     1.0000 0.76726  0.01641  0.49763  Biso   1.000  C
  N215     1.0000 0.97424  0.14348  0.33513  Biso   1.000  N
  O107     1.0000 0.03342  0.19774  0.36580  Biso   1.000  O
  H319     1.0000 0.97015  0.14203  0.29713  Biso   1.000  H
  C323     1.0000 0.86577  0.06968  0.30336  Biso   1.000  C
  C324     1.0000 0.65504  0.91387  0.43748  Biso   1.000  C
  N216     1.0000 0.74406  0.97252  0.48250  Biso   1.000  N
  H320     1.0000 0.67017  0.91293  0.48843  Biso   1.000  H
  O108     1.0000 0.81459  0.04287  0.50235  Biso   1.000  O
  C325     1.0000 0.97773  0.09791  0.34093  Biso   1.000  C
  N217     1.0000 0.85299  0.03513  0.32476  Biso   1.000  N
  H321     1.0000 0.83346  0.06415  0.29564  Biso   1.000  H
  H322     1.0000 0.88427  0.06065  0.29093  Biso   1.000  H
  N218     1.0000 0.70045  0.92365  0.42263  Biso   1.000  N
  H323     1.0000 0.63997  0.87925  0.44494  Biso   1.000  H
  H324     1.0000 0.62887  0.91395  0.42633  Biso   1.000  H
  C326     1.0000 0.77039  0.94461  0.47464  Biso   1.000  C
  N219     1.0000 0.92870  0.05465  0.35065  Biso   1.000  N
  H325     1.0000 0.98767  0.08644  0.32574  Biso   1.000  H
  H326     1.0000 0.00526  0.10713  0.35333  Biso   1.000  H
  C327     1.0000 0.88741  0.01770  0.33450  Biso   1.000  C
  C328     1.0000 0.80329  0.00781  0.33473  Biso   1.000  C
  C329     1.0000 0.70435  0.93472  0.39742  Biso   1.000  C
  C330     1.0000 0.73734  0.90739  0.43068  Biso   1.000  C
  N220     1.0000 0.77820  0.94492  0.44773  Biso   1.000  N
  H327     1.0000 0.80438  0.96015  0.48294  Biso   1.000  H
  H328     1.0000 0.74997  0.90845  0.48033  Biso   1.000  H
  C331     1.0000 0.92560  0.03588  0.37479  Biso   1.000  C
  H329     1.0000 0.90106  0.00502  0.32104  Biso   1.000  H
  C332     1.0000 0.85132  0.97264  0.35298  Biso   1.000  C
  O109     1.0000 0.76604  0.01233  0.32848  Biso   1.000  O
  N221     1.0000 0.80287  0.97421  0.35248  Biso   1.000  N
  N222     1.0000 0.74419  0.92973  0.38786  Biso   1.000  N
  O110     1.0000 0.67610  0.94736  0.38565  Biso   1.000  O
  C333     1.0000 0.76770  0.91148  0.40646  Biso   1.000  C
  H330     1.0000 0.71958  0.87175  0.43763  Biso   1.000  H
  C334     1.0000 0.82710  0.96589  0.43731  Biso   1.000  C
  O111     1.0000 0.95863  0.05786  0.39118  Biso   1.000  O
  N223     1.0000 0.87991  0.98869  0.37653  Biso   1.000  N
  H331     1.0000 0.84585  0.93852  0.34733  Biso   1.000  H
  C335     1.0000 0.75341  0.92953  0.36104  Biso   1.000  C
  N224     1.0000 0.82146  0.94971  0.41249  Biso   1.000  N
  H332     1.0000 0.76394  0.87752  0.40174  Biso   1.000  H
  O112     1.0000 0.86838  0.99446  0.44800  Biso   1.000  O
  C336     1.0000 0.86651  0.95482  0.39861  Biso   1.000  C
  H333     1.0000 0.72478  0.92953  0.35194  Biso   1.000  H
  H334     1.0000 0.75326  0.89742  0.35673  Biso   1.000  H
  H335     1.0000 0.85907  0.92023  0.39322  Biso   1.000  H
  H336     1.0000 0.89657  0.96883  0.40982  Biso   1.000  H
  C337     1.0000 0.21279  0.64507  0.57248  Biso   1.000  C
  N225     1.0000 0.22506  0.67973  0.55117  Biso   1.000  N
  N226     1.0000 0.16611  0.63663  0.58604  Biso   1.000  N
  H337     1.0000 0.20752  0.61154  0.56666  Biso   1.000  H
  H338     1.0000 0.24243  0.65975  0.58396  Biso   1.000  H
  C338     1.0000 0.20220  0.66101  0.52632  Biso   1.000  C
  C339     1.0000 0.26993  0.72739  0.54972  Biso   1.000  C
  C340     1.0000 0.11300  0.59623  0.57790  Biso   1.000  C
  C341     1.0000 0.16732  0.64613  0.61125  Biso   1.000  C
  C342     1.0000 0.23700  0.70533  0.50840  Biso   1.000  C
  N227     1.0000 0.15064  0.65743  0.52326  Biso   1.000  N
  H339     1.0000 0.20093  0.62807  0.52186  Biso   1.000  H
  N228     1.0000 0.27493  0.74651  0.52549  Biso   1.000  N
  O113     1.0000 0.29982  0.75059  0.56708  Biso   1.000  O
  N229     1.0000 0.09155  0.61323  0.55799  Biso   1.000  N
  H340     1.0000 0.11124  0.56286  0.57386  Biso   1.000  H
  C343     1.0000 0.07944  0.59180  0.60126  Biso   1.000  C
  O114     1.0000 0.20709  0.67310  0.62385  Biso   1.000  O
  N230     1.0000 0.11694  0.62253  0.62013  Biso   1.000  N
  N231     1.0000 0.20229  0.71926  0.49633  Biso   1.000  N
  H341     1.0000 0.25465  0.69437  0.49616  Biso   1.000  H
  C344     1.0000 0.15099  0.68860  0.50422  Biso   1.000  C
  C345     1.0000 0.10271  0.61135  0.53183  Biso   1.000  C
  C346     1.0000 0.32466  0.78777  0.51652  Biso   1.000  C
  C347     1.0000 0.05201  0.62195  0.56619  Biso   1.000  C
  N232     1.0000 0.04732  0.61358  0.59212  Biso   1.000  N
  H342     1.0000 0.05763  0.55525  0.60666  Biso   1.000  H
  C348     1.0000 0.10511  0.61900  0.64678  Biso   1.000  C
  C349     1.0000 0.21575  0.75346  0.47446  Biso   1.000  C
  O115     1.0000 0.11329  0.68962  0.49555  Biso   1.000  O
  H343     1.0000 0.10575  0.58037  0.52887  Biso   1.000  H
  H344     1.0000 0.07353  0.60785  0.52186  Biso   1.000  H
  N233     1.0000 0.32221  0.83330  0.50804  Biso   1.000  N
  H345     1.0000 0.35033  0.79817  0.52996  Biso   1.000  H
  H346     1.0000 0.33633  0.77458  0.50267  Biso   1.000  H
  O116     1.0000 0.02631  0.63439  0.55348  Biso   1.000  O
  C350     1.0000 0.00102  0.60503  0.60562  Biso   1.000  C
  N234     1.0000 0.08083  0.64864  0.65464  Biso   1.000  N
  H347     1.0000 0.13731  0.63105  0.65617  Biso   1.000  H
  H348     1.0000 0.08193  0.58238  0.65107  Biso   1.000  H
  N235     1.0000 0.24664  0.80940  0.48099  Biso   1.000  N
  H349     1.0000 0.23565  0.74498  0.46267  Biso   1.000  H
  H350     1.0000 0.18362  0.74686  0.46607  Biso   1.000  H
  C351     1.0000 0.35298  0.88234  0.51844  Biso   1.000  C
  C352     1.0000 0.30267  0.83699  0.48311  Biso   1.000  C
  N236     1.0000 0.01237  0.64099  0.62623  Biso   1.000  N
  H351     1.0000 0.98293  0.56946  0.61216  Biso   1.000  H
  H352     1.0000 0.97753  0.60848  0.59397  Biso   1.000  H
  C353     1.0000 0.02640  0.63156  0.65120  Biso   1.000  C
  C354     1.0000 0.10641  0.69320  0.66907  Biso   1.000  C
  C355     1.0000 0.22649  0.84245  0.47905  Biso   1.000  C
  O117     1.0000 0.37911  0.89121  0.53778  Biso   1.000  O
  N237     1.0000 0.34899  0.91802  0.50382  Biso   1.000  N
  C356     1.0000 0.31801  0.89494  0.48158  Biso   1.000  C
  H353     1.0000 0.31895  0.82726  0.46956  Biso   1.000  H
  C357     1.0000 0.98884  0.67184  0.62746  Biso   1.000  C
  H354     1.0000 0.00424  0.59486  0.65626  Biso   1.000  H
  C358     1.0000 0.01689  0.66905  0.66840  Biso   1.000  C
  O118     1.0000 0.15293  0.71648  0.67454  Biso   1.000  O
  N238     1.0000 0.07057  0.70815  0.67603  Biso   1.000  N
  N239     1.0000 0.26732  0.89325  0.48131  Biso   1.000  N
  O119     1.0000 0.18038  0.82938  0.47570  Biso   1.000  O
  C359     1.0000 0.37988  0.97381  0.50815  Biso   1.000  C
  H355     1.0000 0.33824  0.91147  0.46626  Biso   1.000  H
  O120     1.0000 0.96843  0.68099  0.60987  Biso   1.000  O
  N240     1.0000 0.99302  0.68986  0.65135  Biso   1.000  N
  H356     1.0000 0.99431  0.65076  0.68287  Biso   1.000  H
  C360     1.0000 0.08103  0.74470  0.69607  Biso   1.000  C
  C361     1.0000 0.26212  0.93718  0.47385  Biso   1.000  C
  N241     1.0000 0.35026  0.99705  0.51754  Biso   1.000  N
  H357     1.0000 0.39652  0.99084  0.49236  Biso   1.000  H
  H358     1.0000 0.40746  0.98048  0.52016  Biso   1.000  H
  C362     1.0000 0.96435  0.71479  0.66034  Biso   1.000  C
  N242     1.0000 0.07719  0.79012  0.68801  Biso   1.000  N
  H359     1.0000 0.05624  0.72696  0.70967  Biso   1.000  H
  H360     1.0000 0.11605  0.75668  0.70257  Biso   1.000  H
  N243     1.0000 0.27033  0.97318  0.49427  Biso   1.000  N
  H361     1.0000 0.28734  0.95606  0.46057  Biso   1.000  H
  H362     1.0000 0.22721  0.92434  0.46696  Biso   1.000  H
  C363     1.0000 0.35873  0.01923  0.54122  Biso   1.000  C
  C364     1.0000 0.32252  0.01440  0.50110  Biso   1.000  C
  N244     1.0000 0.99762  0.77045  0.66606  Biso   1.000  N
  H363     1.0000 0.93893  0.71086  0.64767  Biso   1.000  H
  H364     1.0000 0.94514  0.69677  0.67547  Biso   1.000  H
  C365     1.0000 0.02801  0.79044  0.68825  Biso   1.000  C
  C366     1.0000 0.11968  0.84037  0.69073  Biso   1.000  C
  C367     1.0000 0.23272  0.98362  0.50237  Biso   1.000  C
  O121     1.0000 0.38475  0.01530  0.55820  Biso   1.000  O
  N245     1.0000 0.33342  0.04788  0.54243  Biso   1.000  N
  C368     1.0000 0.31233  0.05106  0.51808  Biso   1.000  C
  H365     1.0000 0.34334  0.03277  0.48617  Biso   1.000  H
  C369     1.0000 0.99289  0.80846  0.65265  Biso   1.000  C
  H366     1.0000 0.00732  0.77265  0.70327  Biso   1.000  H
  C370     1.0000 0.04487  0.84905  0.68846  Biso   1.000  C
  O122     1.0000 0.16570  0.85156  0.69303  Biso   1.000  O
  N246     1.0000 0.10169  0.87449  0.69022  Biso   1.000  N
  O123     1.0000 0.18540  0.95712  0.49765  Biso   1.000  O
  N247     1.0000 0.25593  0.02747  0.51750  Biso   1.000  N
  C371     1.0000 0.34496  0.08612  0.56252  Biso   1.000  C
  H367     1.0000 0.32982  0.08706  0.51157  Biso   1.000  H
  N248     1.0000 0.02576  0.85651  0.66487  Biso   1.000  N
  O124     1.0000 0.96657  0.80225  0.63420  Biso   1.000  O
  H368     1.0000 0.02982  0.85796  0.70287  Biso   1.000  H
  C372     1.0000 0.13422  0.93031  0.69664  Biso   1.000  C
  C373     1.0000 0.22960  0.05538  0.52536  Biso   1.000  C
  N249     1.0000 0.29954  0.07634  0.57737  Biso   1.000  N
  H369     1.0000 0.36002  0.12074  0.55506  Biso   1.000  H
  H370     1.0000 0.37113  0.08604  0.57367  Biso   1.000  H
  C374     1.0000 0.02227  0.90208  0.65907  Biso   1.000  C
  N250     1.0000 0.14701  0.96485  0.67524  Biso   1.000  N
  H371     1.0000 0.16653  0.93584  0.70436  Biso   1.000  H
  H372     1.0000 0.11574  0.93938  0.70907  Biso   1.000  H
  N251     1.0000 0.22179  0.05507  0.55227  Biso   1.000  N
  H373     1.0000 0.19564  0.03987  0.51706  Biso   1.000  H
  H374     1.0000 0.25002  0.09154  0.51967  Biso   1.000  H
  C375     1.0000 0.29564  0.06527  0.60258  Biso   1.000  C
  C376     1.0000 0.26266  0.09260  0.56932  Biso   1.000  C
  N252     1.0000 0.07130  0.94534  0.64935  Biso   1.000  N
  H375     1.0000 0.01232  0.91355  0.67426  Biso   1.000  H
  H376     1.0000 0.99474  0.89286  0.64667  Biso   1.000  H
  C377     1.0000 0.19673  0.99222  0.66527  Biso   1.000  C
  C378     1.0000 0.11258  0.98228  0.66548  Biso   1.000  C
  C379     1.0000 0.17290  0.03410  0.56269  Biso   1.000  C
  N253     1.0000 0.25577  0.07026  0.61214  Biso   1.000  N
  O125     1.0000 0.32390  0.05263  0.61435  Biso   1.000  O
  C380     1.0000 0.23230  0.08851  0.59354  Biso   1.000  C
  H377     1.0000 0.28041  0.12824  0.56237  Biso   1.000  H
  C381     1.0000 0.07441  0.96415  0.62521  Biso   1.000  C
  N254     1.0000 0.19712  0.02578  0.64752  Biso   1.000  N
  O126     1.0000 0.23396  0.98766  0.67152  Biso   1.000  O
  C382     1.0000 0.14868  0.02735  0.64702  Biso   1.000  C
  H378     1.0000 0.09893  0.99496  0.67896  Biso   1.000  H
  N255     1.0000 0.17854  0.05028  0.58751  Biso   1.000  N
  O127     1.0000 0.13161  0.00552  0.55200  Biso   1.000  O
  C383     1.0000 0.24659  0.07046  0.63896  Biso   1.000  C
  H379     1.0000 0.23605  0.12247  0.59826  Biso   1.000  H
  N256     1.0000 0.12008  0.01130  0.62347  Biso   1.000  N
  O128     1.0000 0.04137  0.94212  0.60882  Biso   1.000  O
  H380     1.0000 0.15414  0.06147  0.65267  Biso   1.000  H
  C384     1.0000 0.13349  0.04517  0.60139  Biso   1.000  C
  H381     1.0000 0.27522  0.07046  0.64806  Biso   1.000  H
  H382     1.0000 0.24673  0.10257  0.64327  Biso   1.000  H
  H383     1.0000 0.14092  0.07976  0.60676  Biso   1.000  H
  H384     1.0000 0.10343  0.03116  0.59016  Biso   1.000  H
  C385     1.0000 0.79692  0.44588  0.66784  Biso   1.000  C
  N257     1.0000 0.84883  0.48035  0.65809  Biso   1.000  N
  N258     1.0000 0.79261  0.40462  0.68399  Biso   1.000  N
  H385     1.0000 0.77063  0.43226  0.65437  Biso   1.000  H
  C386     1.0000 0.78800  0.48203  0.68631  Biso   1.000  C
  C387     1.0000 0.87058  0.46755  0.63669  Biso   1.000  C
  C388     1.0000 0.87116  0.53005  0.66806  Biso   1.000  C
  C389     1.0000 0.78682  0.35559  0.67426  Biso   1.000  C
  C390     1.0000 0.77692  0.40772  0.70812  Biso   1.000  C
  N259     1.0000 0.83801  0.53044  0.68582  Biso   1.000  N
  N260     1.0000 0.77543  0.45342  0.70986  Biso   1.000  N
  H386     1.0000 0.75933  0.48745  0.68066  Biso   1.000  H
  N261     1.0000 0.89385  0.43500  0.64311  Biso   1.000  N
  H387     1.0000 0.89731  0.49986  0.62897  Biso   1.000  H
  H388     1.0000 0.84301  0.44906  0.62427  Biso   1.000  H
  O129     1.0000 0.91292  0.56726  0.66181  Biso   1.000  O
  N262     1.0000 0.83590  0.35908  0.66846  Biso   1.000  N
  H389     1.0000 0.76854  0.32807  0.68667  Biso   1.000  H
  H390     1.0000 0.76544  0.34566  0.65907  Biso   1.000  H
  O130     1.0000 0.76589  0.37471  0.72452  Biso   1.000  O
  C391     1.0000 0.84280  0.57994  0.69437  Biso   1.000  C
  C392     1.0000 0.75496  0.46680  0.73194  Biso   1.000  C
  C393     1.0000 0.94595  0.45298  0.64260  Biso   1.000  C
  C394     1.0000 0.86249  0.37820  0.64487  Biso   1.000  C
  C395     1.0000 0.85112  0.32622  0.68068  Biso   1.000  C
  N263     1.0000 0.85219  0.58913  0.72119  Biso   1.000  N
  H391     1.0000 0.87142  0.60856  0.68527  Biso   1.000  H
  H392     1.0000 0.81084  0.58006  0.69007  Biso   1.000  H
  N264     1.0000 0.79490  0.51187  0.74582  Biso   1.000  N
  H393     1.0000 0.72782  0.47426  0.72656  Biso   1.000  H
  H394     1.0000 0.73892  0.43677  0.74316  Biso   1.000  H
  O131     1.0000 0.98080  0.49903  0.64030  Biso   1.000  O
  N265     1.0000 0.95371  0.41051  0.64532  Biso   1.000  N
  C396     1.0000 0.90423  0.36132  0.64508  Biso   1.000  C
  H395     1.0000 0.83851  0.36316  0.63046  Biso   1.000  H
  N266     1.0000 0.89379  0.33094  0.66727  Biso   1.000  N
  O132     1.0000 0.83098  0.29988  0.69913  Biso   1.000  O
  C397     1.0000 0.89700  0.62897  0.73075  Biso   1.000  C
  C398     1.0000 0.81043  0.56565  0.73980  Biso   1.000  C
  C399     1.0000 0.80545  0.50626  0.77064  Biso   1.000  C
  C400     1.0000 0.00299  0.41436  0.63726  Biso   1.000  C
  H396     1.0000 0.90131  0.34067  0.63006  Biso   1.000  H
  C401     1.0000 0.91623  0.29768  0.67299  Biso   1.000  C
  O133     1.0000 0.93792  0.65724  0.71898  Biso   1.000  O
  N267     1.0000 0.88985  0.63290  0.75596  Biso   1.000  N
  H397     1.0000 0.78024  0.56938  0.73507  Biso   1.000  H
  C402     1.0000 0.83672  0.59600  0.76401  Biso   1.000  C
  N268     1.0000 0.83339  0.55513  0.78106  Biso   1.000  N
  O134     1.0000 0.79276  0.46496  0.78133  Biso   1.000  O
  H398     1.0000 0.99592  0.38955  0.62366  Biso   1.000  H
  N269     1.0000 0.02908  0.40391  0.65730  Biso   1.000  N
  H399     1.0000 0.02604  0.44937  0.63076  Biso   1.000  H
  N270     1.0000 0.96985  0.32638  0.68198  Biso   1.000  N
  H400     1.0000 0.89471  0.27225  0.68567  Biso   1.000  H
  H401     1.0000 0.91501  0.27845  0.65787  Biso   1.000  H
  C403     1.0000 0.92549  0.67828  0.77081  Biso   1.000  C
  H402     1.0000 0.81882  0.61378  0.77096  Biso   1.000  H
  C404     1.0000 0.84086  0.56294  0.80798  Biso   1.000  C
  C405     1.0000 0.07988  0.43976  0.66427  Biso   1.000  C
  C406     1.0000 0.01450  0.35021  0.66493  Biso   1.000  C
  C407     1.0000 0.98366  0.32218  0.70586  Biso   1.000  C
  H403     1.0000 0.90593  0.69335  0.77827  Biso   1.000  H
  H404     1.0000 0.95174  0.70446  0.75967  Biso   1.000  H
  N271     1.0000 0.95219  0.66674  0.79090  Biso   1.000  N
  H405     1.0000 0.82240  0.52895  0.81627  Biso   1.000  H
  H406     1.0000 0.82513  0.58336  0.81366  Biso   1.000  H
  N272     1.0000 0.89510  0.58928  0.81582  Biso   1.000  N
  O135     1.0000 0.10314  0.48627  0.65879  Biso   1.000  O
  N273     1.0000 0.09883  0.41416  0.67870  Biso   1.000  N
  C408     1.0000 0.06148  0.35971  0.68213  Biso   1.000  C
  H407     1.0000 0.01024  0.32768  0.65046  Biso   1.000  H
  N274     1.0000 0.03805  0.34570  0.70710  Biso   1.000  N
  O136     1.0000 0.95411  0.30177  0.72346  Biso   1.000  O
  C409     1.0000 0.92791  0.64566  0.81525  Biso   1.000  C
  C410     1.0000 0.00619  0.69206  0.79211  Biso   1.000  C
  C411     1.0000 0.91578  0.56604  0.83096  Biso   1.000  C
  C412     1.0000 0.15278  0.43842  0.68655  Biso   1.000  C
  H408     1.0000 0.07604  0.33757  0.67707  Biso   1.000  H
  C413     1.0000 0.06263  0.33435  0.72771  Biso   1.000  C
  H409     1.0000 0.90944  0.66317  0.82177  Biso   1.000  H
  C414     1.0000 0.97477  0.65586  0.83223  Biso   1.000  C
  O137     1.0000 0.03608  0.71805  0.77513  Biso   1.000  O
  N275     1.0000 0.01987  0.68358  0.81580  Biso   1.000  N
  N276     1.0000 0.96379  0.60365  0.83907  Biso   1.000  N
  O138     1.0000 0.89495  0.51874  0.83567  Biso   1.000  O
  N277     1.0000 0.16105  0.45028  0.71320  Biso   1.000  N
  H410     1.0000 0.17294  0.47065  0.67717  Biso   1.000  H
  H411     1.0000 0.16622  0.41526  0.68227  Biso   1.000  H
  N278     1.0000 0.10041  0.38067  0.74121  Biso   1.000  N
  H412     1.0000 0.08014  0.31625  0.72117  Biso   1.000  H
  H413     1.0000 0.03573  0.31087  0.73936  Biso   1.000  H
  H414     1.0000 0.97721  0.67667  0.84717  Biso   1.000  H
  C415     1.0000 0.07273  0.71322  0.82518  Biso   1.000  C
  C416     1.0000 0.99163  0.59549  0.85948  Biso   1.000  C
  C417     1.0000 0.18785  0.50068  0.72208  Biso   1.000  C
  C418     1.0000 0.15429  0.41275  0.73207  Biso   1.000  C
  C419     1.0000 0.09673  0.38535  0.76714  Biso   1.000  C
  N279     1.0000 0.09764  0.68232  0.82951  Biso   1.000  N
  H415     1.0000 0.07235  0.72986  0.84097  Biso   1.000  H
  H416     1.0000 0.09365  0.74078  0.81317  Biso   1.000  H
  H417     1.0000 0.99792  0.62065  0.87276  Biso   1.000  H
  H418     1.0000 0.96950  0.56055  0.86636  Biso   1.000  H
  N280     1.0000 0.04071  0.60063  0.85202  Biso   1.000  N
  O139     1.0000 0.20067  0.54045  0.70948  Biso   1.000  O
  N281     1.0000 0.19613  0.49943  0.74729  Biso   1.000  N
  C420     1.0000 0.18343  0.44635  0.75543  Biso   1.000  C
  H419     1.0000 0.16903  0.39096  0.72667  Biso   1.000  H
  N282     1.0000 0.14499  0.42488  0.77534  Biso   1.000  N
  O140     1.0000 0.05858  0.35963  0.77984  Biso   1.000  O
  C421     1.0000 0.08973  0.65135  0.85176  Biso   1.000  C
  C422     1.0000 0.13731  0.68633  0.81489  Biso   1.000  C
  C423     1.0000 0.05069  0.55980  0.85429  Biso   1.000  C
  C424     1.0000 0.23438  0.54614  0.76084  Biso   1.000  C
  H420     1.0000 0.21503  0.44454  0.75946  Biso   1.000  H
  C425     1.0000 0.15804  0.43603  0.80150  Biso   1.000  C
  H421     1.0000 0.09345  0.67157  0.86706  Biso   1.000  H
  C426     1.0000 0.13234  0.63600  0.85023  Biso   1.000  C
  O141     1.0000 0.15454  0.71243  0.79555  Biso   1.000  O
  N283     1.0000 0.15554  0.65555  0.82528  Biso   1.000  N
  O142     1.0000 0.01763  0.51368  0.85763  Biso   1.000  O
  N284     1.0000 0.10392  0.57998  0.85234  Biso   1.000  N
  N285     1.0000 0.21198  0.55839  0.78216  Biso   1.000  N
  H422     1.0000 0.26265  0.54088  0.76667  Biso   1.000  H
  H423     1.0000 0.24934  0.57578  0.74937  Biso   1.000  H
  N286     1.0000 0.15984  0.48396  0.81007  Biso   1.000  N
  H424     1.0000 0.19202  0.43905  0.80446  Biso   1.000  H
  H425     1.0000 0.13234  0.40686  0.81147  Biso   1.000  H
  H426     1.0000 0.15831  0.65225  0.86377  Biso   1.000  H
  C427     1.0000 0.20354  0.65798  0.81680  Biso   1.000  C
  C428     1.0000 0.12897  0.54909  0.85888  Biso   1.000  C
  C429     1.0000 0.20919  0.60326  0.78361  Biso   1.000  C
  C430     1.0000 0.20783  0.53554  0.80701  Biso   1.000  C
  C431     1.0000 0.12905  0.48431  0.82911  Biso   1.000  C
  N287     1.0000 0.19509  0.60825  0.80783  Biso   1.000  N
  H427     1.0000 0.21883  0.68366  0.80337  Biso   1.000  H
  H428     1.0000 0.22841  0.66964  0.83066  Biso   1.000  H
  N288     1.0000 0.14970  0.53562  0.83699  Biso   1.000  N
  H429     1.0000 0.15732  0.56895  0.87066  Biso   1.000  H
  H430     1.0000 0.10342  0.51697  0.86726  Biso   1.000  H
  O143     1.0000 0.21587  0.63313  0.76626  Biso   1.000  O
  C432     1.0000 0.19833  0.57032  0.82494  Biso   1.000  C
  H431     1.0000 0.23952  0.53425  0.81147  Biso   1.000  H
  O144     1.0000 0.09031  0.44663  0.83778  Biso   1.000  O
  H432     1.0000 0.22693  0.58795  0.83716  Biso   1.000  H
  C433     1.0000 0.20308  0.55411  0.33214  Biso   1.000  C
  C434     1.0000 0.21199  0.51795  0.31369  Biso   1.000  C
  N289     1.0000 0.15117  0.51964  0.34191  Biso   1.000  N
  N290     1.0000 0.20739  0.59537  0.31601  Biso   1.000  N
  H433     1.0000 0.22937  0.56773  0.34563  Biso   1.000  H
  N291     1.0000 0.16199  0.46955  0.31418  Biso   1.000  N
  N292     1.0000 0.22457  0.54657  0.29014  Biso   1.000  N
  H434     1.0000 0.24066  0.51254  0.31934  Biso   1.000  H
  C435     1.0000 0.12883  0.46994  0.33194  Biso   1.000  C
  C436     1.0000 0.12941  0.53244  0.36331  Biso   1.000  C
  C437     1.0000 0.22307  0.59227  0.29188  Biso   1.000  C
  C438     1.0000 0.21317  0.64440  0.32574  Biso   1.000  C
  C439     1.0000 0.15719  0.42005  0.30563  Biso   1.000  C
  C440     1.0000 0.24504  0.53319  0.26806  Biso   1.000  C
  O145     1.0000 0.08707  0.43273  0.33819  Biso   1.000  O
  N293     1.0000 0.10615  0.56498  0.35689  Biso   1.000  N
  H435     1.0000 0.10265  0.50013  0.37103  Biso   1.000  H
  H436     1.0000 0.15695  0.55093  0.37573  Biso   1.000  H
  O146     1.0000 0.23411  0.62528  0.27548  Biso   1.000  O
  N294     1.0000 0.16410  0.64091  0.33154  Biso   1.000  N
  H437     1.0000 0.23145  0.67192  0.31333  Biso   1.000  H
  H438     1.0000 0.23456  0.65433  0.34093  Biso   1.000  H
  N295     1.0000 0.14781  0.41086  0.27881  Biso   1.000  N
  H439     1.0000 0.12857  0.39143  0.31473  Biso   1.000  H
  H440     1.0000 0.18916  0.41993  0.30993  Biso   1.000  H
  N296     1.0000 0.20506  0.48812  0.25418  Biso   1.000  N
  H441     1.0000 0.27218  0.52573  0.27342  Biso   1.000  H
  H442     1.0000 0.26107  0.56322  0.25684  Biso   1.000  H
  C441     1.0000 0.05405  0.54700  0.35740  Biso   1.000  C
  C442     1.0000 0.13751  0.62179  0.35513  Biso   1.000  C
  C443     1.0000 0.14888  0.67377  0.31932  Biso   1.000  C
  C444     1.0000 0.18958  0.43438  0.26020  Biso   1.000  C
  C445     1.0000 0.10300  0.37102  0.26925  Biso   1.000  C
  C446     1.0000 0.19451  0.49373  0.22936  Biso   1.000  C
  O147     1.0000 0.01916  0.50096  0.35970  Biso   1.000  O
  N297     1.0000 0.04629  0.58948  0.35468  Biso   1.000  N
  C447     1.0000 0.09577  0.63867  0.35492  Biso   1.000  C
  H443     1.0000 0.16148  0.63682  0.36954  Biso   1.000  H
  O148     1.0000 0.16902  0.70011  0.30087  Biso   1.000  O
  N298     1.0000 0.10620  0.66905  0.33273  Biso   1.000  N
  C448     1.0000 0.16327  0.40399  0.23599  Biso   1.000  C
  H444     1.0000 0.21978  0.43065  0.26493  Biso   1.000  H
  N299     1.0000 0.11014  0.36709  0.24404  Biso   1.000  N
  O149     1.0000 0.06207  0.34275  0.28102  Biso   1.000  O
  N300     1.0000 0.16661  0.44486  0.21894  Biso   1.000  N
  O150     1.0000 0.20724  0.53503  0.21867  Biso   1.000  O
  C449     1.0000 0.99701  0.58563  0.36274  Biso   1.000  C
  H445     1.0000 0.09865  0.65932  0.36994  Biso   1.000  H
  C450     1.0000 0.08376  0.70230  0.32701  Biso   1.000  C
  H446     1.0000 0.18119  0.38625  0.22904  Biso   1.000  H
  C451     1.0000 0.07450  0.32171  0.22919  Biso   1.000  C
  C452     1.0000 0.15913  0.43705  0.19202  Biso   1.000  C
  H447     1.0000 0.00407  0.61044  0.37634  Biso   1.000  H
  N301     1.0000 0.97091  0.59608  0.34270  Biso   1.000  N
  H448     1.0000 0.97396  0.55062  0.36924  Biso   1.000  H
  N302     1.0000 0.03017  0.67365  0.31802  Biso   1.000  N
  H449     1.0000 0.10529  0.72774  0.31433  Biso   1.000  H
  H450     1.0000 0.08498  0.72154  0.34213  Biso   1.000  H
  H451     1.0000 0.09406  0.30664  0.22173  Biso   1.000  H
  H452     1.0000 0.04825  0.29553  0.24033  Biso   1.000  H
  N303     1.0000 0.04780  0.33325  0.20910  Biso   1.000  N
  H453     1.0000 0.17756  0.47104  0.18373  Biso   1.000  H
  H454     1.0000 0.17486  0.41663  0.18634  Biso   1.000  H
  N304     1.0000 0.10489  0.41071  0.18417  Biso   1.000  N
  C453     1.0000 0.92012  0.56023  0.33573  Biso   1.000  C
  C454     1.0000 0.98549  0.64978  0.33507  Biso   1.000  C
  C455     1.0000 0.01634  0.67781  0.29412  Biso   1.000  C
  C456     1.0000 0.07208  0.35433  0.18475  Biso   1.000  C
  C457     1.0000 0.99380  0.30793  0.20789  Biso   1.000  C
  C458     1.0000 0.08421  0.43395  0.16904  Biso   1.000  C
  O151     1.0000 0.89686  0.51371  0.34121  Biso   1.000  O
  N305     1.0000 0.90116  0.58583  0.32130  Biso   1.000  N
  C459     1.0000 0.93852  0.64028  0.31787  Biso   1.000  C
  H455     1.0000 0.98976  0.67231  0.34954  Biso   1.000  H
  O152     1.0000 0.04589  0.69822  0.27654  Biso   1.000  O
  N306     1.0000 0.96195  0.65429  0.29290  Biso   1.000  N
  H456     1.0000 0.09056  0.33682  0.17823  Biso   1.000  H
  C460     1.0000 0.02523  0.34413  0.16777  Biso   1.000  C
  O153     1.0000 0.96388  0.28194  0.22487  Biso   1.000  O
  N307     1.0000 0.98013  0.31641  0.18420  Biso   1.000  N
  N308     1.0000 0.03620  0.39634  0.16093  Biso   1.000  N
  O154     1.0000 0.10506  0.48129  0.16432  Biso   1.000  O
  C461     1.0000 0.84722  0.56157  0.31345  Biso   1.000  C
  H457     1.0000 0.92395  0.66242  0.32293  Biso   1.000  H
  C462     1.0000 0.93736  0.66564  0.27229  Biso   1.000  C
  H458     1.0000 0.02275  0.32332  0.15283  Biso   1.000  H
  C463     1.0000 0.92726  0.28677  0.17482  Biso   1.000  C
  C464     1.0000 0.00836  0.40450  0.14052  Biso   1.000  C
  N309     1.0000 0.83894  0.54971  0.28680  Biso   1.000  N
  H459     1.0000 0.82705  0.52934  0.32283  Biso   1.000  H
  H460     1.0000 0.83377  0.58473  0.31773  Biso   1.000  H
  N310     1.0000 0.89955  0.61932  0.25879  Biso   1.000  N
  H461     1.0000 0.91986  0.68374  0.27883  Biso   1.000  H
  H462     1.0000 0.96426  0.68911  0.26064  Biso   1.000  H
  N311     1.0000 0.90236  0.31767  0.17049  Biso   1.000  N
  H463     1.0000 0.92764  0.27013  0.15903  Biso   1.000  H
  H464     1.0000 0.90635  0.25921  0.18683  Biso   1.000  H
  H465     1.0000 0.00207  0.37934  0.12724  Biso   1.000  H
  H466     1.0000 0.03046  0.43944  0.13362  Biso   1.000  H
  N312     1.0000 0.95928  0.39936  0.14798  Biso   1.000  N
  C465     1.0000 0.81214  0.49931  0.27792  Biso   1.000  C
  C466     1.0000 0.84571  0.58724  0.26793  Biso   1.000  C
  C467     1.0000 0.90326  0.61464  0.23286  Biso   1.000  C
  C468     1.0000 0.91026  0.34864  0.14824  Biso   1.000  C
  C469     1.0000 0.86269  0.31366  0.18511  Biso   1.000  C
  C470     1.0000 0.94930  0.44019  0.14571  Biso   1.000  C
  N313     1.0000 0.80386  0.50056  0.25271  Biso   1.000  N
  O155     1.0000 0.79935  0.45958  0.29052  Biso   1.000  O
  C471     1.0000 0.81656  0.55364  0.24457  Biso   1.000  C
  H467     1.0000 0.83097  0.60903  0.27333  Biso   1.000  H
  N314     1.0000 0.85501  0.57511  0.22466  Biso   1.000  N
  O156     1.0000 0.94141  0.64036  0.22014  Biso   1.000  O
  H468     1.0000 0.90654  0.32842  0.13293  Biso   1.000  H
  C472     1.0000 0.86767  0.36403  0.14977  Biso   1.000  C
  O157     1.0000 0.84545  0.28756  0.20445  Biso   1.000  O
  N315     1.0000 0.84447  0.34448  0.17472  Biso   1.000  N
  O158     1.0000 0.98236  0.48631  0.14237  Biso   1.000  O
  N316     1.0000 0.89607  0.42001  0.14766  Biso   1.000  N
  C473     1.0000 0.76561  0.45385  0.23914  Biso   1.000  C
  H469     1.0000 0.78496  0.55544  0.24052  Biso   1.000  H
  C474     1.0000 0.84195  0.56396  0.19850  Biso   1.000  C
  H470     1.0000 0.84168  0.34774  0.13623  Biso   1.000  H
  C475     1.0000 0.79642  0.34201  0.18320  Biso   1.000  C
  C476     1.0000 0.87103  0.45090  0.14112  Biso   1.000  C
  N317     1.0000 0.78801  0.44160  0.21784  Biso   1.000  N
  H471     1.0000 0.73736  0.45915  0.23333  Biso   1.000  H
  H472     1.0000 0.75068  0.42425  0.25063  Biso   1.000  H
  N318     1.0000 0.84015  0.51603  0.18993  Biso   1.000  N
  H473     1.0000 0.80797  0.56094  0.19554  Biso   1.000  H
  H474     1.0000 0.86765  0.59313  0.18853  Biso   1.000  H
  N319     1.0000 0.80490  0.39174  0.19215  Biso   1.000  N
  H475     1.0000 0.78117  0.31633  0.19663  Biso   1.000  H
  H476     1.0000 0.77159  0.33035  0.16934  Biso   1.000  H
  N320     1.0000 0.85029  0.46437  0.16301  Biso   1.000  N
  H477     1.0000 0.84267  0.43104  0.12934  Biso   1.000  H
  H478     1.0000 0.89657  0.48302  0.13274  Biso   1.000  H
  C477     1.0000 0.79080  0.39673  0.21639  Biso   1.000  C
  C478     1.0000 0.79216  0.46445  0.19299  Biso   1.000  C
  C479     1.0000 0.87095  0.51568  0.17089  Biso   1.000  C
  C480     1.0000 0.80166  0.42967  0.17506  Biso   1.000  C
  O159     1.0000 0.78413  0.36686  0.23374  Biso   1.000  O
  H479     1.0000 0.76048  0.46574  0.18853  Biso   1.000  H
  O160     1.0000 0.90965  0.55336  0.16222  Biso   1.000  O
  H480     1.0000 0.77306  0.41204  0.16284  Biso   1.000  H
  C481     1.0000 0.56874  0.21316  0.67426  Biso   1.000  C
  N321     1.0000 0.52320  0.16409  0.66846  Biso   1.000  N
  N322     1.0000 0.61203  0.20739  0.68399  Biso   1.000  N
  H481     1.0000 0.55953  0.23146  0.68667  Biso   1.000  H
  H482     1.0000 0.58022  0.23456  0.65907  Biso   1.000  H
  C482     1.0000 0.51570  0.13748  0.64487  Biso   1.000  C
  C483     1.0000 0.47509  0.14886  0.68068  Biso   1.000  C
  C484     1.0000 0.64894  0.20304  0.66784  Biso   1.000  C
  C485     1.0000 0.63081  0.22306  0.70812  Biso   1.000  C
  C486     1.0000 0.45710  0.09575  0.64508  Biso   1.000  C
  N323     1.0000 0.54118  0.10615  0.64311  Biso   1.000  N
  H483     1.0000 0.52464  0.16146  0.63046  Biso   1.000  H
  N324     1.0000 0.43713  0.10619  0.66727  Biso   1.000  N
  O161     1.0000 0.46891  0.16900  0.69913  Biso   1.000  O
  N325     1.0000 0.63151  0.15118  0.65809  Biso   1.000  N
  H484     1.0000 0.66164  0.22938  0.65437  Biso   1.000  H
  C487     1.0000 0.69401  0.21199  0.68631  Biso   1.000  C
  O162     1.0000 0.60882  0.23409  0.72452  Biso   1.000  O
  N326     1.0000 0.67796  0.22455  0.70986  Biso   1.000  N
  N327     1.0000 0.45678  0.04628  0.64532  Biso   1.000  N
  H485     1.0000 0.43931  0.09865  0.63006  Biso   1.000  H
  C488     1.0000 0.50702  0.05402  0.64260  Biso   1.000  C
  C489     1.0000 0.59698  0.12943  0.63669  Biso   1.000  C
  C490     1.0000 0.38145  0.08377  0.67299  Biso   1.000  C
  C491     1.0000 0.65887  0.12884  0.66806  Biso   1.000  C
  N328     1.0000 0.69245  0.16201  0.68582  Biso   1.000  N
  H486     1.0000 0.72815  0.24068  0.68066  Biso   1.000  H
  C492     1.0000 0.71183  0.24504  0.73194  Biso   1.000  C
  C493     1.0000 0.41137  0.99702  0.63726  Biso   1.000  C
  O163     1.0000 0.51821  0.01916  0.64030  Biso   1.000  O
  H487     1.0000 0.60253  0.10266  0.62897  Biso   1.000  H
  H488     1.0000 0.60601  0.15695  0.62427  Biso   1.000  H
  N329     1.0000 0.35651  0.03015  0.68198  Biso   1.000  N
  H489     1.0000 0.37754  0.10525  0.68567  Biso   1.000  H
  H490     1.0000 0.36341  0.08495  0.65787  Biso   1.000  H
  O164     1.0000 0.65433  0.08707  0.66181  Biso   1.000  O
  C494     1.0000 0.73712  0.15718  0.69437  Biso   1.000  C
  N330     1.0000 0.71697  0.20508  0.74582  Biso   1.000  N
  H491     1.0000 0.74644  0.27217  0.72656  Biso   1.000  H
  H492     1.0000 0.69781  0.26106  0.74316  Biso   1.000  H
  H493     1.0000 0.39362  0.00408  0.62366  Biso   1.000  H
  N331     1.0000 0.37485  0.97095  0.65730  Biso   1.000  N
  H494     1.0000 0.42334  0.97397  0.63076  Biso   1.000  H
  C495     1.0000 0.33572  0.98551  0.66493  Biso   1.000  C
  C496     1.0000 0.33852  0.01633  0.70586  Biso   1.000  C
  N332     1.0000 0.73695  0.14780  0.72119  Biso   1.000  N
  H495     1.0000 0.73713  0.12857  0.68527  Biso   1.000  H
  H496     1.0000 0.76923  0.18918  0.69007  Biso   1.000  H
  C497     1.0000 0.75519  0.18957  0.73980  Biso   1.000  C
  C498     1.0000 0.70078  0.19452  0.77064  Biso   1.000  C
  C499     1.0000 0.35987  0.92011  0.66427  Biso   1.000  C
  C500     1.0000 0.29825  0.93852  0.68213  Biso   1.000  C
  H497     1.0000 0.31744  0.98975  0.65046  Biso   1.000  H
  O165     1.0000 0.34765  0.04589  0.72346  Biso   1.000  O
  N333     1.0000 0.30766  0.96196  0.70710  Biso   1.000  N
  C501     1.0000 0.73194  0.10297  0.73075  Biso   1.000  C
  H498     1.0000 0.78911  0.21976  0.73507  Biso   1.000  H
  C502     1.0000 0.75929  0.16331  0.76401  Biso   1.000  C
  N334     1.0000 0.72174  0.16661  0.78106  Biso   1.000  N
  O166     1.0000 0.67219  0.20724  0.78133  Biso   1.000  O
  O167     1.0000 0.38313  0.89687  0.65879  Biso   1.000  O
  N335     1.0000 0.31533  0.90115  0.67870  Biso   1.000  N
  H499     1.0000 0.26153  0.92396  0.67707  Biso   1.000  H
  C503     1.0000 0.27173  0.93735  0.72771  Biso   1.000  C
  O168     1.0000 0.71931  0.06207  0.71898  Biso   1.000  O
  N336     1.0000 0.74305  0.11015  0.75596  Biso   1.000  N
  H500     1.0000 0.79494  0.18117  0.77096  Biso   1.000  H
  C504     1.0000 0.72209  0.15915  0.80798  Biso   1.000  C
  C505     1.0000 0.28564  0.84721  0.68655  Biso   1.000  C
  N337     1.0000 0.28025  0.89958  0.74121  Biso   1.000  N
  H501     1.0000 0.23613  0.91988  0.72117  Biso   1.000  H
  H502     1.0000 0.27513  0.96428  0.73936  Biso   1.000  H
  C506     1.0000 0.75280  0.07451  0.77081  Biso   1.000  C
  H503     1.0000 0.70651  0.17756  0.81627  Biso   1.000  H
  H504     1.0000 0.75823  0.17485  0.81366  Biso   1.000  H
  N338     1.0000 0.69415  0.10489  0.81582  Biso   1.000  N
  N339     1.0000 0.28922  0.83893  0.71320  Biso   1.000  N
  H505     1.0000 0.29774  0.82707  0.67717  Biso   1.000  H
  H506     1.0000 0.24905  0.83379  0.68227  Biso   1.000  H
  C507     1.0000 0.25848  0.84572  0.73207  Biso   1.000  C
  C508     1.0000 0.28862  0.90327  0.76714  Biso   1.000  C
  H507     1.0000 0.78743  0.09406  0.77827  Biso   1.000  H
  H508     1.0000 0.75274  0.04829  0.75967  Biso   1.000  H
  N340     1.0000 0.71456  0.04781  0.79090  Biso   1.000  N
  C509     1.0000 0.71775  0.07208  0.81525  Biso   1.000  C
  C510     1.0000 0.65025  0.08421  0.83096  Biso   1.000  C
  C511     1.0000 0.31282  0.81216  0.72208  Biso   1.000  C
  C512     1.0000 0.26290  0.81655  0.75543  Biso   1.000  C
  H509     1.0000 0.22193  0.83096  0.72667  Biso   1.000  H
  O169     1.0000 0.30107  0.94143  0.77984  Biso   1.000  O
  N341     1.0000 0.27993  0.85502  0.77534  Biso   1.000  N
  C513     1.0000 0.68588  0.99384  0.79211  Biso   1.000  C
  H510     1.0000 0.75372  0.09057  0.82177  Biso   1.000  H
  C514     1.0000 0.68108  0.02524  0.83223  Biso   1.000  C
  N342     1.0000 0.63984  0.03619  0.83907  Biso   1.000  N
  O170     1.0000 0.62378  0.10505  0.83567  Biso   1.000  O
  O171     1.0000 0.33978  0.79936  0.70948  Biso   1.000  O
  N343     1.0000 0.30331  0.80387  0.74729  Biso   1.000  N
  H511     1.0000 0.22955  0.78499  0.75946  Biso   1.000  H
  C515     1.0000 0.27802  0.84195  0.80150  Biso   1.000  C
  O172     1.0000 0.68195  0.96388  0.77513  Biso   1.000  O
  N344     1.0000 0.66373  0.98014  0.81580  Biso   1.000  N
  H512     1.0000 0.69942  0.02277  0.84717  Biso   1.000  H
  C516     1.0000 0.60388  0.00840  0.85948  Biso   1.000  C
  C517     1.0000 0.31176  0.76564  0.76084  Biso   1.000  C
  N345     1.0000 0.32410  0.84015  0.81007  Biso   1.000  N
  H513     1.0000 0.24705  0.80796  0.80446  Biso   1.000  H
  H514     1.0000 0.27452  0.86767  0.81147  Biso   1.000  H
  C518     1.0000 0.64048  0.92726  0.82518  Biso   1.000  C
  H515     1.0000 0.62275  0.00208  0.87276  Biso   1.000  H
  H516     1.0000 0.59101  0.03046  0.86636  Biso   1.000  H
  N346     1.0000 0.55991  0.95929  0.85202  Biso   1.000  N
  N347     1.0000 0.34641  0.78801  0.78216  Biso   1.000  N
  H517     1.0000 0.27825  0.73737  0.76667  Biso   1.000  H
  H518     1.0000 0.32645  0.75068  0.74937  Biso   1.000  H
  C519     1.0000 0.32772  0.79217  0.80701  Biso   1.000  C
  C520     1.0000 0.35528  0.87096  0.82911  Biso   1.000  C
  N348     1.0000 0.58469  0.90237  0.82951  Biso   1.000  N
  H519     1.0000 0.65753  0.92769  0.84097  Biso   1.000  H
  H520     1.0000 0.64714  0.90637  0.81317  Biso   1.000  H
  C521     1.0000 0.50913  0.94932  0.85429  Biso   1.000  C
  C522     1.0000 0.56161  0.91026  0.85176  Biso   1.000  C
  C523     1.0000 0.39407  0.79080  0.78361  Biso   1.000  C
  C524     1.0000 0.37201  0.80167  0.82494  Biso   1.000  C
  H521     1.0000 0.29472  0.76045  0.81147  Biso   1.000  H
  O173     1.0000 0.35631  0.90967  0.83778  Biso   1.000  O
  N349     1.0000 0.38592  0.85031  0.83699  Biso   1.000  N
  C525     1.0000 0.54900  0.86268  0.81489  Biso   1.000  C
  N350     1.0000 0.47606  0.89609  0.85234  Biso   1.000  N
  O174     1.0000 0.49603  0.98233  0.85763  Biso   1.000  O
  C526     1.0000 0.50366  0.86767  0.85023  Biso   1.000  C
  H522     1.0000 0.57812  0.90657  0.86706  Biso   1.000  H
  O175     1.0000 0.41729  0.78413  0.76626  Biso   1.000  O
  N351     1.0000 0.41318  0.80493  0.80783  Biso   1.000  N
  H523     1.0000 0.36103  0.77306  0.83716  Biso   1.000  H
  C527     1.0000 0.42012  0.87104  0.85888  Biso   1.000  C
  N352     1.0000 0.49998  0.84446  0.82528  Biso   1.000  N
  O176     1.0000 0.55790  0.84545  0.79555  Biso   1.000  O
  H524     1.0000 0.49393  0.84168  0.86377  Biso   1.000  H
  C528     1.0000 0.45442  0.79645  0.81680  Biso   1.000  C
  H525     1.0000 0.41164  0.84266  0.87066  Biso   1.000  H
  H526     1.0000 0.41353  0.89656  0.86726  Biso   1.000  H
  H527     1.0000 0.46484  0.78118  0.80337  Biso   1.000  H
  H528     1.0000 0.44123  0.77156  0.83066  Biso   1.000  H
  C529     1.0000 0.43125  0.78682  0.32574  Biso   1.000  C
  N353     1.0000 0.38797  0.79260  0.31601  Biso   1.000  N
  N354     1.0000 0.47680  0.83590  0.33154  Biso   1.000  N
  H529     1.0000 0.44046  0.76853  0.31333  Biso   1.000  H
  H530     1.0000 0.41977  0.76543  0.34093  Biso   1.000  H
  C530     1.0000 0.36919  0.77693  0.29188  Biso   1.000  C
  C531     1.0000 0.35105  0.79695  0.33214  Biso   1.000  C
  C532     1.0000 0.52490  0.85113  0.31932  Biso   1.000  C
  C533     1.0000 0.48429  0.86251  0.35513  Biso   1.000  C
  O177     1.0000 0.39118  0.76590  0.27548  Biso   1.000  O
  N355     1.0000 0.32204  0.77544  0.29014  Biso   1.000  N
  C534     1.0000 0.30595  0.78800  0.31369  Biso   1.000  C
  N356     1.0000 0.36848  0.84881  0.34191  Biso   1.000  N
  H531     1.0000 0.33836  0.77061  0.34563  Biso   1.000  H
  O178     1.0000 0.53109  0.83099  0.30087  Biso   1.000  O
  N357     1.0000 0.56286  0.89380  0.33273  Biso   1.000  N
  N358     1.0000 0.45882  0.89384  0.35689  Biso   1.000  N
  C535     1.0000 0.54289  0.90424  0.35492  Biso   1.000  C
  H532     1.0000 0.47536  0.83853  0.36954  Biso   1.000  H
  C536     1.0000 0.28815  0.75499  0.26806  Biso   1.000  C
  N359     1.0000 0.30756  0.83802  0.31418  Biso   1.000  N
  H533     1.0000 0.27187  0.75934  0.31934  Biso   1.000  H
  C537     1.0000 0.40302  0.87056  0.36331  Biso   1.000  C
  C538     1.0000 0.34113  0.87115  0.33194  Biso   1.000  C
  C539     1.0000 0.61854  0.91622  0.32701  Biso   1.000  C
  C540     1.0000 0.49298  0.94597  0.35740  Biso   1.000  C
  N360     1.0000 0.54322  0.95371  0.35468  Biso   1.000  N
  H534     1.0000 0.56068  0.90134  0.36994  Biso   1.000  H
  N361     1.0000 0.28302  0.79491  0.25418  Biso   1.000  N
  H535     1.0000 0.25356  0.72782  0.27342  Biso   1.000  H
  H536     1.0000 0.30215  0.73893  0.25684  Biso   1.000  H
  C541     1.0000 0.26287  0.84280  0.30563  Biso   1.000  C
  H537     1.0000 0.39747  0.89733  0.37103  Biso   1.000  H
  H538     1.0000 0.39398  0.84304  0.37573  Biso   1.000  H
  O179     1.0000 0.34566  0.91292  0.33819  Biso   1.000  O
  N362     1.0000 0.64348  0.96984  0.31802  Biso   1.000  N
  H539     1.0000 0.62246  0.89474  0.31433  Biso   1.000  H
  H540     1.0000 0.63658  0.91504  0.34213  Biso   1.000  H
  O180     1.0000 0.48178  0.98083  0.35970  Biso   1.000  O
  C542     1.0000 0.58862  0.00297  0.36274  Biso   1.000  C
  C543     1.0000 0.24478  0.81042  0.26020  Biso   1.000  C
  C544     1.0000 0.29921  0.80547  0.22936  Biso   1.000  C
  N363     1.0000 0.26304  0.85219  0.27881  Biso   1.000  N
  H541     1.0000 0.26287  0.87142  0.31473  Biso   1.000  H
  H542     1.0000 0.23076  0.81081  0.30993  Biso   1.000  H
  C545     1.0000 0.66148  0.98366  0.29412  Biso   1.000  C
  C546     1.0000 0.66424  0.01448  0.33507  Biso   1.000  C
  H543     1.0000 0.60636  0.99595  0.37634  Biso   1.000  H
  N364     1.0000 0.62515  0.02904  0.34270  Biso   1.000  N
  H544     1.0000 0.57665  0.02602  0.36924  Biso   1.000  H
  H545     1.0000 0.21088  0.78023  0.26493  Biso   1.000  H
  C547     1.0000 0.24070  0.83668  0.23599  Biso   1.000  C
  N365     1.0000 0.27825  0.83338  0.21894  Biso   1.000  N
  O181     1.0000 0.32780  0.79275  0.21867  Biso   1.000  O
  C548     1.0000 0.26805  0.89702  0.26925  Biso   1.000  C
  O182     1.0000 0.65234  0.95410  0.27654  Biso   1.000  O
  N366     1.0000 0.69233  0.03803  0.29290  Biso   1.000  N
  C549     1.0000 0.70174  0.06147  0.31787  Biso   1.000  C
  H546     1.0000 0.68255  0.01024  0.34954  Biso   1.000  H
  C550     1.0000 0.64013  0.07988  0.33573  Biso   1.000  C
  N367     1.0000 0.25697  0.88987  0.24404  Biso   1.000  N
  H547     1.0000 0.20505  0.81882  0.22904  Biso   1.000  H
  C551     1.0000 0.27790  0.84084  0.19202  Biso   1.000  C
  O183     1.0000 0.28068  0.93792  0.28102  Biso   1.000  O
  C552     1.0000 0.72827  0.06264  0.27229  Biso   1.000  C
  N368     1.0000 0.68466  0.09884  0.32130  Biso   1.000  N
  H548     1.0000 0.73846  0.07603  0.32293  Biso   1.000  H
  O184     1.0000 0.61683  0.10312  0.34121  Biso   1.000  O
  C553     1.0000 0.24720  0.92548  0.22919  Biso   1.000  C
  H549     1.0000 0.29348  0.82243  0.18373  Biso   1.000  H
  H550     1.0000 0.24177  0.82514  0.18634  Biso   1.000  H
  N369     1.0000 0.30581  0.89510  0.18417  Biso   1.000  N
  N370     1.0000 0.71975  0.10041  0.25879  Biso   1.000  N
  H551     1.0000 0.76386  0.08011  0.27883  Biso   1.000  H
  H552     1.0000 0.72487  0.03571  0.26064  Biso   1.000  H
  C554     1.0000 0.71435  0.15278  0.31345  Biso   1.000  C
  H553     1.0000 0.21257  0.90593  0.22173  Biso   1.000  H
  H554     1.0000 0.24727  0.95174  0.24033  Biso   1.000  H
  N371     1.0000 0.28545  0.95221  0.20910  Biso   1.000  N
  C555     1.0000 0.28224  0.92791  0.18475  Biso   1.000  C
  C556     1.0000 0.34971  0.91578  0.16904  Biso   1.000  C
  C557     1.0000 0.71138  0.09672  0.23286  Biso   1.000  C
  C558     1.0000 0.74151  0.15427  0.26793  Biso   1.000  C
  N372     1.0000 0.71077  0.16106  0.28680  Biso   1.000  N
  H555     1.0000 0.70225  0.17292  0.32283  Biso   1.000  H
  H556     1.0000 0.75095  0.16620  0.31773  Biso   1.000  H
  C559     1.0000 0.31410  0.00619  0.20789  Biso   1.000  C
  H557     1.0000 0.24627  0.90942  0.17823  Biso   1.000  H
  C560     1.0000 0.31892  0.97475  0.16777  Biso   1.000  C
  N373     1.0000 0.36015  0.96379  0.16093  Biso   1.000  N
  O185     1.0000 0.37621  0.89494  0.16432  Biso   1.000  O
  O186     1.0000 0.69893  0.05856  0.22014  Biso   1.000  O
  N374     1.0000 0.72007  0.14496  0.22466  Biso   1.000  N
  C561     1.0000 0.73709  0.18344  0.24457  Biso   1.000  C
  H558     1.0000 0.77806  0.16903  0.27333  Biso   1.000  H
  C562     1.0000 0.68717  0.18783  0.27792  Biso   1.000  C
  O187     1.0000 0.31805  0.03611  0.22487  Biso   1.000  O
  N375     1.0000 0.33627  0.01985  0.18420  Biso   1.000  N
  H559     1.0000 0.30057  0.97722  0.15283  Biso   1.000  H
  C563     1.0000 0.39611  0.99159  0.14052  Biso   1.000  C
  C564     1.0000 0.72198  0.15804  0.19850  Biso   1.000  C
  N376     1.0000 0.69668  0.19612  0.25271  Biso   1.000  N
  H560     1.0000 0.77047  0.21504  0.24052  Biso   1.000  H
  O188     1.0000 0.66024  0.20067  0.29052  Biso   1.000  O
  C565     1.0000 0.35951  0.07273  0.17482  Biso   1.000  C
  H561     1.0000 0.37724  0.99791  0.12724  Biso   1.000  H
  H562     1.0000 0.40895  0.96953  0.13362  Biso   1.000  H
  N377     1.0000 0.44008  0.04070  0.14798  Biso   1.000  N
  N378     1.0000 0.67586  0.15984  0.18993  Biso   1.000  N
  H563     1.0000 0.75295  0.19203  0.19554  Biso   1.000  H
  H564     1.0000 0.72547  0.13232  0.18853  Biso   1.000  H
  C566     1.0000 0.68823  0.23435  0.23914  Biso   1.000  C
  N379     1.0000 0.41530  0.09762  0.17049  Biso   1.000  N
  H565     1.0000 0.34245  0.07234  0.15903  Biso   1.000  H
  H566     1.0000 0.35285  0.09362  0.18683  Biso   1.000  H
  C567     1.0000 0.43839  0.08973  0.14824  Biso   1.000  C
  C568     1.0000 0.49086  0.05067  0.14571  Biso   1.000  C
  C569     1.0000 0.64471  0.12903  0.17089  Biso   1.000  C
  C570     1.0000 0.67228  0.20782  0.19299  Biso   1.000  C
  N380     1.0000 0.65358  0.21198  0.21784  Biso   1.000  N
  H567     1.0000 0.72174  0.26262  0.23333  Biso   1.000  H
  H568     1.0000 0.67354  0.24931  0.25063  Biso   1.000  H
  C571     1.0000 0.45099  0.13731  0.18511  Biso   1.000  C
  H569     1.0000 0.42187  0.09342  0.13293  Biso   1.000  H
  C572     1.0000 0.49633  0.13232  0.14977  Biso   1.000  C
  O189     1.0000 0.50397  0.01765  0.14237  Biso   1.000  O
  N381     1.0000 0.52394  0.10390  0.14766  Biso   1.000  N
  N382     1.0000 0.61407  0.14968  0.16301  Biso   1.000  N
  O190     1.0000 0.64368  0.09032  0.16222  Biso   1.000  O
  C573     1.0000 0.62799  0.19831  0.17506  Biso   1.000  C
  H570     1.0000 0.70527  0.23953  0.18853  Biso   1.000  H
  C574     1.0000 0.60592  0.20919  0.21639  Biso   1.000  C
  O191     1.0000 0.44210  0.15454  0.20445  Biso   1.000  O
  N383     1.0000 0.50001  0.15552  0.17472  Biso   1.000  N
  H571     1.0000 0.50606  0.15831  0.13623  Biso   1.000  H
  C575     1.0000 0.57987  0.12895  0.14112  Biso   1.000  C
  N384     1.0000 0.58682  0.19506  0.19215  Biso   1.000  N
  H572     1.0000 0.63896  0.22693  0.16284  Biso   1.000  H
  O192     1.0000 0.58271  0.21586  0.23374  Biso   1.000  O
  C576     1.0000 0.54554  0.20354  0.18320  Biso   1.000  C
  H573     1.0000 0.58835  0.15733  0.12934  Biso   1.000  H
  H574     1.0000 0.58646  0.10343  0.13274  Biso   1.000  H
  H575     1.0000 0.53515  0.21881  0.19663  Biso   1.000  H
  H576     1.0000 0.55876  0.22842  0.16934  Biso   1.000  H
  C577     1.0000 0.27055  0.34173  0.19282  Biso   1.000  C
  N385     1.0000 0.22658  0.29262  0.18536  Biso   1.000  N
  N386     1.0000 0.30651  0.36952  0.17240  Biso   1.000  N
  H577     1.0000 0.28942  0.33541  0.20609  Biso   1.000  H
  H578     1.0000 0.25771  0.36379  0.19969  Biso   1.000  H
  C578     1.0000 0.22827  0.24359  0.18509  Biso   1.000  C
  C579     1.0000 0.17580  0.28265  0.18762  Biso   1.000  C
  C580     1.0000 0.34774  0.35857  0.16556  Biso   1.000  C
  C581     1.0000 0.31695  0.41754  0.16430  Biso   1.000  C
  N387     1.0000 0.25136  0.23570  0.16284  Biso   1.000  N
  H579     1.0000 0.24479  0.23990  0.20041  Biso   1.000  H
  C582     1.0000 0.17033  0.20099  0.18356  Biso   1.000  C
  N388     1.0000 0.14272  0.22942  0.18568  Biso   1.000  N
  O193     1.0000 0.16269  0.31566  0.19096  Biso   1.000  O
  N389     1.0000 0.33039  0.31347  0.14913  Biso   1.000  N
  C583     1.0000 0.38442  0.40541  0.14858  Biso   1.000  C
  H580     1.0000 0.36609  0.35610  0.18050  Biso   1.000  H
  N390     1.0000 0.36085  0.43822  0.14917  Biso   1.000  N
  O194     1.0000 0.29045  0.43838  0.16902  Biso   1.000  O
  C584     1.0000 0.30715  0.26059  0.15852  Biso   1.000  C
  C585     1.0000 0.21567  0.19601  0.14822  Biso   1.000  C
  N391     1.0000 0.16665  0.17779  0.15861  Biso   1.000  N
  H581     1.0000 0.16060  0.17501  0.19710  Biso   1.000  H
  C586     1.0000 0.08678  0.20437  0.19221  Biso   1.000  C
  C587     1.0000 0.35254  0.32717  0.12545  Biso   1.000  C
  N392     1.0000 0.38123  0.38114  0.12424  Biso   1.000  N
  H582     1.0000 0.42039  0.42390  0.15510  Biso   1.000  H
  C588     1.0000 0.38876  0.49248  0.14131  Biso   1.000  C
  H583     1.0000 0.32417  0.26098  0.17431  Biso   1.000  H
  H584     1.0000 0.31381  0.23970  0.14650  Biso   1.000  H
  O195     1.0000 0.22456  0.17878  0.12888  Biso   1.000  O
  C589     1.0000 0.12109  0.12978  0.15013  Biso   1.000  C
  N393     1.0000 0.05259  0.18364  0.17032  Biso   1.000  N
  H585     1.0000 0.07830  0.17599  0.20400  Biso   1.000  H
  H586     1.0000 0.08020  0.22989  0.20060  Biso   1.000  H
  O196     1.0000 0.34861  0.29721  0.10847  Biso   1.000  O
  C590     1.0000 0.41946  0.40784  0.10414  Biso   1.000  C
  N394     1.0000 0.38841  0.49994  0.11440  Biso   1.000  N
  H587     1.0000 0.37318  0.51089  0.14960  Biso   1.000  H
  H588     1.0000 0.42489  0.50818  0.14700  Biso   1.000  H
  N395     1.0000 0.07984  0.13826  0.14118  Biso   1.000  N
  H589     1.0000 0.13151  0.11451  0.13670  Biso   1.000  H
  H590     1.0000 0.10790  0.10489  0.16399  Biso   1.000  H
  C591     1.0000 0.03867  0.13500  0.15827  Biso   1.000  C
  C592     1.0000 0.02195  0.20429  0.16245  Biso   1.000  C
  N396     1.0000 0.40971  0.44348  0.08930  Biso   1.000  N
  H591     1.0000 0.45409  0.42739  0.11160  Biso   1.000  H
  H592     1.0000 0.41941  0.38162  0.09300  Biso   1.000  H
  C593     1.0000 0.42596  0.49664  0.09734  Biso   1.000  C
  C594     1.0000 0.36745  0.52785  0.10397  Biso   1.000  C
  C595     1.0000 0.06074  0.12413  0.11695  Biso   1.000  C
  H593     1.0000 0.02769  0.10639  0.17049  Biso   1.000  H
  C596     1.0000 0.99435  0.12550  0.14035  Biso   1.000  C
  O197     1.0000 0.02298  0.24300  0.17111  Biso   1.000  O
  N397     1.0000 0.99076  0.17348  0.14341  Biso   1.000  N
  C597     1.0000 0.39861  0.43630  0.06408  Biso   1.000  C
  C598     1.0000 0.42188  0.52290  0.07313  Biso   1.000  C
  H594     1.0000 0.46161  0.51450  0.10429  Biso   1.000  H
  N398     1.0000 0.38364  0.53841  0.07915  Biso   1.000  N
  O198     1.0000 0.33886  0.54057  0.11466  Biso   1.000  O
  O199     1.0000 0.08395  0.11746  0.09959  Biso   1.000  O
  N399     1.0000 0.01308  0.12134  0.11549  Biso   1.000  N
  H595     1.0000 0.96139  0.09378  0.14481  Biso   1.000  H
  C599     1.0000 0.94465  0.17528  0.13483  Biso   1.000  C
  N400     1.0000 0.40362  0.48113  0.05453  Biso   1.000  N
  O200     1.0000 0.38598  0.39539  0.05232  Biso   1.000  O
  H596     1.0000 0.45578  0.55309  0.06841  Biso   1.000  H
  C600     1.0000 0.37853  0.57837  0.06527  Biso   1.000  C
  C601     1.0000 0.97843  0.09897  0.09419  Biso   1.000  C
  N401     1.0000 0.94656  0.18835  0.10867  Biso   1.000  N
  H597     1.0000 0.91368  0.14129  0.13780  Biso   1.000  H
  H598     1.0000 0.94119  0.20099  0.14481  Biso   1.000  H
  C602     1.0000 0.40379  0.49051  0.02771  Biso   1.000  C
  N402     1.0000 0.34462  0.55788  0.04319  Biso   1.000  N
  H599     1.0000 0.41310  0.60550  0.05991  Biso   1.000  H
  H600     1.0000 0.36451  0.59439  0.07649  Biso   1.000  H
  N403     1.0000 0.96997  0.13720  0.08063  Biso   1.000  N
  H601     1.0000 0.94488  0.07070  0.10001  Biso   1.000  H
  H602     1.0000 0.99308  0.08401  0.08271  Biso   1.000  H
  C603     1.0000 0.92957  0.14988  0.08877  Biso   1.000  C
  C604     1.0000 0.95528  0.23660  0.10048  Biso   1.000  C
  N404     1.0000 0.35911  0.49534  0.01915  Biso   1.000  N
  H603     1.0000 0.40379  0.46190  0.01860  Biso   1.000  H
  H604     1.0000 0.43590  0.52251  0.02340  Biso   1.000  H
  C605     1.0000 0.36071  0.54532  0.01964  Biso   1.000  C
  C606     1.0000 0.29747  0.55639  0.04146  Biso   1.000  C
  C607     1.0000 0.97949  0.14549  0.05541  Biso   1.000  C
  H605     1.0000 0.89619  0.11828  0.09279  Biso   1.000  H
  C608     1.0000 0.92515  0.17905  0.06541  Biso   1.000  C
  O201     1.0000 0.96773  0.27476  0.11319  Biso   1.000  O
  N405     1.0000 0.94691  0.23291  0.07455  Biso   1.000  N
  C609     1.0000 0.32553  0.46217  0.00140  Biso   1.000  C
  C610     1.0000 0.31563  0.53641  0.00117  Biso   1.000  C
  H606     1.0000 0.39481  0.57401  0.01400  Biso   1.000  H
  O202     1.0000 0.27548  0.56742  0.05785  Biso   1.000  O
  N406     1.0000 0.27869  0.54072  0.01732  Biso   1.000  N
  O203     1.0000 0.00644  0.13269  0.04282  Biso   1.000  O
  N407     1.0000 0.95589  0.17226  0.04654  Biso   1.000  N
  H607     1.0000 0.88860  0.16429  0.06000  Biso   1.000  H
  C611     1.0000 0.93836  0.27068  0.06104  Biso   1.000  C
  O204     1.0000 0.32100  0.42040  0.99515  Biso   1.000  O
  N408     1.0000 0.29818  0.48451  0.99143  Biso   1.000  N
  H608     1.0000 0.32830  0.56271  0.98770  Biso   1.000  H
  C612     1.0000 0.23541  0.54649  0.00759  Biso   1.000  C
  C613     1.0000 0.95231  0.18054  0.01989  Biso   1.000  C
  N409     1.0000 0.97433  0.29529  0.04044  Biso   1.000  N
  H609     1.0000 0.90280  0.25321  0.05451  Biso   1.000  H
  H610     1.0000 0.94179  0.29761  0.07270  Biso   1.000  H
  C614     1.0000 0.26364  0.46276  0.97003  Biso   1.000  C
  N410     1.0000 0.18986  0.49742  0.00179  Biso   1.000  N
  H611     1.0000 0.22620  0.56479  0.02000  Biso   1.000  H
  H612     1.0000 0.24689  0.56789  0.99241  Biso   1.000  H
  N411     1.0000 0.98200  0.23448  0.01203  Biso   1.000  N
  H613     1.0000 0.96441  0.16040  0.01050  Biso   1.000  H
  H614     1.0000 0.91571  0.16712  0.01560  Biso   1.000  H
  C615     1.0000 0.96489  0.27185  0.01547  Biso   1.000  C
  C616     1.0000 0.00518  0.34966  0.03921  Biso   1.000  C
  N412     1.0000 0.20784  0.43948  0.97643  Biso   1.000  N
  H615     1.0000 0.26919  0.43599  0.96230  Biso   1.000  H
  H616     1.0000 0.27268  0.49028  0.95760  Biso   1.000  H
  C617     1.0000 0.18237  0.47081  0.97820  Biso   1.000  C
  C618     1.0000 0.14176  0.48219  0.01401  Biso   1.000  C
  C619     1.0000 0.02653  0.25344  0.99760  Biso   1.000  C
  H617     1.0000 0.92820  0.25729  0.01041  Biso   1.000  H
  C620     1.0000 0.00239  0.31884  0.99826  Biso   1.000  C
  O205     1.0000 0.01432  0.37922  0.05679  Biso   1.000  O
  N413     1.0000 0.02318  0.36348  0.01532  Biso   1.000  N
  C621     1.0000 0.17370  0.38739  0.97592  Biso   1.000  C
  C622     1.0000 0.12377  0.42908  0.97841  Biso   1.000  C
  H618     1.0000 0.19130  0.49479  0.96379  Biso   1.000  H
  N414     1.0000 0.10379  0.43952  0.00060  Biso   1.000  N
  O206     1.0000 0.13557  0.50233  0.03247  Biso   1.000  O
  O207     1.0000 0.04979  0.23020  0.99212  Biso   1.000  O
  N415     1.0000 0.04151  0.30428  0.99063  Biso   1.000  N
  H619     1.0000 0.98408  0.32308  0.98380  Biso   1.000  H
  C623     1.0000 0.04812  0.41710  0.00633  Biso   1.000  C
  N416     1.0000 0.12344  0.37961  0.97864  Biso   1.000  N
  O208     1.0000 0.18490  0.35253  0.97363  Biso   1.000  O
  H620     1.0000 0.10598  0.43198  0.96340  Biso   1.000  H
  C624     1.0000 0.07804  0.33035  0.97059  Biso   1.000  C
  H621     1.0000 0.04422  0.43862  0.01900  Biso   1.000  H
  H622     1.0000 0.03008  0.41828  0.99120  Biso   1.000  H
  H623     1.0000 0.06032  0.33741  0.95699  Biso   1.000  H
  H624     1.0000 0.09001  0.30730  0.96410  Biso   1.000  H
  C625     1.0000 0.72945  0.65826  0.80718  Biso   1.000  C
  N417     1.0000 0.69345  0.63046  0.82760  Biso   1.000  N
  N418     1.0000 0.77342  0.70737  0.81464  Biso   1.000  N
  H625     1.0000 0.71058  0.66458  0.79391  Biso   1.000  H
  H626     1.0000 0.74228  0.63620  0.80029  Biso   1.000  H
  C626     1.0000 0.68305  0.58245  0.83570  Biso   1.000  C
  C627     1.0000 0.65225  0.64142  0.83444  Biso   1.000  C
  C628     1.0000 0.77172  0.75640  0.81491  Biso   1.000  C
  C629     1.0000 0.82420  0.71734  0.81236  Biso   1.000  C
  N419     1.0000 0.63915  0.56177  0.85083  Biso   1.000  N
  O209     1.0000 0.70955  0.56161  0.83098  Biso   1.000  O
  C630     1.0000 0.61558  0.59458  0.85142  Biso   1.000  C
  N420     1.0000 0.66960  0.68652  0.85087  Biso   1.000  N
  H627     1.0000 0.63391  0.64389  0.81950  Biso   1.000  H
  N421     1.0000 0.74864  0.76429  0.83716  Biso   1.000  N
  H628     1.0000 0.75521  0.76009  0.79959  Biso   1.000  H
  C631     1.0000 0.82967  0.79899  0.81644  Biso   1.000  C
  O210     1.0000 0.83730  0.68433  0.80904  Biso   1.000  O
  N422     1.0000 0.85727  0.77057  0.81432  Biso   1.000  N
  C632     1.0000 0.61124  0.50751  0.85869  Biso   1.000  C
  N423     1.0000 0.61878  0.61888  0.87576  Biso   1.000  N
  H629     1.0000 0.57961  0.57609  0.84490  Biso   1.000  H
  C633     1.0000 0.64744  0.67286  0.87455  Biso   1.000  C
  C634     1.0000 0.69285  0.73940  0.84148  Biso   1.000  C
  C635     1.0000 0.78432  0.80398  0.85178  Biso   1.000  C
  N424     1.0000 0.83335  0.82220  0.84137  Biso   1.000  N
  H630     1.0000 0.83940  0.82498  0.80290  Biso   1.000  H
  C636     1.0000 0.91321  0.79562  0.80779  Biso   1.000  C
  N425     1.0000 0.61159  0.50005  0.88560  Biso   1.000  N
  H631     1.0000 0.62678  0.48910  0.85040  Biso   1.000  H
  H632     1.0000 0.57510  0.49181  0.85300  Biso   1.000  H
  C637     1.0000 0.58053  0.59215  0.89584  Biso   1.000  C
  O211     1.0000 0.65138  0.70278  0.89153  Biso   1.000  O
  H633     1.0000 0.67579  0.73901  0.82569  Biso   1.000  H
  H634     1.0000 0.68619  0.76029  0.85350  Biso   1.000  H
  O212     1.0000 0.77543  0.82121  0.87112  Biso   1.000  O
  C638     1.0000 0.87887  0.87021  0.84985  Biso   1.000  C
  N426     1.0000 0.94741  0.81635  0.82966  Biso   1.000  N
  H635     1.0000 0.92169  0.82400  0.79600  Biso   1.000  H
  H636     1.0000 0.91980  0.77010  0.79940  Biso   1.000  H
  C639     1.0000 0.63255  0.47214  0.89603  Biso   1.000  C
  C640     1.0000 0.57404  0.50335  0.90266  Biso   1.000  C
  N427     1.0000 0.59030  0.55654  0.91070  Biso   1.000  N
  H637     1.0000 0.54590  0.57260  0.88840  Biso   1.000  H
  H638     1.0000 0.58061  0.61841  0.90700  Biso   1.000  H
  N428     1.0000 0.92015  0.86173  0.85882  Biso   1.000  N
  H639     1.0000 0.86849  0.88548  0.86330  Biso   1.000  H
  H640     1.0000 0.89210  0.89510  0.83601  Biso   1.000  H
  C641     1.0000 0.96132  0.86499  0.84173  Biso   1.000  C
  C642     1.0000 0.97805  0.79570  0.83755  Biso   1.000  C
  N429     1.0000 0.61636  0.46158  0.92085  Biso   1.000  N
  O213     1.0000 0.66110  0.45942  0.88532  Biso   1.000  O
  C643     1.0000 0.57811  0.47709  0.92687  Biso   1.000  C
  H641     1.0000 0.53839  0.48549  0.89571  Biso   1.000  H
  C644     1.0000 0.60139  0.56369  0.93592  Biso   1.000  C
  C645     1.0000 0.93926  0.87586  0.88305  Biso   1.000  C
  H642     1.0000 0.97230  0.89360  0.82949  Biso   1.000  H
  C646     1.0000 0.00565  0.87449  0.85965  Biso   1.000  C
  O214     1.0000 0.97702  0.75699  0.82889  Biso   1.000  O
  N430     1.0000 0.00923  0.82651  0.85659  Biso   1.000  N
  C647     1.0000 0.62146  0.42162  0.93473  Biso   1.000  C
  N431     1.0000 0.59638  0.51886  0.94547  Biso   1.000  N
  H643     1.0000 0.54418  0.44690  0.93159  Biso   1.000  H
  O215     1.0000 0.61402  0.60459  0.94768  Biso   1.000  O
  O216     1.0000 0.91604  0.88253  0.90041  Biso   1.000  O
  N432     1.0000 0.98692  0.87865  0.88451  Biso   1.000  N
  H644     1.0000 0.03861  0.90620  0.85519  Biso   1.000  H
  C648     1.0000 0.05535  0.82471  0.86517  Biso   1.000  C
  N433     1.0000 0.65534  0.44211  0.95681  Biso   1.000  N
  H645     1.0000 0.58689  0.39449  0.94009  Biso   1.000  H
  H646     1.0000 0.63549  0.40560  0.92349  Biso   1.000  H
  C649     1.0000 0.59621  0.50948  0.97229  Biso   1.000  C
  C650     1.0000 0.02159  0.90106  0.90581  Biso   1.000  C
  N434     1.0000 0.05340  0.81164  0.89133  Biso   1.000  N
  H647     1.0000 0.08632  0.85870  0.86220  Biso   1.000  H
  H648     1.0000 0.05881  0.79899  0.85519  Biso   1.000  H
  C651     1.0000 0.70252  0.44360  0.95854  Biso   1.000  C
  C652     1.0000 0.63928  0.45467  0.98034  Biso   1.000  C
  N435     1.0000 0.64090  0.50469  0.98085  Biso   1.000  N
  H649     1.0000 0.59620  0.53809  0.98140  Biso   1.000  H
  H650     1.0000 0.56410  0.47748  0.97660  Biso   1.000  H
  N436     1.0000 0.03002  0.86279  0.91937  Biso   1.000  N
  H651     1.0000 0.05511  0.92929  0.89999  Biso   1.000  H
  H652     1.0000 0.00688  0.91598  0.91729  Biso   1.000  H
  C653     1.0000 0.07043  0.85011  0.91123  Biso   1.000  C
  C654     1.0000 0.04471  0.76339  0.89952  Biso   1.000  C
  O217     1.0000 0.72451  0.43257  0.94215  Biso   1.000  O
  N437     1.0000 0.72130  0.45927  0.98268  Biso   1.000  N
  C655     1.0000 0.68439  0.46362  0.99881  Biso   1.000  C
  H653     1.0000 0.60520  0.42602  0.98600  Biso   1.000  H
  C656     1.0000 0.67443  0.53782  0.99860  Biso   1.000  C
  C657     1.0000 0.02053  0.85454  0.94459  Biso   1.000  C
  H654     1.0000 0.10380  0.88171  0.90719  Biso   1.000  H
  C658     1.0000 0.07485  0.82094  0.93459  Biso   1.000  C
  O218     1.0000 0.03226  0.72523  0.88681  Biso   1.000  O
  N438     1.0000 0.05308  0.76708  0.92545  Biso   1.000  N
  C659     1.0000 0.76459  0.45349  0.99241  Biso   1.000  C
  N439     1.0000 0.70181  0.51548  0.00857  Biso   1.000  N
  H655     1.0000 0.67169  0.43728  0.01230  Biso   1.000  H
  O219     1.0000 0.67900  0.57959  0.00485  Biso   1.000  O
  O220     1.0000 0.99357  0.86734  0.95718  Biso   1.000  O
  N440     1.0000 0.04411  0.82773  0.95346  Biso   1.000  N
  H656     1.0000 0.11140  0.83570  0.94000  Biso   1.000  H
  C660     1.0000 0.06164  0.72931  0.93896  Biso   1.000  C
  N441     1.0000 0.81013  0.50257  0.99821  Biso   1.000  N
  H657     1.0000 0.77380  0.43520  0.98000  Biso   1.000  H
  H658     1.0000 0.75311  0.43210  0.00759  Biso   1.000  H
  C661     1.0000 0.73635  0.53723  0.02997  Biso   1.000  C
  C662     1.0000 0.04769  0.81945  0.98011  Biso   1.000  C
  N442     1.0000 0.02567  0.70470  0.95956  Biso   1.000  N
  H659     1.0000 0.09720  0.74678  0.94549  Biso   1.000  H
  H660     1.0000 0.05820  0.70238  0.92730  Biso   1.000  H
  C663     1.0000 0.85821  0.51780  0.98599  Biso   1.000  C
  C664     1.0000 0.81763  0.52918  0.02180  Biso   1.000  C
  N443     1.0000 0.79215  0.56051  0.02355  Biso   1.000  N
  H661     1.0000 0.73080  0.56400  0.03770  Biso   1.000  H
  H662     1.0000 0.72732  0.50971  0.04240  Biso   1.000  H
  N444     1.0000 0.01800  0.76551  0.98797  Biso   1.000  N
  H663     1.0000 0.03559  0.83959  0.98950  Biso   1.000  H
  H664     1.0000 0.08430  0.83291  0.98440  Biso   1.000  H
  C665     1.0000 0.99481  0.65033  0.96079  Biso   1.000  C
  C666     1.0000 0.03511  0.72814  0.98453  Biso   1.000  C
  O221     1.0000 0.86442  0.49766  0.96753  Biso   1.000  O
  N445     1.0000 0.89620  0.56047  0.99940  Biso   1.000  N
  C667     1.0000 0.87623  0.57091  0.02159  Biso   1.000  C
  H665     1.0000 0.80869  0.50520  0.03621  Biso   1.000  H
  C668     1.0000 0.82628  0.61264  0.02406  Biso   1.000  C
  C669     1.0000 0.97346  0.74655  0.00240  Biso   1.000  C
  O222     1.0000 0.98567  0.62077  0.94321  Biso   1.000  O
  N446     1.0000 0.97682  0.63651  0.98468  Biso   1.000  N
  C670     1.0000 0.99757  0.68115  0.00174  Biso   1.000  C
  H666     1.0000 0.07180  0.74270  0.98959  Biso   1.000  H
  C671     1.0000 0.95188  0.58289  0.99367  Biso   1.000  C
  N447     1.0000 0.87655  0.62038  0.02134  Biso   1.000  N
  H667     1.0000 0.89399  0.56801  0.03660  Biso   1.000  H
  O223     1.0000 0.81512  0.64750  0.02637  Biso   1.000  O
  O224     1.0000 0.95017  0.76979  0.00788  Biso   1.000  O
  N448     1.0000 0.95848  0.69571  0.00937  Biso   1.000  N
  H668     1.0000 0.01592  0.67691  0.01620  Biso   1.000  H
  H669     1.0000 0.95579  0.56141  0.98100  Biso   1.000  H
  H670     1.0000 0.96988  0.58171  0.00880  Biso   1.000  H
  C672     1.0000 0.92196  0.66964  0.02941  Biso   1.000  C
  H671     1.0000 0.93967  0.66258  0.04301  Biso   1.000  H
  H672     1.0000 0.90999  0.69269  0.03590  Biso   1.000  H
  O225     1.0000 0.31570  0.15298  0.80904  Biso   1.000  O
  C673     1.0000 0.28264  0.10686  0.81236  Biso   1.000  C
  N449     1.0000 0.22941  0.08668  0.81432  Biso   1.000  N
  N450     1.0000 0.29262  0.06603  0.81464  Biso   1.000  N
  C674     1.0000 0.20436  0.11757  0.80779  Biso   1.000  C
  C675     1.0000 0.20101  0.03070  0.81644  Biso   1.000  C
  C676     1.0000 0.24360  0.01531  0.81491  Biso   1.000  C
  C677     1.0000 0.34170  0.07117  0.80718  Biso   1.000  C
  N451     1.0000 0.18363  0.13104  0.82966  Biso   1.000  N
  H673     1.0000 0.17601  0.09771  0.79600  Biso   1.000  H
  H674     1.0000 0.22991  0.14969  0.79940  Biso   1.000  H
  N452     1.0000 0.17781  0.01115  0.84137  Biso   1.000  N
  H675     1.0000 0.17501  0.01441  0.80290  Biso   1.000  H
  N453     1.0000 0.23573  0.98434  0.83716  Biso   1.000  N
  H676     1.0000 0.23991  0.99509  0.79959  Biso   1.000  H
  N454     1.0000 0.36951  0.06301  0.82760  Biso   1.000  N
  H677     1.0000 0.33541  0.04601  0.79391  Biso   1.000  H
  H678     1.0000 0.36379  0.10611  0.80029  Biso   1.000  H
  C678     1.0000 0.13500  0.09634  0.84173  Biso   1.000  C
  C679     1.0000 0.20428  0.18235  0.83755  Biso   1.000  C
  C680     1.0000 0.12979  0.00868  0.84985  Biso   1.000  C
  C681     1.0000 0.19604  0.98037  0.85178  Biso   1.000  C
  C682     1.0000 0.26060  0.95344  0.84148  Biso   1.000  C
  C683     1.0000 0.41755  0.10062  0.83570  Biso   1.000  C
  C684     1.0000 0.35856  0.01080  0.83444  Biso   1.000  C
  N455     1.0000 0.13824  0.05841  0.85882  Biso   1.000  N
  H679     1.0000 0.10640  0.07871  0.82949  Biso   1.000  H
  C685     1.0000 0.12550  0.13112  0.85965  Biso   1.000  C
  O226     1.0000 0.24302  0.22003  0.82889  Biso   1.000  O
  N456     1.0000 0.17349  0.18270  0.85659  Biso   1.000  N
  H680     1.0000 0.11450  0.98300  0.86330  Biso   1.000  H
  H681     1.0000 0.10492  0.99702  0.83601  Biso   1.000  H
  O227     1.0000 0.17879  0.95423  0.87112  Biso   1.000  O
  N457     1.0000 0.31346  0.98308  0.85087  Biso   1.000  N
  H682     1.0000 0.26101  0.93680  0.82569  Biso   1.000  H
  H683     1.0000 0.23970  0.92592  0.85350  Biso   1.000  H
  N458     1.0000 0.43823  0.07738  0.85083  Biso   1.000  N
  O228     1.0000 0.43838  0.14792  0.83098  Biso   1.000  O
  C686     1.0000 0.40542  0.02100  0.85142  Biso   1.000  C
  H684     1.0000 0.35608  0.98999  0.81950  Biso   1.000  H
  C687     1.0000 0.12414  0.06340  0.88305  Biso   1.000  C
  N459     1.0000 0.12135  0.10827  0.88451  Biso   1.000  N
  H685     1.0000 0.09381  0.13241  0.85519  Biso   1.000  H
  C688     1.0000 0.17529  0.23063  0.86517  Biso   1.000  C
  C689     1.0000 0.32714  0.97460  0.87455  Biso   1.000  C
  C690     1.0000 0.49246  0.10372  0.85869  Biso   1.000  C
  H686     1.0000 0.42389  0.00349  0.84490  Biso   1.000  H
  N460     1.0000 0.38114  0.99992  0.87576  Biso   1.000  N
  O229     1.0000 0.11746  0.03353  0.90041  Biso   1.000  O
  C691     1.0000 0.09895  0.12052  0.90581  Biso   1.000  C
  N461     1.0000 0.18834  0.24178  0.89133  Biso   1.000  N
  H687     1.0000 0.14131  0.22761  0.86220  Biso   1.000  H
  H688     1.0000 0.20099  0.25980  0.85519  Biso   1.000  H
  O230     1.0000 0.29725  0.94861  0.89153  Biso   1.000  O
  N462     1.0000 0.49994  0.11153  0.88560  Biso   1.000  N
  H689     1.0000 0.51089  0.13771  0.85040  Biso   1.000  H
  H690     1.0000 0.50820  0.08330  0.85300  Biso   1.000  H
  C692     1.0000 0.40784  0.98838  0.89584  Biso   1.000  C
  N463     1.0000 0.13720  0.16723  0.91937  Biso   1.000  N
  H691     1.0000 0.07069  0.12582  0.89999  Biso   1.000  H
  H692     1.0000 0.08401  0.09092  0.91729  Biso   1.000  H
  C693     1.0000 0.14990  0.22031  0.91123  Biso   1.000  C
  C694     1.0000 0.23660  0.28131  0.89952  Biso   1.000  C
  C695     1.0000 0.52785  0.16040  0.89603  Biso   1.000  C
  C696     1.0000 0.49661  0.07066  0.90266  Biso   1.000  C
  N464     1.0000 0.44345  0.03376  0.91070  Biso   1.000  N
  H693     1.0000 0.42740  0.97331  0.88840  Biso   1.000  H
  H694     1.0000 0.38159  0.96220  0.90700  Biso   1.000  H
  C697     1.0000 0.14548  0.16598  0.94459  Biso   1.000  C
  H695     1.0000 0.11830  0.22212  0.90719  Biso   1.000  H
  C698     1.0000 0.17904  0.25391  0.93459  Biso   1.000  C
  O231     1.0000 0.27475  0.30703  0.88681  Biso   1.000  O
  N465     1.0000 0.23292  0.28599  0.92545  Biso   1.000  N
  N466     1.0000 0.53840  0.15479  0.92085  Biso   1.000  N
  O232     1.0000 0.54057  0.20170  0.88532  Biso   1.000  O
  C699     1.0000 0.52292  0.10105  0.92687  Biso   1.000  C
  H696     1.0000 0.51449  0.05292  0.89571  Biso   1.000  H
  C700     1.0000 0.43633  0.03769  0.93592  Biso   1.000  C
  O233     1.0000 0.13266  0.12621  0.95718  Biso   1.000  O
  N467     1.0000 0.17228  0.21638  0.95346  Biso   1.000  N
  H697     1.0000 0.16430  0.27570  0.94000  Biso   1.000  H
  C701     1.0000 0.27070  0.33231  0.93896  Biso   1.000  C
  C702     1.0000 0.57837  0.19986  0.93473  Biso   1.000  C
  N468     1.0000 0.48114  0.07753  0.94547  Biso   1.000  N
  H698     1.0000 0.55311  0.09732  0.93159  Biso   1.000  H
  O234     1.0000 0.39541  0.00942  0.94768  Biso   1.000  O
  C703     1.0000 0.18055  0.22824  0.98011  Biso   1.000  C
  N469     1.0000 0.29528  0.32096  0.95956  Biso   1.000  N
  H699     1.0000 0.25319  0.35041  0.94549  Biso   1.000  H
  H700     1.0000 0.29760  0.35578  0.92730  Biso   1.000  H
  N470     1.0000 0.55790  0.21324  0.95681  Biso   1.000  N
  H701     1.0000 0.60548  0.19240  0.94009  Biso   1.000  H
  H702     1.0000 0.59438  0.22989  0.92349  Biso   1.000  H
  C704     1.0000 0.49053  0.08672  0.97229  Biso   1.000  C
  N471     1.0000 0.23450  0.25250  0.98797  Biso   1.000  N
  H703     1.0000 0.16039  0.19601  0.98950  Biso   1.000  H
  H704     1.0000 0.16711  0.25140  0.98440  Biso   1.000  H
  C705     1.0000 0.27185  0.30695  0.98453  Biso   1.000  C
  C706     1.0000 0.34967  0.34448  0.96079  Biso   1.000  C
  C707     1.0000 0.55641  0.25894  0.95854  Biso   1.000  C
  C708     1.0000 0.54533  0.18462  0.98034  Biso   1.000  C
  N472     1.0000 0.49532  0.13622  0.98085  Biso   1.000  N
  H705     1.0000 0.46191  0.05810  0.98140  Biso   1.000  H
  H706     1.0000 0.52249  0.08660  0.97660  Biso   1.000  H
  C709     1.0000 0.25345  0.22690  0.00240  Biso   1.000  C
  H707     1.0000 0.25729  0.32909  0.98959  Biso   1.000  H
  C710     1.0000 0.31883  0.31645  0.00174  Biso   1.000  C
  O235     1.0000 0.37922  0.36489  0.94321  Biso   1.000  O
  N473     1.0000 0.36348  0.34028  0.98468  Biso   1.000  N
  O236     1.0000 0.56744  0.29195  0.94215  Biso   1.000  O
  N474     1.0000 0.54072  0.26204  0.98268  Biso   1.000  N
  C711     1.0000 0.53638  0.22078  0.99881  Biso   1.000  C
  H708     1.0000 0.57400  0.17921  0.98600  Biso   1.000  H
  C712     1.0000 0.46217  0.13661  0.99860  Biso   1.000  C
  O237     1.0000 0.23019  0.18039  0.00788  Biso   1.000  O
  N475     1.0000 0.30425  0.26275  0.00937  Biso   1.000  N
  H709     1.0000 0.32309  0.33898  0.01620  Biso   1.000  H
  C713     1.0000 0.41710  0.36897  0.99367  Biso   1.000  C
  C714     1.0000 0.54647  0.31107  0.99241  Biso   1.000  C
  N476     1.0000 0.48450  0.18631  0.00857  Biso   1.000  N
  H710     1.0000 0.56270  0.23440  0.01230  Biso   1.000  H
  O238     1.0000 0.42037  0.09940  0.00485  Biso   1.000  O
  C715     1.0000 0.33034  0.25230  0.02941  Biso   1.000  C
  N477     1.0000 0.43950  0.33572  0.99940  Biso   1.000  N
  H711     1.0000 0.43859  0.39441  0.98100  Biso   1.000  H
  H712     1.0000 0.41832  0.38821  0.00880  Biso   1.000  H
  N478     1.0000 0.49743  0.30758  0.99821  Biso   1.000  N
  H713     1.0000 0.56479  0.33859  0.98000  Biso   1.000  H
  H714     1.0000 0.56789  0.32100  0.00759  Biso   1.000  H
  C716     1.0000 0.46275  0.19911  0.02997  Biso   1.000  C
  N479     1.0000 0.37959  0.25615  0.02134  Biso   1.000  N
  H715     1.0000 0.33741  0.27711  0.04301  Biso   1.000  H
  H716     1.0000 0.30729  0.21729  0.03590  Biso   1.000  H
  C717     1.0000 0.48221  0.34044  0.98599  Biso   1.000  C
  C718     1.0000 0.42910  0.30534  0.02159  Biso   1.000  C
  C719     1.0000 0.47084  0.28846  0.02180  Biso   1.000  C
  N480     1.0000 0.43948  0.23165  0.02355  Biso   1.000  N
  H717     1.0000 0.43599  0.16680  0.03770  Biso   1.000  H
  H718     1.0000 0.49029  0.21760  0.04240  Biso   1.000  H
  C720     1.0000 0.38738  0.21367  0.02406  Biso   1.000  C
  O239     1.0000 0.50235  0.36678  0.96753  Biso   1.000  O
  H719     1.0000 0.43198  0.32599  0.03660  Biso   1.000  H
  H720     1.0000 0.49478  0.30349  0.03621  Biso   1.000  H
  O240     1.0000 0.35249  0.16763  0.02637  Biso   1.000  O
  O241     1.0000 0.68430  0.84701  0.19096  Biso   1.000  O
  C721     1.0000 0.71736  0.89313  0.18762  Biso   1.000  C
  N481     1.0000 0.77059  0.91331  0.18568  Biso   1.000  N
  N482     1.0000 0.70738  0.93396  0.18536  Biso   1.000  N
  C722     1.0000 0.79563  0.88242  0.19221  Biso   1.000  C
  C723     1.0000 0.79900  0.96933  0.18356  Biso   1.000  C
  C724     1.0000 0.75640  0.98468  0.18509  Biso   1.000  C
  C725     1.0000 0.65830  0.92882  0.19282  Biso   1.000  C
  N483     1.0000 0.81637  0.86895  0.17032  Biso   1.000  N
  H721     1.0000 0.82399  0.90228  0.20400  Biso   1.000  H
  H722     1.0000 0.77009  0.85030  0.20060  Biso   1.000  H
  N484     1.0000 0.82221  0.98888  0.15861  Biso   1.000  N
  H723     1.0000 0.82498  0.98558  0.19710  Biso   1.000  H
  N485     1.0000 0.76427  0.01565  0.16284  Biso   1.000  N
  H724     1.0000 0.76008  0.00490  0.20041  Biso   1.000  H
  N486     1.0000 0.63045  0.93698  0.17240  Biso   1.000  N
  H725     1.0000 0.66459  0.95398  0.20609  Biso   1.000  H
  H726     1.0000 0.63620  0.89388  0.19969  Biso   1.000  H
  C726     1.0000 0.79568  0.81764  0.16245  Biso   1.000  C
  C727     1.0000 0.86502  0.90369  0.15827  Biso   1.000  C
  C728     1.0000 0.87021  0.99131  0.15013  Biso   1.000  C
  C729     1.0000 0.80397  0.01966  0.14822  Biso   1.000  C
  C730     1.0000 0.73940  0.04655  0.15852  Biso   1.000  C
  C731     1.0000 0.58245  0.89937  0.16430  Biso   1.000  C
  C732     1.0000 0.64143  0.98919  0.16556  Biso   1.000  C
  N487     1.0000 0.82651  0.81729  0.14341  Biso   1.000  N
  O242     1.0000 0.75698  0.77995  0.17111  Biso   1.000  O
  C733     1.0000 0.87450  0.86887  0.14035  Biso   1.000  C
  N488     1.0000 0.86172  0.94158  0.14118  Biso   1.000  N
  H727     1.0000 0.89360  0.92128  0.17049  Biso   1.000  H
  H728     1.0000 0.88549  0.01699  0.13670  Biso   1.000  H
  H729     1.0000 0.89507  0.00297  0.16399  Biso   1.000  H
  O243     1.0000 0.82121  0.04576  0.12888  Biso   1.000  O
  N489     1.0000 0.68653  0.01691  0.14913  Biso   1.000  N
  H730     1.0000 0.73898  0.06319  0.17431  Biso   1.000  H
  H731     1.0000 0.76031  0.07411  0.14650  Biso   1.000  H
  N490     1.0000 0.56177  0.92261  0.14917  Biso   1.000  N
  O244     1.0000 0.56162  0.85207  0.16902  Biso   1.000  O
  C734     1.0000 0.59458  0.97899  0.14858  Biso   1.000  C
  H732     1.0000 0.64388  0.01000  0.18050  Biso   1.000  H
  C735     1.0000 0.82471  0.76936  0.13483  Biso   1.000  C
  N491     1.0000 0.87865  0.89172  0.11549  Biso   1.000  N
  H733     1.0000 0.90618  0.86758  0.14481  Biso   1.000  H
  C736     1.0000 0.87586  0.93659  0.11695  Biso   1.000  C
  C737     1.0000 0.67286  0.02539  0.12545  Biso   1.000  C
  C738     1.0000 0.50753  0.89627  0.14131  Biso   1.000  C
  N492     1.0000 0.61885  0.00007  0.12424  Biso   1.000  N
  H734     1.0000 0.57610  0.99650  0.15510  Biso   1.000  H
  N493     1.0000 0.81162  0.75821  0.10867  Biso   1.000  N
  H735     1.0000 0.85869  0.77238  0.13780  Biso   1.000  H
  H736     1.0000 0.79901  0.74019  0.14481  Biso   1.000  H
  C739     1.0000 0.90105  0.87947  0.09419  Biso   1.000  C
  O245     1.0000 0.88253  0.96646  0.09959  Biso   1.000  O
  O246     1.0000 0.70275  0.05138  0.10847  Biso   1.000  O
  N494     1.0000 0.50005  0.88846  0.11440  Biso   1.000  N
  H737     1.0000 0.48910  0.86228  0.14960  Biso   1.000  H
  H738     1.0000 0.49180  0.91669  0.14700  Biso   1.000  H
  C740     1.0000 0.59216  0.01161  0.10414  Biso   1.000  C
  C741     1.0000 0.76340  0.71867  0.10048  Biso   1.000  C
  C742     1.0000 0.85010  0.77968  0.08877  Biso   1.000  C
  N495     1.0000 0.86280  0.83276  0.08063  Biso   1.000  N
  H739     1.0000 0.92929  0.87421  0.10001  Biso   1.000  H
  H740     1.0000 0.91600  0.90911  0.08271  Biso   1.000  H
  C743     1.0000 0.47215  0.83959  0.10397  Biso   1.000  C
  C744     1.0000 0.50339  0.92933  0.09734  Biso   1.000  C
  N496     1.0000 0.55651  0.96623  0.08930  Biso   1.000  N
  H741     1.0000 0.57260  0.02668  0.11160  Biso   1.000  H
  H742     1.0000 0.61841  0.03779  0.09300  Biso   1.000  H
  N497     1.0000 0.76708  0.71400  0.07455  Biso   1.000  N
  O247     1.0000 0.72525  0.69296  0.11319  Biso   1.000  O
  C745     1.0000 0.82092  0.74608  0.06541  Biso   1.000  C
  H743     1.0000 0.88172  0.77791  0.09279  Biso   1.000  H
  C746     1.0000 0.85452  0.83401  0.05541  Biso   1.000  C
  N498     1.0000 0.46159  0.84520  0.07915  Biso   1.000  N
  O248     1.0000 0.45942  0.79829  0.11466  Biso   1.000  O
  C747     1.0000 0.47710  0.89898  0.07313  Biso   1.000  C
  H744     1.0000 0.48549  0.94711  0.10429  Biso   1.000  H
  C748     1.0000 0.56366  0.96230  0.06408  Biso   1.000  C
  C749     1.0000 0.72930  0.66768  0.06104  Biso   1.000  C
  N499     1.0000 0.82772  0.78361  0.04654  Biso   1.000  N
  H745     1.0000 0.83569  0.72429  0.06000  Biso   1.000  H
  O249     1.0000 0.86733  0.87378  0.04282  Biso   1.000  O
  C750     1.0000 0.42162  0.80013  0.06527  Biso   1.000  C
  N500     1.0000 0.51885  0.92246  0.05453  Biso   1.000  N
  H746     1.0000 0.44690  0.90271  0.06841  Biso   1.000  H
  O250     1.0000 0.60459  0.99057  0.05232  Biso   1.000  O
  N501     1.0000 0.70471  0.67903  0.04044  Biso   1.000  N
  H747     1.0000 0.74680  0.64958  0.05451  Biso   1.000  H
  H748     1.0000 0.70240  0.64420  0.07270  Biso   1.000  H
  C751     1.0000 0.81944  0.77175  0.01989  Biso   1.000  C
  N502     1.0000 0.44209  0.78675  0.04319  Biso   1.000  N
  H749     1.0000 0.39448  0.80759  0.05991  Biso   1.000  H
  H750     1.0000 0.40559  0.77010  0.07649  Biso   1.000  H
  C752     1.0000 0.50947  0.91327  0.02771  Biso   1.000  C
  C753     1.0000 0.65032  0.65551  0.03921  Biso   1.000  C
  C754     1.0000 0.72814  0.69304  0.01547  Biso   1.000  C
  N503     1.0000 0.76550  0.74749  0.01203  Biso   1.000  N
  H751     1.0000 0.83957  0.80398  0.01050  Biso   1.000  H
  H752     1.0000 0.83289  0.74859  0.01560  Biso   1.000  H
  C755     1.0000 0.44359  0.74105  0.04146  Biso   1.000  C
  C756     1.0000 0.45467  0.81536  0.01964  Biso   1.000  C
  N504     1.0000 0.50467  0.86377  0.01915  Biso   1.000  N
  H753     1.0000 0.53809  0.94189  0.01860  Biso   1.000  H
  H754     1.0000 0.47750  0.91339  0.02340  Biso   1.000  H
  O251     1.0000 0.62077  0.63510  0.05679  Biso   1.000  O
  N505     1.0000 0.63651  0.65971  0.01532  Biso   1.000  N
  C757     1.0000 0.68113  0.68354  0.99826  Biso   1.000  C
  H755     1.0000 0.74270  0.67090  0.01041  Biso   1.000  H
  C758     1.0000 0.74654  0.77308  0.99760  Biso   1.000  C
  N506     1.0000 0.45927  0.73795  0.01732  Biso   1.000  N
  O252     1.0000 0.43255  0.70804  0.05785  Biso   1.000  O
  C759     1.0000 0.46358  0.77921  0.00117  Biso   1.000  C
  H756     1.0000 0.42600  0.82078  0.01400  Biso   1.000  H
  C760     1.0000 0.53783  0.86338  0.00140  Biso   1.000  C
  C761     1.0000 0.58290  0.63101  0.00633  Biso   1.000  C
  N507     1.0000 0.69574  0.73724  0.99063  Biso   1.000  N
  H757     1.0000 0.67690  0.66101  0.98380  Biso   1.000  H
  O253     1.0000 0.76980  0.81960  0.99212  Biso   1.000  O
  C762     1.0000 0.45349  0.68892  0.00759  Biso   1.000  C
  N508     1.0000 0.51549  0.81368  0.99143  Biso   1.000  N
  H758     1.0000 0.43729  0.76559  0.98770  Biso   1.000  H
  O254     1.0000 0.57959  0.90059  0.99515  Biso   1.000  O
  N509     1.0000 0.56048  0.66430  0.00060  Biso   1.000  N
  H759     1.0000 0.56139  0.60562  0.01900  Biso   1.000  H
  H760     1.0000 0.58168  0.61178  0.99120  Biso   1.000  H
  C763     1.0000 0.66965  0.74769  0.97059  Biso   1.000  C
  N510     1.0000 0.50256  0.69241  0.00179  Biso   1.000  N
  H761     1.0000 0.43521  0.66140  0.02000  Biso   1.000  H
  H762     1.0000 0.43210  0.67899  0.99241  Biso   1.000  H
  C764     1.0000 0.53724  0.80088  0.97003  Biso   1.000  C
  C765     1.0000 0.51778  0.65955  0.01401  Biso   1.000  C
  C766     1.0000 0.57089  0.69465  0.97841  Biso   1.000  C
  N511     1.0000 0.62037  0.74384  0.97864  Biso   1.000  N
  H763     1.0000 0.66261  0.72291  0.95699  Biso   1.000  H
  H764     1.0000 0.69270  0.78270  0.96410  Biso   1.000  H
  C767     1.0000 0.52915  0.71153  0.97820  Biso   1.000  C
  N512     1.0000 0.56051  0.76833  0.97643  Biso   1.000  N
  H765     1.0000 0.56401  0.83319  0.96230  Biso   1.000  H
  H766     1.0000 0.50971  0.78239  0.95760  Biso   1.000  H
  O255     1.0000 0.49764  0.63321  0.03247  Biso   1.000  O
  H767     1.0000 0.56801  0.67400  0.96340  Biso   1.000  H
  C768     1.0000 0.61263  0.78635  0.97592  Biso   1.000  C
  H768     1.0000 0.50518  0.69649  0.96379  Biso   1.000  H
  O256     1.0000 0.64750  0.83236  0.97363  Biso   1.000  O
  O257     1.0000 0.85207  0.29046  0.83098  Biso   1.000  O
  C769     1.0000 0.89937  0.31692  0.83570  Biso   1.000  C
  N513     1.0000 0.93700  0.30652  0.82760  Biso   1.000  N
  N514     1.0000 0.92260  0.36081  0.85083  Biso   1.000  N
  C770     1.0000 0.92879  0.27052  0.80718  Biso   1.000  C
  C771     1.0000 0.98919  0.34774  0.83444  Biso   1.000  C
  C772     1.0000 0.97900  0.38440  0.85142  Biso   1.000  C
  C773     1.0000 0.89627  0.38872  0.85869  Biso   1.000  C
  N515     1.0000 0.93396  0.22659  0.81464  Biso   1.000  N
  H769     1.0000 0.95401  0.28940  0.79391  Biso   1.000  H
  H770     1.0000 0.89388  0.25768  0.80029  Biso   1.000  H
  N516     1.0000 0.01693  0.33039  0.85087  Biso   1.000  N
  H771     1.0000 0.01001  0.36611  0.81950  Biso   1.000  H
  H772     1.0000 0.99649  0.42040  0.84490  Biso   1.000  H
  N517     1.0000 0.00009  0.38122  0.87576  Biso   1.000  N
  N518     1.0000 0.88846  0.38841  0.88560  Biso   1.000  N
  H773     1.0000 0.86231  0.37321  0.85040  Biso   1.000  H
  H774     1.0000 0.91671  0.42492  0.85300  Biso   1.000  H
  C774     1.0000 0.89312  0.17579  0.81236  Biso   1.000  C
  C775     1.0000 0.98468  0.22828  0.81491  Biso   1.000  C
  C776     1.0000 0.04655  0.30715  0.84148  Biso   1.000  C
  C777     1.0000 0.02540  0.35257  0.87455  Biso   1.000  C
  C778     1.0000 0.01163  0.41946  0.89584  Biso   1.000  C
  C779     1.0000 0.83957  0.36744  0.89603  Biso   1.000  C
  C780     1.0000 0.92929  0.42594  0.90266  Biso   1.000  C
  O258     1.0000 0.84702  0.16272  0.80904  Biso   1.000  O
  N519     1.0000 0.91331  0.14274  0.81432  Biso   1.000  N
  C781     1.0000 0.96934  0.17034  0.81644  Biso   1.000  C
  N520     1.0000 0.01567  0.25136  0.83716  Biso   1.000  N
  H775     1.0000 0.00491  0.24481  0.79959  Biso   1.000  H
  H776     1.0000 0.06319  0.32418  0.82569  Biso   1.000  H
  H777     1.0000 0.07411  0.31378  0.85350  Biso   1.000  H
  O259     1.0000 0.05142  0.34864  0.89153  Biso   1.000  O
  N521     1.0000 0.96621  0.40968  0.91070  Biso   1.000  N
  H778     1.0000 0.02670  0.45408  0.88840  Biso   1.000  H
  H779     1.0000 0.03780  0.41938  0.90700  Biso   1.000  H
  N522     1.0000 0.84521  0.38362  0.92085  Biso   1.000  N
  O260     1.0000 0.79828  0.33886  0.88532  Biso   1.000  O
  C782     1.0000 0.89897  0.42185  0.92687  Biso   1.000  C
  H780     1.0000 0.94708  0.46158  0.89571  Biso   1.000  H
  C783     1.0000 0.88242  0.08680  0.80779  Biso   1.000  C
  N523     1.0000 0.98884  0.16665  0.84137  Biso   1.000  N
  H781     1.0000 0.98558  0.16060  0.80290  Biso   1.000  H
  C784     1.0000 0.01965  0.21568  0.85178  Biso   1.000  C
  C785     1.0000 0.96231  0.39861  0.93592  Biso   1.000  C
  C786     1.0000 0.80016  0.37851  0.93473  Biso   1.000  C
  N524     1.0000 0.92244  0.40360  0.94547  Biso   1.000  N
  H782     1.0000 0.90269  0.45581  0.93159  Biso   1.000  H
  N525     1.0000 0.86896  0.05260  0.82966  Biso   1.000  N
  H783     1.0000 0.90232  0.07832  0.79600  Biso   1.000  H
  H784     1.0000 0.85029  0.08020  0.79940  Biso   1.000  H
  C787     1.0000 0.99133  0.12111  0.84985  Biso   1.000  C
  O261     1.0000 0.04578  0.22455  0.87112  Biso   1.000  O
  O262     1.0000 0.99057  0.38597  0.94768  Biso   1.000  O
  N526     1.0000 0.78675  0.34464  0.95681  Biso   1.000  N
  H785     1.0000 0.80759  0.41310  0.94009  Biso   1.000  H
  H786     1.0000 0.77010  0.36450  0.92349  Biso   1.000  H
  C788     1.0000 0.91326  0.40380  0.97229  Biso   1.000  C
  C789     1.0000 0.90367  0.03867  0.84173  Biso   1.000  C
  C790     1.0000 0.81763  0.02194  0.83755  Biso   1.000  C
  N527     1.0000 0.94160  0.07985  0.85882  Biso   1.000  N
  H787     1.0000 0.01700  0.13151  0.86330  Biso   1.000  H
  H788     1.0000 0.00300  0.10792  0.83601  Biso   1.000  H
  C791     1.0000 0.74106  0.29745  0.95854  Biso   1.000  C
  C792     1.0000 0.81535  0.36069  0.98034  Biso   1.000  C
  N528     1.0000 0.86379  0.35912  0.98085  Biso   1.000  N
  H789     1.0000 0.94189  0.40380  0.98140  Biso   1.000  H
  H790     1.0000 0.91341  0.43591  0.97660  Biso   1.000  H
  H791     1.0000 0.92132  0.02772  0.82949  Biso   1.000  H
  C793     1.0000 0.86887  0.99435  0.85965  Biso   1.000  C
  O263     1.0000 0.77996  0.02297  0.82889  Biso   1.000  O
  N529     1.0000 0.81731  0.99077  0.85659  Biso   1.000  N
  C794     1.0000 0.93660  0.06073  0.88305  Biso   1.000  C
  O264     1.0000 0.70804  0.27547  0.94215  Biso   1.000  O
  N530     1.0000 0.73797  0.27868  0.98268  Biso   1.000  N
  C795     1.0000 0.77922  0.31562  0.99881  Biso   1.000  C
  H792     1.0000 0.82081  0.39481  0.98600  Biso   1.000  H
  C796     1.0000 0.86340  0.32556  0.99860  Biso   1.000  C
  N531     1.0000 0.89173  0.01307  0.88451  Biso   1.000  N
  H793     1.0000 0.86760  0.96141  0.85519  Biso   1.000  H
  C797     1.0000 0.76938  0.94469  0.86517  Biso   1.000  C
  O265     1.0000 0.96649  0.08393  0.90041  Biso   1.000  O
  C798     1.0000 0.68890  0.23542  0.99241  Biso   1.000  C
  N532     1.0000 0.81368  0.29819  0.00857  Biso   1.000  N
  H794     1.0000 0.76560  0.32830  0.01230  Biso   1.000  H
  O266     1.0000 0.90059  0.32100  0.00485  Biso   1.000  O
  C799     1.0000 0.87946  0.97841  0.90581  Biso   1.000  C
  N533     1.0000 0.75822  0.94657  0.89133  Biso   1.000  N
  H795     1.0000 0.77242  0.91371  0.86220  Biso   1.000  H
  H796     1.0000 0.74020  0.94119  0.85519  Biso   1.000  H
  N534     1.0000 0.69243  0.18985  0.99821  Biso   1.000  N
  H797     1.0000 0.66141  0.22620  0.98000  Biso   1.000  H
  H798     1.0000 0.67899  0.24689  0.00759  Biso   1.000  H
  C800     1.0000 0.80089  0.26365  0.02997  Biso   1.000  C
  N535     1.0000 0.83278  0.96997  0.91937  Biso   1.000  N
  H799     1.0000 0.87421  0.94492  0.89999  Biso   1.000  H
  H800     1.0000 0.90910  0.99309  0.91729  Biso   1.000  H
  C801     1.0000 0.77967  0.92957  0.91123  Biso   1.000  C
  C802     1.0000 0.71868  0.95529  0.89952  Biso   1.000  C
  C803     1.0000 0.65956  0.14180  0.98599  Biso   1.000  C
  C804     1.0000 0.71154  0.18239  0.02180  Biso   1.000  C
  N536     1.0000 0.76832  0.20783  0.02355  Biso   1.000  N
  H801     1.0000 0.83317  0.26918  0.03770  Biso   1.000  H
  H802     1.0000 0.78241  0.27272  0.04240  Biso   1.000  H
  C805     1.0000 0.83399  0.97947  0.94459  Biso   1.000  C
  H803     1.0000 0.77791  0.89620  0.90719  Biso   1.000  H
  C806     1.0000 0.74611  0.92514  0.93459  Biso   1.000  C
  O267     1.0000 0.69298  0.96773  0.88681  Biso   1.000  O
  N537     1.0000 0.71399  0.94692  0.92545  Biso   1.000  N
  N538     1.0000 0.66429  0.10380  0.99940  Biso   1.000  N
  O268     1.0000 0.63324  0.13559  0.96753  Biso   1.000  O
  C807     1.0000 0.69468  0.12378  0.02159  Biso   1.000  C
  H804     1.0000 0.69649  0.19130  0.03621  Biso   1.000  H
  C808     1.0000 0.78635  0.17371  0.02406  Biso   1.000  C
  O269     1.0000 0.87376  0.00644  0.95718  Biso   1.000  O
  N539     1.0000 0.78361  0.95588  0.95346  Biso   1.000  N
  H805     1.0000 0.72430  0.88859  0.94000  Biso   1.000  H
  C809     1.0000 0.66769  0.93837  0.93896  Biso   1.000  C
  C810     1.0000 0.63102  0.04813  0.99367  Biso   1.000  C
  N540     1.0000 0.74386  0.12346  0.02134  Biso   1.000  N
  H806     1.0000 0.67399  0.10599  0.03660  Biso   1.000  H
  O270     1.0000 0.83235  0.18486  0.02637  Biso   1.000  O
  C811     1.0000 0.77178  0.95234  0.98011  Biso   1.000  C
  N541     1.0000 0.67904  0.97433  0.95956  Biso   1.000  N
  H807     1.0000 0.64960  0.90280  0.94549  Biso   1.000  H
  H808     1.0000 0.64420  0.94182  0.92730  Biso   1.000  H
  N542     1.0000 0.65967  0.02316  0.98468  Biso   1.000  N
  H809     1.0000 0.60560  0.04420  0.98100  Biso   1.000  H
  H810     1.0000 0.61181  0.03011  0.00880  Biso   1.000  H
  C812     1.0000 0.74770  0.07804  0.02941  Biso   1.000  C
  N543     1.0000 0.74750  0.98198  0.98797  Biso   1.000  N
  H811     1.0000 0.80398  0.96439  0.98950  Biso   1.000  H
  H812     1.0000 0.74860  0.91572  0.98440  Biso   1.000  H
  C813     1.0000 0.65551  0.00518  0.96079  Biso   1.000  C
  C814     1.0000 0.69307  0.96490  0.98453  Biso   1.000  C
  C815     1.0000 0.68356  0.00239  0.00174  Biso   1.000  C
  N544     1.0000 0.73724  0.04149  0.00937  Biso   1.000  N
  H813     1.0000 0.72288  0.06030  0.04301  Biso   1.000  H
  H814     1.0000 0.78272  0.09002  0.03590  Biso   1.000  H
  C816     1.0000 0.77308  0.02654  0.00240  Biso   1.000  C
  O271     1.0000 0.63510  0.01433  0.94321  Biso   1.000  O
  H815     1.0000 0.67091  0.92820  0.98959  Biso   1.000  H
  H816     1.0000 0.66098  0.98410  0.01620  Biso   1.000  H
  O272     1.0000 0.81960  0.04982  0.00788  Biso   1.000  O
  O273     1.0000 0.14792  0.70953  0.16902  Biso   1.000  O
  C817     1.0000 0.10063  0.68307  0.16430  Biso   1.000  C
  N545     1.0000 0.07739  0.63918  0.14917  Biso   1.000  N
  N546     1.0000 0.06299  0.69347  0.17240  Biso   1.000  N
  C818     1.0000 0.10372  0.61127  0.14131  Biso   1.000  C
  C819     1.0000 0.02099  0.61559  0.14858  Biso   1.000  C
  C820     1.0000 0.01080  0.65225  0.16556  Biso   1.000  C
  C821     1.0000 0.07120  0.72947  0.19282  Biso   1.000  C
  N547     1.0000 0.11153  0.61158  0.11440  Biso   1.000  N
  H817     1.0000 0.13771  0.62681  0.14960  Biso   1.000  H
  H818     1.0000 0.08330  0.57511  0.14700  Biso   1.000  H
  H819     1.0000 0.00350  0.57959  0.15510  Biso   1.000  H
  N548     1.0000 0.99990  0.61877  0.12424  Biso   1.000  N
  N549     1.0000 0.98306  0.66960  0.14913  Biso   1.000  N
  H820     1.0000 0.98999  0.63388  0.18050  Biso   1.000  H
  N550     1.0000 0.06604  0.77340  0.18536  Biso   1.000  N
  H821     1.0000 0.04599  0.71059  0.20609  Biso   1.000  H
  H822     1.0000 0.10611  0.74231  0.19969  Biso   1.000  H
  C822     1.0000 0.16043  0.63255  0.10397  Biso   1.000  C
  C823     1.0000 0.07067  0.57405  0.09734  Biso   1.000  C
  C824     1.0000 0.98837  0.58053  0.10414  Biso   1.000  C
  C825     1.0000 0.97461  0.64746  0.12545  Biso   1.000  C
  C826     1.0000 0.95341  0.69284  0.15852  Biso   1.000  C
  C827     1.0000 0.01532  0.77171  0.18509  Biso   1.000  C
  C828     1.0000 0.10684  0.82420  0.18762  Biso   1.000  C
  N551     1.0000 0.15479  0.61637  0.07915  Biso   1.000  N
  O274     1.0000 0.20171  0.66112  0.11466  Biso   1.000  O
  C829     1.0000 0.10103  0.57814  0.07313  Biso   1.000  C
  N552     1.0000 0.03378  0.59031  0.08930  Biso   1.000  N
  H823     1.0000 0.05291  0.53841  0.10429  Biso   1.000  H
  H824     1.0000 0.97330  0.54591  0.11160  Biso   1.000  H
  H825     1.0000 0.96220  0.58061  0.09300  Biso   1.000  H
  O275     1.0000 0.94858  0.65135  0.10847  Biso   1.000  O
  N553     1.0000 0.98433  0.74863  0.16284  Biso   1.000  N
  H826     1.0000 0.93680  0.67581  0.17431  Biso   1.000  H
  H827     1.0000 0.92589  0.68621  0.14650  Biso   1.000  H
  C830     1.0000 0.03068  0.82969  0.18356  Biso   1.000  C
  H828     1.0000 0.99509  0.75518  0.20041  Biso   1.000  H
  O276     1.0000 0.15295  0.83727  0.19096  Biso   1.000  O
  N554     1.0000 0.08668  0.85725  0.18568  Biso   1.000  N
  C831     1.0000 0.19984  0.62147  0.06527  Biso   1.000  C
  N555     1.0000 0.07755  0.59639  0.05453  Biso   1.000  N
  H829     1.0000 0.09727  0.54418  0.06841  Biso   1.000  H
  C832     1.0000 0.03768  0.60138  0.06408  Biso   1.000  C
  C833     1.0000 0.98035  0.78431  0.14822  Biso   1.000  C
  N556     1.0000 0.01115  0.83334  0.15861  Biso   1.000  N
  H830     1.0000 0.01441  0.83939  0.19710  Biso   1.000  H
  C834     1.0000 0.11759  0.91323  0.19221  Biso   1.000  C
  N557     1.0000 0.21324  0.65535  0.04319  Biso   1.000  N
  H831     1.0000 0.19240  0.58689  0.05991  Biso   1.000  H
  H832     1.0000 0.22990  0.63549  0.07649  Biso   1.000  H
  C835     1.0000 0.08673  0.59619  0.02771  Biso   1.000  C
  O277     1.0000 0.00943  0.61402  0.05232  Biso   1.000  O
  O278     1.0000 0.95422  0.77544  0.12888  Biso   1.000  O
  C836     1.0000 0.00866  0.87888  0.15013  Biso   1.000  C
  N558     1.0000 0.13103  0.94739  0.17032  Biso   1.000  N
  H833     1.0000 0.09770  0.92171  0.20400  Biso   1.000  H
  H834     1.0000 0.14970  0.91979  0.20060  Biso   1.000  H
  C837     1.0000 0.25893  0.70254  0.04146  Biso   1.000  C
  C838     1.0000 0.18465  0.63930  0.01964  Biso   1.000  C
  N559     1.0000 0.13620  0.64087  0.01915  Biso   1.000  N
  H835     1.0000 0.05811  0.59619  0.01860  Biso   1.000  H
  H836     1.0000 0.08659  0.56408  0.02340  Biso   1.000  H
  N560     1.0000 0.05839  0.92014  0.14118  Biso   1.000  N
  H837     1.0000 0.98299  0.86848  0.13670  Biso   1.000  H
  H838     1.0000 0.99702  0.89211  0.16399  Biso   1.000  H
  C839     1.0000 0.09632  0.96132  0.15827  Biso   1.000  C
  C840     1.0000 0.18237  0.97804  0.16245  Biso   1.000  C
  O279     1.0000 0.29196  0.72452  0.05785  Biso   1.000  O
  N561     1.0000 0.26203  0.72131  0.01732  Biso   1.000  N
  C841     1.0000 0.22078  0.68436  0.00117  Biso   1.000  C
  H839     1.0000 0.17918  0.60518  0.01400  Biso   1.000  H
  C842     1.0000 0.13662  0.67447  0.00140  Biso   1.000  C
  C843     1.0000 0.06339  0.93926  0.11695  Biso   1.000  C
  H840     1.0000 0.07868  0.97227  0.17049  Biso   1.000  H
  C844     1.0000 0.13113  0.00564  0.14035  Biso   1.000  C
  O280     1.0000 0.22003  0.97702  0.17111  Biso   1.000  O
  N562     1.0000 0.18269  0.00921  0.14341  Biso   1.000  N
  C845     1.0000 0.31109  0.76457  0.00759  Biso   1.000  C
  N563     1.0000 0.18634  0.70183  0.99143  Biso   1.000  N
  H841     1.0000 0.23439  0.67168  0.98770  Biso   1.000  H
  O281     1.0000 0.09940  0.67899  0.99515  Biso   1.000  O
  O282     1.0000 0.03350  0.91606  0.09959  Biso   1.000  O
  N564     1.0000 0.10827  0.98692  0.11549  Biso   1.000  N
  H842     1.0000 0.13240  0.03858  0.14481  Biso   1.000  H
  C846     1.0000 0.23062  0.05530  0.13483  Biso   1.000  C
  N565     1.0000 0.30757  0.81014  0.00179  Biso   1.000  N
  H843     1.0000 0.33859  0.77379  0.02000  Biso   1.000  H
  H844     1.0000 0.32100  0.75310  0.99241  Biso   1.000  H
  C847     1.0000 0.19910  0.73634  0.97003  Biso   1.000  C
  C848     1.0000 0.12053  0.02158  0.09419  Biso   1.000  C
  N566     1.0000 0.24178  0.05342  0.10867  Biso   1.000  N
  H845     1.0000 0.22757  0.08628  0.13780  Biso   1.000  H
  H846     1.0000 0.25980  0.05880  0.14481  Biso   1.000  H
  C849     1.0000 0.34045  0.85823  0.01401  Biso   1.000  C
  C850     1.0000 0.28847  0.81764  0.97820  Biso   1.000  C
  N567     1.0000 0.23164  0.79216  0.97643  Biso   1.000  N
  H847     1.0000 0.16679  0.73081  0.96230  Biso   1.000  H
  H848     1.0000 0.21760  0.72731  0.95760  Biso   1.000  H
  N568     1.0000 0.16722  0.03002  0.08063  Biso   1.000  N
  H849     1.0000 0.12581  0.05511  0.10001  Biso   1.000  H
  H850     1.0000 0.09089  0.00690  0.08271  Biso   1.000  H
  C851     1.0000 0.22032  0.07042  0.08877  Biso   1.000  C
  C852     1.0000 0.28131  0.04470  0.10048  Biso   1.000  C
  O283     1.0000 0.36675  0.86440  0.03247  Biso   1.000  O
  N569     1.0000 0.33570  0.89619  0.00060  Biso   1.000  N
  C853     1.0000 0.30533  0.87625  0.97841  Biso   1.000  C
  H851     1.0000 0.30351  0.80869  0.96379  Biso   1.000  H
  C854     1.0000 0.21364  0.82628  0.97592  Biso   1.000  C
  C855     1.0000 0.16600  0.02052  0.05541  Biso   1.000  C
  H852     1.0000 0.22208  0.10378  0.09279  Biso   1.000  H
  C856     1.0000 0.25389  0.07485  0.06541  Biso   1.000  C
  O284     1.0000 0.30701  0.03226  0.11319  Biso   1.000  O
  N570     1.0000 0.28600  0.05306  0.07455  Biso   1.000  N
  C857     1.0000 0.36897  0.95186  0.00633  Biso   1.000  C
  N571     1.0000 0.25614  0.87653  0.97864  Biso   1.000  N
  H853     1.0000 0.32600  0.89400  0.96340  Biso   1.000  H
  O285     1.0000 0.16764  0.81513  0.97363  Biso   1.000  O
  O286     1.0000 0.12624  0.99355  0.04282  Biso   1.000  O
  N572     1.0000 0.21639  0.04411  0.04654  Biso   1.000  N
  H854     1.0000 0.27570  0.11140  0.06000  Biso   1.000  H
  C858     1.0000 0.33230  0.06162  0.06104  Biso   1.000  C
  N573     1.0000 0.34032  0.97683  0.01532  Biso   1.000  N
  H855     1.0000 0.39440  0.95579  0.01900  Biso   1.000  H
  H856     1.0000 0.38818  0.96988  0.99120  Biso   1.000  H
  C859     1.0000 0.25230  0.92195  0.97059  Biso   1.000  C
  C860     1.0000 0.22824  0.04769  0.01989  Biso   1.000  C
  N574     1.0000 0.32095  0.02566  0.04044  Biso   1.000  N
  H857     1.0000 0.35039  0.09719  0.05451  Biso   1.000  H
  H858     1.0000 0.35578  0.05821  0.07270  Biso   1.000  H
  C861     1.0000 0.34448  0.99481  0.03921  Biso   1.000  C
  C862     1.0000 0.31644  0.99759  0.99826  Biso   1.000  C
  N575     1.0000 0.26275  0.95849  0.99063  Biso   1.000  N
  H859     1.0000 0.27708  0.93969  0.95699  Biso   1.000  H
  H860     1.0000 0.21730  0.91001  0.96410  Biso   1.000  H
  N576     1.0000 0.25249  0.01801  0.01203  Biso   1.000  N
  H861     1.0000 0.19601  0.03560  0.01050  Biso   1.000  H
  H862     1.0000 0.25139  0.08427  0.01560  Biso   1.000  H
  C863     1.0000 0.30693  0.03508  0.01547  Biso   1.000  C
  O287     1.0000 0.36490  0.98566  0.05679  Biso   1.000  O
  H863     1.0000 0.33898  0.01589  0.98380  Biso   1.000  H
  C864     1.0000 0.22692  0.97345  0.99760  Biso   1.000  C
  H864     1.0000 0.32909  0.07179  0.01041  Biso   1.000  H
  O288     1.0000 0.18040  0.95017  0.99212  Biso   1.000  O
  Ne1      1.0000 0.50583  0.50929  0.25225  Biso   1.000  Ne
  He1      1.0000 0.60487  0.53527  0.28646  Biso   1.000  He
  He2      1.0000 0.40878  0.49020  0.22217  Biso   1.000  He
  Ar1      1.0000 0.50886  0.51026  0.25307  Biso   1.000  Ar
  Ne2      1.0000 0.17596  0.33680  0.08108  Biso   1.000  Ne
  He3      1.0000 0.14746  0.40768  0.11600  Biso   1.000  He
  He4      1.0000 0.20268  0.26159  0.04587  Biso   1.000  He
  Ar2      1.0000 0.17701  0.33474  0.08021  Biso   1.000  Ar
  Ne3      1.0000 0.32986  0.17250  0.41442  Biso   1.000  Ne
  He5      1.0000 0.26101  0.07585  0.44842  Biso   1.000  He
  He6      1.0000 0.40401  0.27301  0.37970  Biso   1.000  He
  Ar3      1.0000 0.33192  0.17561  0.41353  Biso   1.000  Ar
  Ne4      1.0000 0.00346  0.49416  0.25225  Biso   1.000  Ne
  He7      1.0000 0.92754  0.39127  0.28779  Biso   1.000  He
  He8      1.0000 0.08168  0.59580  0.21919  Biso   1.000  He
  Ar4      1.0000 0.00141  0.49113  0.25307  Biso   1.000  Ar
  Ne5      1.0000 0.84263  0.67013  0.41442  Biso   1.000  Ne
  He9      1.0000 0.81414  0.74103  0.44933  Biso   1.000  He
  He10     1.0000 0.86935  0.59492  0.37920  Biso   1.000  He
  Ar5      1.0000 0.84366  0.66801  0.41349  Biso   1.000  Ar
  Ne6      1.0000 0.15736  0.32987  0.58558  Biso   1.000  Ne
  He11     1.0000 0.13085  0.40445  0.62050  Biso   1.000  He
  He12     1.0000 0.18491  0.26169  0.55190  Biso   1.000  He
  Ar6      1.0000 0.15640  0.33192  0.58640  Biso   1.000  Ar
  Ne7      1.0000 0.49069  0.99653  0.25225  Biso   1.000  Ne
  He13     1.0000 0.46419  0.07111  0.28717  Biso   1.000  He
  He14     1.0000 0.51824  0.92835  0.21857  Biso   1.000  He
  Ar7      1.0000 0.48965  0.99859  0.25312  Biso   1.000  Ar
  Ne8      1.0000 0.16083  0.82403  0.08108  Biso   1.000  Ne
  He15     1.0000 0.26512  0.84496  0.11358  Biso   1.000  He
  He16     1.0000 0.06529  0.79894  0.04809  Biso   1.000  He
  Ar8      1.0000 0.15779  0.82307  0.08025  Biso   1.000  Ar
  Ne9      1.0000 0.66319  0.83916  0.08108  Biso   1.000  Ne
  He17     1.0000 0.59435  0.74251  0.11509  Biso   1.000  He
  He18     1.0000 0.73734  0.93967  0.04637  Biso   1.000  He
  Ar9      1.0000 0.66525  0.84219  0.08026  Biso   1.000  Ar
  Ne10     1.0000 0.82750  0.15737  0.41442  Biso   1.000  Ne
  He19     1.0000 0.93179  0.17830  0.44691  Biso   1.000  He
  He20     1.0000 0.73195  0.13227  0.38142  Biso   1.000  He
  Ar10     1.0000 0.82715  0.15707  0.41448  Biso   1.000  Ar
  Ne11     1.0000 0.67013  0.82749  0.58558  Biso   1.000  Ne
  He21     1.0000 0.59421  0.72460  0.62113  Biso   1.000  He
  He22     1.0000 0.75216  0.92999  0.55370  Biso   1.000  He
  Ar11     1.0000 0.66806  0.82436  0.58647  Biso   1.000  Ar
  Ne12     1.0000 0.17250  0.84263  0.58558  Biso   1.000  Ne
  He23     1.0000 0.27154  0.86860  0.61979  Biso   1.000  He
  He24     1.0000 0.07544  0.82353  0.55550  Biso   1.000  He
  Ar12     1.0000 0.17559  0.84367  0.58645  Biso   1.000  Ar
  Ne13     1.0000 0.49416  0.49070  0.74775  Biso   1.000  Ne
  He25     1.0000 0.59845  0.51162  0.78023  Biso   1.000  He
  He26     1.0000 0.39862  0.46561  0.71476  Biso   1.000  He
  Ar13     1.0000 0.49103  0.48966  0.74684  Biso   1.000  Ar
  Ne14     1.0000 0.50930  0.00347  0.74775  Biso   1.000  Ne
  He27     1.0000 0.48078  0.07435  0.78267  Biso   1.000  He
  He28     1.0000 0.53602  0.92826  0.71254  Biso   1.000  He
  Ar14     1.0000 0.51026  0.00141  0.74692  Biso   1.000  Ar
  Ne15     1.0000 0.99653  0.50583  0.74775  Biso   1.000  Ne
  He29     1.0000 0.92771  0.40919  0.78175  Biso   1.000  He
  He30     1.0000 0.07067  0.60633  0.71303  Biso   1.000  He
  Ar15     1.0000 0.99858  0.50894  0.74686  Biso   1.000  Ar
  Ne16     1.0000 0.33680  0.16083  0.91891  Biso   1.000  Ne
  He31     1.0000 0.26088  0.05794  0.95446  Biso   1.000  He
  He32     1.0000 0.41881  0.26332  0.88702  Biso   1.000  He
  Ar16     1.0000 0.33473  0.15770  0.91981  Biso   1.000  Ar
  Ne17     1.0000 0.82403  0.66320  0.91891  Biso   1.000  Ne
  He33     1.0000 0.79752  0.73778  0.95384  Biso   1.000  He
  He34     1.0000 0.85158  0.59502  0.88524  Biso   1.000  He
  Ar17     1.0000 0.82299  0.66526  0.91979  Biso   1.000  Ar
  Ne18     1.0000 0.83917  0.17596  0.91891  Biso   1.000  Ne
  He35     1.0000 0.93821  0.20194  0.95313  Biso   1.000  He
  He36     1.0000 0.74211  0.15687  0.88884  Biso   1.000  He
  Ar18     1.0000 0.84227  0.17701  0.91979  Biso   1.000  Ar
