data_image0
_cell_length_a       31.334
_cell_length_b       31.334
_cell_length_c       27.064
_cell_angle_alpha    90
_cell_angle_beta     90
_cell_angle_gamma    120

_symmetry_space_group_name_H-M    "P 1"
_symmetry_int_tables_number       1

loop_
  _symmetry_equiv_pos_as_xyz
  'x, y, z'

loop_
  _atom_site_label
  _atom_site_occupancy
  _atom_site_fract_x
  _atom_site_fract_y
  _atom_site_fract_z
  _atom_site_thermal_displace_type
  _atom_site_B_iso_or_equiv
  _atom_site_type_symbol
  C1       1.0000 0.46924  0.44432  0.61196  Biso   1.000  C
  C2       1.0000 0.43114  0.40890  0.63996  Biso   1.000  C
  H1       1.0000 0.48140  0.43499  0.58521  Biso   1.000  H
  C3       1.0000 0.48924  0.49351  0.62382  Biso   1.000  C
  C4       1.0000 0.40614  0.35355  0.63346  Biso   1.000  C
  C5       1.0000 0.41190  0.42309  0.67969  Biso   1.000  C
  C6       1.0000 0.47035  0.50693  0.66261  Biso   1.000  C
  H2       1.0000 0.51538  0.51739  0.60549  Biso   1.000  H
  C7       1.0000 0.35146  0.33590  0.62770  Biso   1.000  C
  C8       1.0000 0.41109  0.33358  0.68338  Biso   1.000  C
  H3       1.0000 0.41961  0.34360  0.60601  Biso   1.000  H
  C9       1.0000 0.37030  0.37990  0.70647  Biso   1.000  C
  C10      1.0000 0.43135  0.47251  0.69129  Biso   1.000  C
  O1       1.0000 0.49459  0.55598  0.67935  Biso   1.000  O
  C11      1.0000 0.33211  0.35012  0.66683  Biso   1.000  C
  C12      1.0000 0.32086  0.30867  0.58897  Biso   1.000  C
  C13      1.0000 0.39138  0.34714  0.72240  Biso   1.000  C
  C14      1.0000 0.43261  0.30513  0.69214  Biso   1.000  C
  H4       1.0000 0.35681  0.38981  0.73400  Biso   1.000  H
  H5       1.0000 0.41879  0.48231  0.71730  Biso   1.000  H
  C15      1.0000 0.48576  0.59040  0.65977  Biso   1.000  C
  C16      1.0000 0.28335  0.33756  0.66723  Biso   1.000  C
  C17      1.0000 0.27153  0.29496  0.58923  Biso   1.000  C
  H6       1.0000 0.33370  0.29949  0.56259  Biso   1.000  H
  C18      1.0000 0.39194  0.33115  0.76973  Biso   1.000  C
  C19      1.0000 0.43277  0.28866  0.74032  Biso   1.000  C
  H7       1.0000 0.44689  0.29699  0.66638  Biso   1.000  H
  N1       1.0000 0.45406  0.57952  0.62408  Biso   1.000  N
  C20      1.0000 0.51286  0.63694  0.68279  Biso   1.000  C
  C21      1.0000 0.25298  0.30911  0.62796  Biso   1.000  C
  H8       1.0000 0.27068  0.34758  0.69291  Biso   1.000  H
  H9       1.0000 0.25110  0.27631  0.56341  Biso   1.000  H
  H10      1.0000 0.37880  0.34029  0.79571  Biso   1.000  H
  C22      1.0000 0.41226  0.30126  0.77830  Biso   1.000  C
  H11      1.0000 0.44679  0.26909  0.74649  Biso   1.000  H
  C23      1.0000 0.44583  0.61656  0.60867  Biso   1.000  C
  C24      1.0000 0.50358  0.67276  0.66960  Biso   1.000  C
  H12      1.0000 0.53660  0.64261  0.70651  Biso   1.000  H
  O2       1.0000 0.20297  0.29157  0.63520  Biso   1.000  O
  H13      1.0000 0.41199  0.28980  0.81012  Biso   1.000  H
  N2       1.0000 0.41410  0.60525  0.56998  Biso   1.000  N
  C25      1.0000 0.46887  0.66347  0.63184  Biso   1.000  C
  H14      1.0000 0.51981  0.70331  0.68512  Biso   1.000  H
  C26      1.0000 0.17140  0.28401  0.59644  Biso   1.000  C
  C27      1.0000 0.40543  0.63967  0.55520  Biso   1.000  C
  C28      1.0000 0.45547  0.69774  0.61539  Biso   1.000  C
  N3       1.0000 0.18847  0.30845  0.55494  Biso   1.000  N
  C29      1.0000 0.12197  0.24974  0.60689  Biso   1.000  C
  O3       1.0000 0.37474  0.63152  0.51548  Biso   1.000  O
  C30      1.0000 0.42334  0.68647  0.57674  Biso   1.000  C
  H15      1.0000 0.46848  0.72818  0.63091  Biso   1.000  H
  C31      1.0000 0.15464  0.29710  0.51799  Biso   1.000  C
  C32      1.0000 0.08887  0.23780  0.56969  Biso   1.000  C
  H16      1.0000 0.11219  0.23581  0.63812  Biso   1.000  H
  C33      1.0000 0.36938  0.59917  0.47776  Biso   1.000  C
  H17      1.0000 0.41390  0.70850  0.56540  Biso   1.000  H
  N4       1.0000 0.17308  0.32319  0.47539  Biso   1.000  N
  C34      1.0000 0.10495  0.26032  0.52306  Biso   1.000  C
  H18      1.0000 0.05582  0.21492  0.57490  Biso   1.000  H
  C35      1.0000 0.32305  0.57437  0.45614  Biso   1.000  C
  C36      1.0000 0.40818  0.59474  0.45950  Biso   1.000  C
  C37      1.0000 0.14232  0.31062  0.43870  Biso   1.000  C
  C38      1.0000 0.07437  0.24819  0.48116  Biso   1.000  C
  C39      1.0000 0.31559  0.54437  0.41579  Biso   1.000  C
  H19      1.0000 0.29731  0.57790  0.46870  Biso   1.000  H
  C40      1.0000 0.40053  0.56438  0.41897  Biso   1.000  C
  H20      1.0000 0.43910  0.61192  0.47421  Biso   1.000  H
  O4       1.0000 0.15779  0.33454  0.39466  Biso   1.000  O
  C41      1.0000 0.09297  0.27263  0.43859  Biso   1.000  C
  H21      1.0000 0.04149  0.22339  0.48289  Biso   1.000  H
  C42      1.0000 0.26795  0.51573  0.38653  Biso   1.000  C
  C43      1.0000 0.35400  0.53866  0.39758  Biso   1.000  C
  H22      1.0000 0.42639  0.56128  0.40619  Biso   1.000  H
  C44      1.0000 0.20584  0.37599  0.38985  Biso   1.000  C
  H23      1.0000 0.07380  0.26459  0.41010  Biso   1.000  H
  C45      1.0000 0.25575  0.46267  0.38546  Biso   1.000  C
  H24      1.0000 0.24099  0.51990  0.39939  Biso   1.000  H
  C46      1.0000 0.28224  0.53423  0.33310  Biso   1.000  C
  C47      1.0000 0.33942  0.50549  0.35246  Biso   1.000  C
  C48      1.0000 0.24301  0.36903  0.37389  Biso   1.000  C
  C49      1.0000 0.21115  0.42198  0.39687  Biso   1.000  C
  C50      1.0000 0.29457  0.45663  0.36735  Biso   1.000  C
  C51      1.0000 0.32045  0.52804  0.31481  Biso   1.000  C
  C52      1.0000 0.26069  0.55502  0.30420  Biso   1.000  C
  H25      1.0000 0.36651  0.50151  0.33971  Biso   1.000  H
  H26      1.0000 0.23821  0.33741  0.37071  Biso   1.000  H
  C53      1.0000 0.28812  0.40964  0.36247  Biso   1.000  C
  H27      1.0000 0.18529  0.42541  0.40899  Biso   1.000  H
  C54      1.0000 0.33640  0.54164  0.26674  Biso   1.000  C
  H28      1.0000 0.23538  0.55929  0.31651  Biso   1.000  H
  C55      1.0000 0.27831  0.56932  0.25591  Biso   1.000  C
  H29      1.0000 0.31401  0.40551  0.35161  Biso   1.000  H
  C56      1.0000 0.31490  0.56220  0.23758  Biso   1.000  C
  H30      1.0000 0.36131  0.53700  0.25399  Biso   1.000  H
  H31      1.0000 0.26490  0.58380  0.23600  Biso   1.000  H
  H32      1.0000 0.32551  0.57131  0.20522  Biso   1.000  H
  C57      1.0000 0.51076  0.50649  0.37618  Biso   1.000  C
  C58      1.0000 0.52965  0.49307  0.33739  Biso   1.000  C
  C59      1.0000 0.53076  0.55568  0.38804  Biso   1.000  C
  H33      1.0000 0.48462  0.48261  0.39451  Biso   1.000  H
  O5       1.0000 0.50541  0.44402  0.32065  Biso   1.000  O
  C60      1.0000 0.56865  0.52749  0.30871  Biso   1.000  C
  C61      1.0000 0.56886  0.59110  0.36004  Biso   1.000  C
  H34      1.0000 0.51860  0.56501  0.41479  Biso   1.000  H
  C62      1.0000 0.51424  0.40960  0.34023  Biso   1.000  C
  H35      1.0000 0.58121  0.51769  0.28270  Biso   1.000  H
  C63      1.0000 0.58810  0.57691  0.32031  Biso   1.000  C
  C64      1.0000 0.59386  0.64645  0.36654  Biso   1.000  C
  C65      1.0000 0.48714  0.36306  0.31721  Biso   1.000  C
  N5       1.0000 0.54594  0.42047  0.37592  Biso   1.000  N
  C66      1.0000 0.62970  0.62010  0.29353  Biso   1.000  C
  C67      1.0000 0.64854  0.66410  0.37230  Biso   1.000  C
  C68      1.0000 0.58891  0.66642  0.31662  Biso   1.000  C
  H36      1.0000 0.58038  0.65640  0.39399  Biso   1.000  H
  H37      1.0000 0.46340  0.35738  0.29349  Biso   1.000  H
  C69      1.0000 0.49642  0.32724  0.33040  Biso   1.000  C
  C70      1.0000 0.55417  0.38344  0.39133  Biso   1.000  C
  C71      1.0000 0.66789  0.64987  0.33317  Biso   1.000  C
  H38      1.0000 0.64319  0.61018  0.26600  Biso   1.000  H
  C72      1.0000 0.60861  0.65286  0.27760  Biso   1.000  C
  C73      1.0000 0.67916  0.69137  0.41103  Biso   1.000  C
  C74      1.0000 0.56739  0.69487  0.30786  Biso   1.000  C
  H39      1.0000 0.48019  0.29669  0.31488  Biso   1.000  H
  C75      1.0000 0.53113  0.33653  0.36816  Biso   1.000  C
  N6       1.0000 0.58590  0.39475  0.43002  Biso   1.000  N
  C76      1.0000 0.71665  0.66244  0.33277  Biso   1.000  C
  C77      1.0000 0.60806  0.66885  0.23027  Biso   1.000  C
  H40      1.0000 0.66630  0.70051  0.43741  Biso   1.000  H
  C78      1.0000 0.72847  0.70504  0.41077  Biso   1.000  C
  C79      1.0000 0.56723  0.71134  0.25968  Biso   1.000  C
  H41      1.0000 0.55311  0.70301  0.33362  Biso   1.000  H
  C80      1.0000 0.54453  0.30225  0.38461  Biso   1.000  C
  C81      1.0000 0.59457  0.36033  0.44480  Biso   1.000  C
  C82      1.0000 0.74702  0.69089  0.37204  Biso   1.000  C
  H42      1.0000 0.72932  0.65242  0.30709  Biso   1.000  H
  H43      1.0000 0.62120  0.65971  0.20429  Biso   1.000  H
  C83      1.0000 0.58774  0.69874  0.22170  Biso   1.000  C
  H44      1.0000 0.74890  0.72369  0.43659  Biso   1.000  H
  H45      1.0000 0.55321  0.73091  0.25351  Biso   1.000  H
  H46      1.0000 0.53152  0.27182  0.36909  Biso   1.000  H
  C84      1.0000 0.57666  0.31353  0.42326  Biso   1.000  C
  O6       1.0000 0.62526  0.36848  0.48452  Biso   1.000  O
  O7       1.0000 0.79703  0.70843  0.36480  Biso   1.000  O
  H47      1.0000 0.58801  0.71020  0.18988  Biso   1.000  H
  H48      1.0000 0.58610  0.29149  0.43460  Biso   1.000  H
  C85      1.0000 0.63062  0.40083  0.52224  Biso   1.000  C
  C86      1.0000 0.82860  0.71599  0.40356  Biso   1.000  C
  C87      1.0000 0.67695  0.42563  0.54386  Biso   1.000  C
  C88      1.0000 0.59182  0.40525  0.54050  Biso   1.000  C
  N7       1.0000 0.81153  0.69155  0.44506  Biso   1.000  N
  C89      1.0000 0.87803  0.75026  0.39311  Biso   1.000  C
  H49      1.0000 0.70269  0.42210  0.53130  Biso   1.000  H
  C90      1.0000 0.68441  0.45563  0.58421  Biso   1.000  C
  C91      1.0000 0.59947  0.43562  0.58103  Biso   1.000  C
  H50      1.0000 0.56089  0.38808  0.52579  Biso   1.000  H
  C92      1.0000 0.84536  0.70290  0.48201  Biso   1.000  C
  C93      1.0000 0.91113  0.76220  0.43031  Biso   1.000  C
  H51      1.0000 0.88781  0.76419  0.36188  Biso   1.000  H
  C94      1.0000 0.64600  0.46134  0.60242  Biso   1.000  C
  C95      1.0000 0.73205  0.48426  0.61347  Biso   1.000  C
  H52      1.0000 0.57361  0.43872  0.59381  Biso   1.000  H
  N8       1.0000 0.82692  0.67681  0.52461  Biso   1.000  N
  C96      1.0000 0.89505  0.73968  0.47694  Biso   1.000  C
  H53      1.0000 0.94420  0.78512  0.42510  Biso   1.000  H
  C97      1.0000 0.66058  0.49451  0.64754  Biso   1.000  C
  H54      1.0000 0.75901  0.48010  0.60061  Biso   1.000  H
  C98      1.0000 0.71775  0.46576  0.66690  Biso   1.000  C
  C99      1.0000 0.74425  0.53733  0.61454  Biso   1.000  C
  C100     1.0000 0.85768  0.68938  0.56130  Biso   1.000  C
  C101     1.0000 0.92562  0.75180  0.51884  Biso   1.000  C
  C102     1.0000 0.67955  0.47196  0.68519  Biso   1.000  C
  H55      1.0000 0.63349  0.49849  0.66029  Biso   1.000  H
  C103     1.0000 0.70543  0.54337  0.63265  Biso   1.000  C
  C104     1.0000 0.73931  0.44498  0.69580  Biso   1.000  C
  C105     1.0000 0.78885  0.57801  0.60313  Biso   1.000  C
  O8       1.0000 0.84221  0.66546  0.60534  Biso   1.000  O
  C106     1.0000 0.90703  0.72737  0.56141  Biso   1.000  C
  H56      1.0000 0.95851  0.77661  0.51711  Biso   1.000  H
  C107     1.0000 0.66359  0.45836  0.73326  Biso   1.000  C
  C108     1.0000 0.71188  0.59036  0.63753  Biso   1.000  C
  H57      1.0000 0.76462  0.44071  0.68349  Biso   1.000  H
  C109     1.0000 0.72169  0.43068  0.74409  Biso   1.000  C
  H58      1.0000 0.81471  0.57459  0.59101  Biso   1.000  H
  C110     1.0000 0.79416  0.62400  0.61015  Biso   1.000  C
  H59      1.0000 0.92620  0.73541  0.58990  Biso   1.000  H
  C111     1.0000 0.68510  0.43779  0.76242  Biso   1.000  C
  H60      1.0000 0.63869  0.46300  0.74601  Biso   1.000  H
  C112     1.0000 0.75699  0.63097  0.62611  Biso   1.000  C
  H61      1.0000 0.68599  0.59449  0.64839  Biso   1.000  H
  H62      1.0000 0.73510  0.41620  0.76400  Biso   1.000  H
  H63      1.0000 0.67449  0.42869  0.79478  Biso   1.000  H
  H64      1.0000 0.76178  0.66259  0.62929  Biso   1.000  H
  C113     1.0000 0.38753  0.38329  0.33391  Biso   1.000  C
  C114     1.0000 0.35134  0.33457  0.33351  Biso   1.000  C
  C115     1.0000 0.38946  0.41369  0.29460  Biso   1.000  C
  H65      1.0000 0.41025  0.39597  0.35956  Biso   1.000  H
  C116     1.0000 0.31774  0.31519  0.29434  Biso   1.000  C
  C117     1.0000 0.34292  0.29636  0.37312  Biso   1.000  C
  C118     1.0000 0.35677  0.39516  0.25591  Biso   1.000  C
  O9       1.0000 0.42193  0.46370  0.30188  Biso   1.000  O
  C119     1.0000 0.28075  0.26054  0.30014  Biso   1.000  C
  C120     1.0000 0.32112  0.34581  0.25565  Biso   1.000  C
  C121     1.0000 0.28907  0.27528  0.38908  Biso   1.000  C
  C122     1.0000 0.34452  0.25475  0.34636  Biso   1.000  C
  H66      1.0000 0.36634  0.30988  0.40068  Biso   1.000  H
  H67      1.0000 0.35855  0.41557  0.23008  Biso   1.000  H
  C123     1.0000 0.44594  0.49525  0.26308  Biso   1.000  C
  C124     1.0000 0.25582  0.25556  0.35002  Biso   1.000  C
  H68      1.0000 0.25731  0.24705  0.27265  Biso   1.000  H
  C125     1.0000 0.31109  0.23552  0.30664  Biso   1.000  C
  H69      1.0000 0.29911  0.33295  0.22927  Biso   1.000  H
  C126     1.0000 0.27255  0.27473  0.43637  Biso   1.000  C
  C127     1.0000 0.37451  0.23533  0.35793  Biso   1.000  C
  N9       1.0000 0.45330  0.47818  0.22162  Biso   1.000  N
  C128     1.0000 0.46112  0.54470  0.27357  Biso   1.000  C
  C129     1.0000 0.20584  0.23404  0.35878  Biso   1.000  C
  C130     1.0000 0.30838  0.19741  0.27864  Biso   1.000  C
  H70      1.0000 0.29483  0.28788  0.46235  Biso   1.000  H
  C131     1.0000 0.22233  0.25438  0.44498  Biso   1.000  C
  C132     1.0000 0.36990  0.19631  0.32929  Biso   1.000  C
  H71      1.0000 0.39683  0.24786  0.38398  Biso   1.000  H
  C133     1.0000 0.47577  0.51201  0.18467  Biso   1.000  C
  C134     1.0000 0.48230  0.57779  0.23633  Biso   1.000  C
  H72      1.0000 0.45694  0.55447  0.30476  Biso   1.000  H
  C135     1.0000 0.18920  0.23390  0.40696  Biso   1.000  C
  H73      1.0000 0.18345  0.21978  0.33306  Biso   1.000  H
  H74      1.0000 0.28692  0.18525  0.25188  Biso   1.000  H
  C136     1.0000 0.33762  0.17744  0.29046  Biso   1.000  C
  H75      1.0000 0.21115  0.25468  0.47676  Biso   1.000  H
  O10      1.0000 0.39472  0.17210  0.34599  Biso   1.000  O
  N10      1.0000 0.48344  0.49359  0.14207  Biso   1.000  N
  C137     1.0000 0.48870  0.56169  0.18974  Biso   1.000  C
  H76      1.0000 0.49243  0.61089  0.24158  Biso   1.000  H
  H77      1.0000 0.15563  0.21986  0.41317  Biso   1.000  H
  H78      1.0000 0.33532  0.15127  0.27217  Biso   1.000  H
  C138     1.0000 0.43800  0.18090  0.32641  Biso   1.000  C
  C139     1.0000 0.50161  0.52432  0.10534  Biso   1.000  C
  C140     1.0000 0.50712  0.59228  0.14783  Biso   1.000  C
  N11      1.0000 0.45879  0.21260  0.29072  Biso   1.000  N
  C141     1.0000 0.45740  0.15378  0.34947  Biso   1.000  C
  O11      1.0000 0.51005  0.50884  0.06134  Biso   1.000  O
  C142     1.0000 0.51300  0.57370  0.10527  Biso   1.000  C
  H79      1.0000 0.51525  0.62518  0.14957  Biso   1.000  H
  C143     1.0000 0.50404  0.22081  0.27531  Biso   1.000  C
  H80      1.0000 0.43931  0.13005  0.37315  Biso   1.000  H
  C144     1.0000 0.50253  0.16310  0.33628  Biso   1.000  C
  C145     1.0000 0.50347  0.46083  0.05653  Biso   1.000  C
  H81      1.0000 0.52414  0.59286  0.07678  Biso   1.000  H
  N12      1.0000 0.52448  0.25258  0.23662  Biso   1.000  N
  C146     1.0000 0.52795  0.19778  0.29851  Biso   1.000  C
  H82      1.0000 0.51681  0.14685  0.35176  Biso   1.000  H
  C147     1.0000 0.54416  0.45552  0.06355  Biso   1.000  C
  C148     1.0000 0.45937  0.42368  0.04057  Biso   1.000  C
  C149     1.0000 0.56756  0.26124  0.22184  Biso   1.000  C
  C150     1.0000 0.57563  0.21120  0.28207  Biso   1.000  C
  C151     1.0000 0.54028  0.41093  0.05214  Biso   1.000  C
  H83      1.0000 0.57341  0.48135  0.07567  Biso   1.000  H
  H84      1.0000 0.43253  0.42847  0.03736  Biso   1.000  H
  C152     1.0000 0.45488  0.37857  0.02915  Biso   1.000  C
  O12      1.0000 0.59010  0.29190  0.18216  Biso   1.000  O
  C153     1.0000 0.59645  0.24333  0.24342  Biso   1.000  C
  H85      1.0000 0.59301  0.19815  0.29755  Biso   1.000  H
  C154     1.0000 0.58112  0.39873  0.05317  Biso   1.000  C
  C155     1.0000 0.49541  0.37213  0.03403  Biso   1.000  C
  H86      1.0000 0.42482  0.35267  0.01825  Biso   1.000  H
  C156     1.0000 0.56311  0.29728  0.14444  Biso   1.000  C
  H87      1.0000 0.62795  0.25276  0.23208  Biso   1.000  H
  C157     1.0000 0.56212  0.35108  0.08247  Biso   1.000  C
  H88      1.0000 0.61224  0.42567  0.06607  Biso   1.000  H
  C158     1.0000 0.58534  0.38443  0.99978  Biso   1.000  C
  C159     1.0000 0.49939  0.32724  0.01914  Biso   1.000  C
  C160     1.0000 0.58461  0.34360  0.12282  Biso   1.000  C
  C161     1.0000 0.51992  0.25851  0.12618  Biso   1.000  C
  C162     1.0000 0.51803  0.31268  0.06422  Biso   1.000  C
  C163     1.0000 0.62766  0.40595  0.97088  Biso   1.000  C
  C164     1.0000 0.54092  0.34622  0.98149  Biso   1.000  C
  H89      1.0000 0.46833  0.30015  0.00636  Biso   1.000  H
  H90      1.0000 0.61393  0.36936  0.13538  Biso   1.000  H
  C165     1.0000 0.49718  0.26614  0.08565  Biso   1.000  C
  H91      1.0000 0.50613  0.22756  0.14085  Biso   1.000  H
  H92      1.0000 0.65723  0.43127  0.98315  Biso   1.000  H
  C166     1.0000 0.62433  0.38838  0.92255  Biso   1.000  C
  C167     1.0000 0.53856  0.33026  0.93338  Biso   1.000  C
  H93      1.0000 0.46822  0.24027  0.07286  Biso   1.000  H
  H94      1.0000 0.65224  0.40175  0.90268  Biso   1.000  H
  C168     1.0000 0.58063  0.35178  0.90426  Biso   1.000  C
  H95      1.0000 0.50903  0.30535  0.92067  Biso   1.000  H
  H96      1.0000 0.57915  0.34117  0.87186  Biso   1.000  H
  O13      1.0000 0.57807  0.53630  0.69812  Biso   1.000  O
  C169     1.0000 0.55406  0.50475  0.73692  Biso   1.000  C
  C170     1.0000 0.61054  0.58631  0.70540  Biso   1.000  C
  C171     1.0000 0.53888  0.45530  0.72643  Biso   1.000  C
  N13      1.0000 0.54670  0.52182  0.77838  Biso   1.000  N
  C172     1.0000 0.61246  0.61671  0.66609  Biso   1.000  C
  C173     1.0000 0.64323  0.60484  0.74409  Biso   1.000  C
  C174     1.0000 0.51770  0.42221  0.76367  Biso   1.000  C
  H97      1.0000 0.54306  0.44553  0.69524  Biso   1.000  H
  C175     1.0000 0.52423  0.48799  0.81533  Biso   1.000  C
  H98      1.0000 0.58975  0.60403  0.64044  Biso   1.000  H
  C176     1.0000 0.64866  0.66543  0.66649  Biso   1.000  C
  C177     1.0000 0.67888  0.65419  0.74435  Biso   1.000  C
  H99      1.0000 0.64145  0.58443  0.76992  Biso   1.000  H
  C178     1.0000 0.51130  0.43831  0.81026  Biso   1.000  C
  H100     1.0000 0.50759  0.38915  0.75842  Biso   1.000  H
  N14      1.0000 0.51656  0.50641  0.85793  Biso   1.000  N
  C179     1.0000 0.68226  0.68481  0.70566  Biso   1.000  C
  C180     1.0000 0.65708  0.70364  0.62688  Biso   1.000  C
  H101     1.0000 0.70089  0.66705  0.77073  Biso   1.000  H
  C181     1.0000 0.49288  0.40772  0.85217  Biso   1.000  C
  C182     1.0000 0.49839  0.47568  0.89466  Biso   1.000  C
  C183     1.0000 0.71925  0.73946  0.69986  Biso   1.000  C
  H102     1.0000 0.63366  0.69012  0.59932  Biso   1.000  H
  C184     1.0000 0.71093  0.72472  0.61092  Biso   1.000  C
  C185     1.0000 0.65548  0.74525  0.65364  Biso   1.000  C
  C186     1.0000 0.48700  0.42630  0.89473  Biso   1.000  C
  H103     1.0000 0.48475  0.37482  0.85043  Biso   1.000  H
  O14      1.0000 0.48994  0.49115  0.93866  Biso   1.000  O
  C187     1.0000 0.74418  0.74443  0.64998  Biso   1.000  C
  H104     1.0000 0.74269  0.75295  0.72735  Biso   1.000  H
  C188     1.0000 0.68890  0.76448  0.69336  Biso   1.000  C
  C189     1.0000 0.72745  0.72527  0.56363  Biso   1.000  C
  C190     1.0000 0.62549  0.76467  0.64207  Biso   1.000  C
  H105     1.0000 0.47586  0.40713  0.92322  Biso   1.000  H
  C191     1.0000 0.49653  0.53917  0.94347  Biso   1.000  C
  C192     1.0000 0.79416  0.76596  0.64122  Biso   1.000  C
  C193     1.0000 0.69162  0.80259  0.72136  Biso   1.000  C
  H106     1.0000 0.70517  0.71212  0.53765  Biso   1.000  H
  C194     1.0000 0.77767  0.74561  0.55502  Biso   1.000  C
  C195     1.0000 0.63010  0.80369  0.67071  Biso   1.000  C
  H107     1.0000 0.60317  0.75214  0.61602  Biso   1.000  H
  C196     1.0000 0.45584  0.54448  0.93645  Biso   1.000  C
  C197     1.0000 0.54063  0.57632  0.95943  Biso   1.000  C
  C198     1.0000 0.81080  0.76610  0.59304  Biso   1.000  C
  H108     1.0000 0.81655  0.78022  0.66694  Biso   1.000  H
  H109     1.0000 0.71308  0.81475  0.74812  Biso   1.000  H
  C199     1.0000 0.66238  0.82256  0.70954  Biso   1.000  C
  H110     1.0000 0.78885  0.74532  0.52324  Biso   1.000  H
  O15      1.0000 0.60528  0.82790  0.65401  Biso   1.000  O
  C200     1.0000 0.45972  0.58907  0.94786  Biso   1.000  C
  H111     1.0000 0.42659  0.51865  0.92433  Biso   1.000  H
  H112     1.0000 0.56747  0.57153  0.96264  Biso   1.000  H
  C201     1.0000 0.54512  0.62142  0.97085  Biso   1.000  C
  H113     1.0000 0.84437  0.78014  0.58683  Biso   1.000  H
  H114     1.0000 0.66468  0.84872  0.72783  Biso   1.000  H
  C202     1.0000 0.56200  0.81910  0.67359  Biso   1.000  C
  C203     1.0000 0.41888  0.60127  0.94683  Biso   1.000  C
  C204     1.0000 0.50459  0.62787  0.96597  Biso   1.000  C
  H115     1.0000 0.57518  0.64733  0.98175  Biso   1.000  H
  N15      1.0000 0.54121  0.78740  0.70928  Biso   1.000  N
  C205     1.0000 0.54260  0.84622  0.65053  Biso   1.000  C
  C206     1.0000 0.43788  0.64892  0.91753  Biso   1.000  C
  H116     1.0000 0.38776  0.57433  0.93393  Biso   1.000  H
  C207     1.0000 0.41466  0.61557  0.00022  Biso   1.000  C
  C208     1.0000 0.50061  0.67276  0.98086  Biso   1.000  C
  C209     1.0000 0.49596  0.77919  0.72469  Biso   1.000  C
  H117     1.0000 0.56069  0.86995  0.62685  Biso   1.000  H
  C210     1.0000 0.49747  0.83689  0.66372  Biso   1.000  C
  C211     1.0000 0.41539  0.65640  0.87718  Biso   1.000  C
  C212     1.0000 0.48199  0.68735  0.93578  Biso   1.000  C
  C213     1.0000 0.37234  0.59404  0.02912  Biso   1.000  C
  C214     1.0000 0.45908  0.65378  0.01851  Biso   1.000  C
  H118     1.0000 0.53167  0.69984  0.99364  Biso   1.000  H
  N16      1.0000 0.47552  0.74742  0.76338  Biso   1.000  N
  C215     1.0000 0.47205  0.80222  0.70149  Biso   1.000  C
  H119     1.0000 0.48319  0.85315  0.64824  Biso   1.000  H
  C216     1.0000 0.43689  0.70272  0.85556  Biso   1.000  C
  H120     1.0000 0.38607  0.63064  0.86462  Biso   1.000  H
  C217     1.0000 0.50282  0.73386  0.91435  Biso   1.000  C
  H121     1.0000 0.34277  0.56873  0.01685  Biso   1.000  H
  C218     1.0000 0.37567  0.61162  0.07745  Biso   1.000  C
  C219     1.0000 0.46144  0.66974  0.06662  Biso   1.000  C
  C220     1.0000 0.43244  0.73876  0.77816  Biso   1.000  C
  C221     1.0000 0.42437  0.78880  0.71793  Biso   1.000  C
  O16      1.0000 0.40990  0.70810  0.81784  Biso   1.000  O
  C222     1.0000 0.48008  0.74149  0.87382  Biso   1.000  C
  H122     1.0000 0.53178  0.75973  0.92714  Biso   1.000  H
  H123     1.0000 0.34776  0.59824  0.09732  Biso   1.000  H
  C223     1.0000 0.41937  0.64822  0.09574  Biso   1.000  C
  H124     1.0000 0.49097  0.69465  0.07933  Biso   1.000  H
  C224     1.0000 0.40355  0.75667  0.75658  Biso   1.000  C
  H125     1.0000 0.40699  0.80185  0.70245  Biso   1.000  H
  H126     1.0000 0.49387  0.77244  0.85915  Biso   1.000  H
  H127     1.0000 0.42085  0.65883  0.12814  Biso   1.000  H
  H128     1.0000 0.37205  0.74724  0.76792  Biso   1.000  H
  C225     1.0000 0.33940  0.50251  0.66372  Biso   1.000  C
  C226     1.0000 0.30360  0.45740  0.65053  Biso   1.000  C
  C227     1.0000 0.33016  0.52793  0.70149  Biso   1.000  C
  H129     1.0000 0.36996  0.51684  0.64824  Biso   1.000  H
  C228     1.0000 0.25706  0.43798  0.67359  Biso   1.000  C
  H130     1.0000 0.30929  0.43934  0.62685  Biso   1.000  H
  C229     1.0000 0.28324  0.50405  0.72469  Biso   1.000  C
  C230     1.0000 0.36440  0.57562  0.71793  Biso   1.000  C
  O17      1.0000 0.22263  0.39471  0.65401  Biso   1.000  O
  N17      1.0000 0.24619  0.45880  0.70928  Biso   1.000  N
  N18      1.0000 0.27190  0.52447  0.76338  Biso   1.000  N
  C231     1.0000 0.35313  0.59648  0.75658  Biso   1.000  C
  H131     1.0000 0.39488  0.59305  0.70245  Biso   1.000  H
  C232     1.0000 0.17360  0.36991  0.67071  Biso   1.000  C
  C233     1.0000 0.30632  0.56758  0.77816  Biso   1.000  C
  H132     1.0000 0.37519  0.62795  0.76792  Biso   1.000  H
  C234     1.0000 0.16015  0.33760  0.70954  Biso   1.000  C
  C235     1.0000 0.13917  0.37452  0.64207  Biso   1.000  C
  O18      1.0000 0.29818  0.59010  0.81784  Biso   1.000  O
  C236     1.0000 0.11099  0.30841  0.72136  Biso   1.000  C
  H133     1.0000 0.18408  0.33535  0.72783  Biso   1.000  H
  H134     1.0000 0.14897  0.39682  0.61602  Biso   1.000  H
  C237     1.0000 0.08976  0.34452  0.65364  Biso   1.000  C
  C238     1.0000 0.26586  0.56313  0.85556  Biso   1.000  C
  C239     1.0000 0.07557  0.31110  0.69336  Biso   1.000  C
  H135     1.0000 0.10165  0.28692  0.74812  Biso   1.000  H
  C240     1.0000 0.04659  0.34294  0.62688  Biso   1.000  C
  C241     1.0000 0.24104  0.58465  0.87718  Biso   1.000  C
  C242     1.0000 0.26142  0.51990  0.87382  Biso   1.000  C
  C243     1.0000 0.02021  0.28073  0.69986  Biso   1.000  C
  C244     1.0000 0.01677  0.35134  0.66649  Biso   1.000  C
  H136     1.0000 0.05647  0.36634  0.59932  Biso   1.000  H
  C245     1.0000 0.01380  0.28910  0.61092  Biso   1.000  C
  H137     1.0000 0.24458  0.61394  0.86462  Biso   1.000  H
  C246     1.0000 0.21105  0.56213  0.91753  Biso   1.000  C
  C247     1.0000 0.23108  0.49720  0.91435  Biso   1.000  C
  H138     1.0000 0.27856  0.50612  0.85915  Biso   1.000  H
  C248     1.0000 0.00257  0.31777  0.70566  Biso   1.000  C
  C249     1.0000 0.00025  0.25582  0.64998  Biso   1.000  C
  H139     1.0000 0.01026  0.25733  0.72735  Biso   1.000  H
  C250     1.0000 0.00423  0.38753  0.66609  Biso   1.000  C
  C251     1.0000 0.99783  0.27255  0.56363  Biso   1.000  C
  C252     1.0000 0.20533  0.51802  0.93578  Biso   1.000  C
  C253     1.0000 0.18240  0.58111  0.94683  Biso   1.000  C
  H140     1.0000 0.22796  0.46823  0.92714  Biso   1.000  H
  C254     1.0000 0.97530  0.32112  0.74435  Biso   1.000  C
  C255     1.0000 0.97179  0.20585  0.64122  Biso   1.000  C
  H141     1.0000 0.01427  0.41023  0.64044  Biso   1.000  H
  C256     1.0000 0.97579  0.38945  0.70540  Biso   1.000  C
  H142     1.0000 0.00697  0.29485  0.53765  Biso   1.000  H
  C257     1.0000 0.96793  0.22232  0.55502  Biso   1.000  C
  C258     1.0000 0.17219  0.49941  0.98086  Biso   1.000  C
  H143     1.0000 0.18657  0.61225  0.93393  Biso   1.000  H
  C259     1.0000 0.12933  0.54028  0.94786  Biso   1.000  C
  C260     1.0000 0.20092  0.58535  0.00022  Biso   1.000  C
  H144     1.0000 0.96615  0.29912  0.77073  Biso   1.000  H
  C261     1.0000 0.96162  0.35676  0.74409  Biso   1.000  C
  C262     1.0000 0.95531  0.18923  0.59304  Biso   1.000  C
  H145     1.0000 0.96368  0.18345  0.66694  Biso   1.000  H
  O19      1.0000 0.95825  0.42195  0.69812  Biso   1.000  O
  H146     1.0000 0.95646  0.21112  0.52324  Biso   1.000  H
  H147     1.0000 0.16817  0.46834  0.99364  Biso   1.000  H
  C263     1.0000 0.12326  0.49539  0.96597  Biso   1.000  C
  C264     1.0000 0.19471  0.54094  0.01851  Biso   1.000  C
  C265     1.0000 0.08863  0.54415  0.93645  Biso   1.000  C
  C266     1.0000 0.22169  0.62765  0.02912  Biso   1.000  C
  H148     1.0000 0.94297  0.35853  0.76992  Biso   1.000  H
  H149     1.0000 0.93576  0.15562  0.58683  Biso   1.000  H
  C267     1.0000 0.95068  0.44594  0.73692  Biso   1.000  C
  C268     1.0000 0.07628  0.45486  0.97085  Biso   1.000  C
  C269     1.0000 0.20830  0.53858  0.06662  Biso   1.000  C
  H150     1.0000 0.09208  0.57344  0.92433  Biso   1.000  H
  C270     1.0000 0.04266  0.50346  0.94347  Biso   1.000  C
  H151     1.0000 0.22599  0.65724  0.01685  Biso   1.000  H
  C271     1.0000 0.23596  0.62434  0.07745  Biso   1.000  C
  N19      1.0000 0.97514  0.45331  0.77838  Biso   1.000  N
  C272     1.0000 0.91640  0.46112  0.72643  Biso   1.000  C
  C273     1.0000 0.03570  0.45935  0.95943  Biso   1.000  C
  H152     1.0000 0.07215  0.42482  0.98175  Biso   1.000  H
  C274     1.0000 0.22888  0.58063  0.09574  Biso   1.000  C
  H153     1.0000 0.20367  0.50903  0.07933  Biso   1.000  H
  O20      1.0000 0.00122  0.51006  0.93866  Biso   1.000  O
  H154     1.0000 0.25048  0.65223  0.09732  Biso   1.000  H
  C275     1.0000 0.96375  0.47579  0.81533  Biso   1.000  C
  C276     1.0000 0.90447  0.48227  0.76367  Biso   1.000  C
  H155     1.0000 0.90246  0.45692  0.69524  Biso   1.000  H
  H156     1.0000 0.00406  0.43252  0.96264  Biso   1.000  H
  H157     1.0000 0.23795  0.57912  0.12814  Biso   1.000  H
  C277     1.0000 0.97731  0.50162  0.89466  Biso   1.000  C
  N20      1.0000 0.98986  0.48345  0.85793  Biso   1.000  N
  C278     1.0000 0.92699  0.48869  0.81026  Biso   1.000  C
  H158     1.0000 0.88157  0.49244  0.75842  Biso   1.000  H
  C279     1.0000 0.93926  0.51297  0.89473  Biso   1.000  C
  C280     1.0000 0.91487  0.50715  0.85217  Biso   1.000  C
  H159     1.0000 0.93128  0.52414  0.92322  Biso   1.000  H
  H160     1.0000 0.89005  0.51522  0.85043  Biso   1.000  H
  C281     1.0000 0.66060  0.49749  0.33628  Biso   1.000  C
  C282     1.0000 0.66984  0.47207  0.29851  Biso   1.000  C
  C283     1.0000 0.69640  0.54260  0.34947  Biso   1.000  C
  H161     1.0000 0.63004  0.48316  0.35176  Biso   1.000  H
  C284     1.0000 0.63560  0.42438  0.28207  Biso   1.000  C
  C285     1.0000 0.71676  0.49595  0.27531  Biso   1.000  C
  C286     1.0000 0.74294  0.56202  0.32641  Biso   1.000  C
  H162     1.0000 0.69071  0.56066  0.37315  Biso   1.000  H
  H163     1.0000 0.60512  0.40695  0.29755  Biso   1.000  H
  C287     1.0000 0.64687  0.40352  0.24342  Biso   1.000  C
  N21      1.0000 0.75381  0.54120  0.29072  Biso   1.000  N
  N22      1.0000 0.72809  0.47553  0.23662  Biso   1.000  N
  O21      1.0000 0.77737  0.60528  0.34599  Biso   1.000  O
  H164     1.0000 0.62481  0.37205  0.23208  Biso   1.000  H
  C288     1.0000 0.69368  0.43241  0.22184  Biso   1.000  C
  C289     1.0000 0.82640  0.63008  0.32929  Biso   1.000  C
  O22      1.0000 0.70182  0.40990  0.18216  Biso   1.000  O
  C290     1.0000 0.83985  0.66240  0.29046  Biso   1.000  C
  C291     1.0000 0.86085  0.62551  0.35793  Biso   1.000  C
  C292     1.0000 0.73414  0.43687  0.14444  Biso   1.000  C
  C293     1.0000 0.88901  0.69159  0.27864  Biso   1.000  C
  H165     1.0000 0.81592  0.66465  0.27217  Biso   1.000  H
  H166     1.0000 0.85103  0.60318  0.38398  Biso   1.000  H
  C294     1.0000 0.91024  0.65548  0.34636  Biso   1.000  C
  C295     1.0000 0.75896  0.41535  0.12282  Biso   1.000  C
  C296     1.0000 0.73858  0.48010  0.12618  Biso   1.000  C
  C297     1.0000 0.92443  0.68890  0.30664  Biso   1.000  C
  H167     1.0000 0.89834  0.71307  0.25188  Biso   1.000  H
  C298     1.0000 0.95341  0.65706  0.37312  Biso   1.000  C
  H168     1.0000 0.75542  0.38605  0.13538  Biso   1.000  H
  C299     1.0000 0.78897  0.43790  0.08247  Biso   1.000  C
  C300     1.0000 0.76892  0.50280  0.08565  Biso   1.000  C
  H169     1.0000 0.72144  0.49388  0.14085  Biso   1.000  H
  C301     1.0000 0.97979  0.71926  0.30014  Biso   1.000  C
  C302     1.0000 0.98323  0.64866  0.33351  Biso   1.000  C
  H170     1.0000 0.94353  0.63366  0.40068  Biso   1.000  H
  C303     1.0000 0.98620  0.71090  0.38908  Biso   1.000  C
  C304     1.0000 0.79467  0.48198  0.06422  Biso   1.000  C
  C305     1.0000 0.81760  0.41889  0.05317  Biso   1.000  C
  H171     1.0000 0.77204  0.53177  0.07286  Biso   1.000  H
  C306     1.0000 0.99743  0.68223  0.29434  Biso   1.000  C
  C307     1.0000 0.99975  0.74418  0.35002  Biso   1.000  C
  H172     1.0000 0.98973  0.74267  0.27265  Biso   1.000  H
  C308     1.0000 0.99577  0.61247  0.33391  Biso   1.000  C
  C309     1.0000 0.00217  0.72745  0.43637  Biso   1.000  C
  C310     1.0000 0.82781  0.50059  0.01914  Biso   1.000  C
  H173     1.0000 0.81343  0.38775  0.06607  Biso   1.000  H
  C311     1.0000 0.87067  0.45972  0.05214  Biso   1.000  C
  C312     1.0000 0.79908  0.41465  0.99978  Biso   1.000  C
  C313     1.0000 0.02470  0.67888  0.25565  Biso   1.000  C
  C314     1.0000 0.02823  0.79418  0.35878  Biso   1.000  C
  H174     1.0000 0.98573  0.58977  0.35956  Biso   1.000  H
  C315     1.0000 0.02421  0.61055  0.29460  Biso   1.000  C
  H175     1.0000 0.99303  0.70515  0.46235  Biso   1.000  H
  C316     1.0000 0.03207  0.77767  0.44498  Biso   1.000  C
  H176     1.0000 0.83183  0.53165  0.00636  Biso   1.000  H
  C317     1.0000 0.87674  0.50461  0.03403  Biso   1.000  C
  C318     1.0000 0.80531  0.45909  0.98149  Biso   1.000  C
  C319     1.0000 0.91137  0.45585  0.06355  Biso   1.000  C
  C320     1.0000 0.77831  0.37235  0.97088  Biso   1.000  C
  H177     1.0000 0.03385  0.70088  0.22927  Biso   1.000  H
  C321     1.0000 0.03838  0.64324  0.25591  Biso   1.000  C
  C322     1.0000 0.04471  0.81080  0.40696  Biso   1.000  C
  H178     1.0000 0.03632  0.81655  0.33306  Biso   1.000  H
  O23      1.0000 0.04175  0.57805  0.30188  Biso   1.000  O
  H179     1.0000 0.04354  0.78888  0.47676  Biso   1.000  H
  C323     1.0000 0.92372  0.54514  0.02915  Biso   1.000  C
  C324     1.0000 0.79170  0.46142  0.93338  Biso   1.000  C
  H180     1.0000 0.90792  0.42655  0.07567  Biso   1.000  H
  C325     1.0000 0.95734  0.49654  0.05653  Biso   1.000  C
  H181     1.0000 0.77401  0.34275  0.98315  Biso   1.000  H
  C326     1.0000 0.76404  0.37566  0.92255  Biso   1.000  C
  H182     1.0000 0.05703  0.64147  0.23008  Biso   1.000  H
  H183     1.0000 0.06424  0.84438  0.41317  Biso   1.000  H
  C327     1.0000 0.04932  0.55406  0.26308  Biso   1.000  C
  C328     1.0000 0.96430  0.54065  0.04057  Biso   1.000  C
  H184     1.0000 0.92785  0.57518  0.01825  Biso   1.000  H
  C329     1.0000 0.77112  0.41937  0.90426  Biso   1.000  C
  H185     1.0000 0.79632  0.49097  0.92067  Biso   1.000  H
  O24      1.0000 0.99878  0.48994  0.06134  Biso   1.000  O
  H186     1.0000 0.74952  0.34777  0.90268  Biso   1.000  H
  N23      1.0000 0.02486  0.54669  0.22162  Biso   1.000  N
  C330     1.0000 0.08360  0.53888  0.27357  Biso   1.000  C
  H187     1.0000 0.99593  0.56747  0.03736  Biso   1.000  H
  H188     1.0000 0.76204  0.42088  0.87186  Biso   1.000  H
  C331     1.0000 0.02269  0.49838  0.10534  Biso   1.000  C
  C332     1.0000 0.03625  0.52421  0.18467  Biso   1.000  C
  C333     1.0000 0.09553  0.51772  0.23633  Biso   1.000  C
  H189     1.0000 0.09754  0.54308  0.30476  Biso   1.000  H
  N24      1.0000 0.01014  0.51655  0.14207  Biso   1.000  N
  C334     1.0000 0.06074  0.48703  0.10527  Biso   1.000  C
  C335     1.0000 0.07301  0.51131  0.18974  Biso   1.000  C
  H190     1.0000 0.11843  0.50755  0.24158  Biso   1.000  H
  H191     1.0000 0.06872  0.47586  0.07678  Biso   1.000  H
  C336     1.0000 0.08513  0.49285  0.14783  Biso   1.000  C
  H192     1.0000 0.10995  0.48478  0.14957  Biso   1.000  H
  C337     1.0000 0.42197  0.21083  0.60313  Biso   1.000  C
  C338     1.0000 0.37600  0.17014  0.61015  Biso   1.000  C
  C339     1.0000 0.46265  0.20692  0.61454  Biso   1.000  C
  H193     1.0000 0.42540  0.24009  0.59101  Biso   1.000  H
  O25      1.0000 0.33456  0.17674  0.60534  Biso   1.000  O
  C340     1.0000 0.36904  0.12603  0.62611  Biso   1.000  C
  C341     1.0000 0.51574  0.24779  0.61347  Biso   1.000  C
  C342     1.0000 0.45660  0.16207  0.63265  Biso   1.000  C
  C343     1.0000 0.31065  0.16830  0.56130  Biso   1.000  C
  H194     1.0000 0.33740  0.09920  0.62929  Biso   1.000  H
  C344     1.0000 0.40962  0.12154  0.63753  Biso   1.000  C
  C345     1.0000 0.54437  0.22877  0.58421  Biso   1.000  C
  H195     1.0000 0.51989  0.27889  0.60061  Biso   1.000  H
  C346     1.0000 0.53426  0.25203  0.66690  Biso   1.000  C
  C347     1.0000 0.50551  0.16605  0.64754  Biso   1.000  C
  C348     1.0000 0.27260  0.17965  0.56141  Biso   1.000  C
  N25      1.0000 0.32318  0.15010  0.52461  Biso   1.000  N
  H196     1.0000 0.40549  0.09150  0.64839  Biso   1.000  H
  C349     1.0000 0.57436  0.25129  0.54386  Biso   1.000  C
  C350     1.0000 0.53865  0.18466  0.60242  Biso   1.000  C
  C351     1.0000 0.55503  0.29433  0.69580  Biso   1.000  C
  C352     1.0000 0.52803  0.20758  0.68519  Biso   1.000  C
  H197     1.0000 0.50149  0.13499  0.66029  Biso   1.000  H
  C353     1.0000 0.24819  0.17379  0.51884  Biso   1.000  C
  H198     1.0000 0.26462  0.19082  0.58990  Biso   1.000  H
  C354     1.0000 0.29707  0.14243  0.48201  Biso   1.000  C
  C355     1.0000 0.59920  0.22981  0.52224  Biso   1.000  C
  H199     1.0000 0.57790  0.28059  0.53130  Biso   1.000  H
  C356     1.0000 0.56440  0.16384  0.58103  Biso   1.000  C
  H200     1.0000 0.55931  0.32389  0.68349  Biso   1.000  H
  C357     1.0000 0.56930  0.29102  0.74409  Biso   1.000  C
  C358     1.0000 0.54162  0.20523  0.73326  Biso   1.000  C
  C359     1.0000 0.26033  0.15537  0.47694  Biso   1.000  C
  H201     1.0000 0.22339  0.18190  0.51711  Biso   1.000  H
  N26      1.0000 0.30848  0.11999  0.44506  Biso   1.000  N
  O26      1.0000 0.63152  0.25678  0.48452  Biso   1.000  O
  C360     1.0000 0.59476  0.18658  0.54050  Biso   1.000  C
  H202     1.0000 0.56130  0.13491  0.59381  Biso   1.000  H
  H203     1.0000 0.58382  0.31891  0.76400  Biso   1.000  H
  C361     1.0000 0.56222  0.24731  0.76242  Biso   1.000  C
  H204     1.0000 0.53701  0.17571  0.74601  Biso   1.000  H
  C362     1.0000 0.23781  0.14895  0.43031  Biso   1.000  C
  C363     1.0000 0.28402  0.11262  0.40356  Biso   1.000  C
  C364     1.0000 0.63965  0.23423  0.44480  Biso   1.000  C
  H205     1.0000 0.61190  0.17280  0.52579  Biso   1.000  H
  H206     1.0000 0.57129  0.24580  0.79478  Biso   1.000  H
  C365     1.0000 0.24974  0.12780  0.39311  Biso   1.000  C
  H207     1.0000 0.21489  0.15909  0.42510  Biso   1.000  H
  O27      1.0000 0.29157  0.08859  0.36480  Biso   1.000  O
  N27      1.0000 0.60524  0.19115  0.43002  Biso   1.000  N
  C366     1.0000 0.68645  0.26312  0.42326  Biso   1.000  C
  H208     1.0000 0.23580  0.12360  0.36188  Biso   1.000  H
  C367     1.0000 0.30913  0.05612  0.37204  Biso   1.000  C
  C368     1.0000 0.61658  0.17073  0.39133  Biso   1.000  C
  C369     1.0000 0.69774  0.24230  0.38461  Biso   1.000  C
  H209     1.0000 0.70851  0.29459  0.43460  Biso   1.000  H
  C370     1.0000 0.33757  0.05421  0.33277  Biso   1.000  C
  C371     1.0000 0.29496  0.02344  0.41077  Biso   1.000  C
  N28      1.0000 0.57953  0.12548  0.37592  Biso   1.000  N
  C372     1.0000 0.66350  0.19461  0.36816  Biso   1.000  C
  H210     1.0000 0.72821  0.25969  0.36909  Biso   1.000  H
  H211     1.0000 0.34761  0.07691  0.30709  Biso   1.000  H
  C373     1.0000 0.35011  0.01802  0.33317  Biso   1.000  C
  H212     1.0000 0.27631  0.02521  0.43659  Biso   1.000  H
  C374     1.0000 0.30864  0.98780  0.41103  Biso   1.000  C
  C375     1.0000 0.59040  0.10466  0.34023  Biso   1.000  C
  C376     1.0000 0.67274  0.16918  0.33040  Biso   1.000  C
  C377     1.0000 0.37991  0.00958  0.29353  Biso   1.000  C
  C378     1.0000 0.33591  0.98445  0.37230  Biso   1.000  C
  H213     1.0000 0.29949  0.96580  0.43741  Biso   1.000  H
  O28      1.0000 0.55597  0.06139  0.32065  Biso   1.000  O
  C379     1.0000 0.63694  0.12408  0.31721  Biso   1.000  C
  H214     1.0000 0.70328  0.18348  0.31488  Biso   1.000  H
  H215     1.0000 0.38979  0.03298  0.26600  Biso   1.000  H
  C380     1.0000 0.42308  0.01117  0.32031  Biso   1.000  C
  C381     1.0000 0.34712  0.95574  0.27760  Biso   1.000  C
  C382     1.0000 0.35355  0.94741  0.36654  Biso   1.000  C
  C383     1.0000 0.50694  0.03659  0.33739  Biso   1.000  C
  H216     1.0000 0.64261  0.10598  0.29349  Biso   1.000  H
  C384     1.0000 0.47249  0.04116  0.30871  Biso   1.000  C
  C385     1.0000 0.40891  0.97778  0.36004  Biso   1.000  C
  C386     1.0000 0.33115  0.93920  0.23027  Biso   1.000  C
  C387     1.0000 0.33358  0.92246  0.31662  Biso   1.000  C
  H217     1.0000 0.34360  0.92401  0.39399  Biso   1.000  H
  C388     1.0000 0.49349  0.00427  0.37618  Biso   1.000  C
  H218     1.0000 0.48231  0.06349  0.28270  Biso   1.000  H
  C389     1.0000 0.44431  0.97505  0.38804  Biso   1.000  C
  H219     1.0000 0.34029  0.96149  0.20429  Biso   1.000  H
  C390     1.0000 0.30127  0.88900  0.22170  Biso   1.000  C
  C391     1.0000 0.30511  0.87249  0.30786  Biso   1.000  C
  H220     1.0000 0.51740  0.00199  0.39451  Biso   1.000  H
  H221     1.0000 0.43499  0.95360  0.41479  Biso   1.000  H
  H222     1.0000 0.28980  0.87780  0.18988  Biso   1.000  H
  C392     1.0000 0.28863  0.85587  0.25968  Biso   1.000  C
  H223     1.0000 0.29700  0.85009  0.33362  Biso   1.000  H
  H224     1.0000 0.26910  0.82230  0.25351  Biso   1.000  H
  C393     1.0000 0.57803  0.78917  0.39687  Biso   1.000  C
  C394     1.0000 0.53734  0.79308  0.38546  Biso   1.000  C
  H225     1.0000 0.57460  0.75991  0.40899  Biso   1.000  H
  C395     1.0000 0.62400  0.82986  0.38985  Biso   1.000  C
  C396     1.0000 0.48426  0.75221  0.38653  Biso   1.000  C
  C397     1.0000 0.54340  0.83793  0.36735  Biso   1.000  C
  O29      1.0000 0.66544  0.82326  0.39466  Biso   1.000  O
  C398     1.0000 0.63096  0.87397  0.37389  Biso   1.000  C
  C399     1.0000 0.46574  0.74797  0.33310  Biso   1.000  C
  C400     1.0000 0.45563  0.77123  0.41579  Biso   1.000  C
  H226     1.0000 0.48010  0.72111  0.39939  Biso   1.000  H
  C401     1.0000 0.49449  0.83395  0.35246  Biso   1.000  C
  C402     1.0000 0.59038  0.87846  0.36247  Biso   1.000  C
  C403     1.0000 0.68935  0.83170  0.43870  Biso   1.000  C
  H227     1.0000 0.66259  0.90079  0.37071  Biso   1.000  H
  C404     1.0000 0.44497  0.70567  0.30420  Biso   1.000  C
  C405     1.0000 0.47197  0.79241  0.31481  Biso   1.000  C
  C406     1.0000 0.42564  0.74871  0.45614  Biso   1.000  C
  C407     1.0000 0.46135  0.81534  0.39758  Biso   1.000  C
  H228     1.0000 0.49850  0.86501  0.33971  Biso   1.000  H
  H229     1.0000 0.59451  0.90850  0.35161  Biso   1.000  H
  N29      1.0000 0.67682  0.84990  0.47539  Biso   1.000  N
  C408     1.0000 0.72740  0.82035  0.43859  Biso   1.000  C
  H230     1.0000 0.44069  0.67611  0.31651  Biso   1.000  H
  C409     1.0000 0.43070  0.70898  0.25591  Biso   1.000  C
  C410     1.0000 0.45837  0.79477  0.26674  Biso   1.000  C
  C411     1.0000 0.40080  0.77019  0.47776  Biso   1.000  C
  H231     1.0000 0.42210  0.71941  0.46870  Biso   1.000  H
  C412     1.0000 0.43560  0.83616  0.41897  Biso   1.000  C
  C413     1.0000 0.70293  0.85757  0.51799  Biso   1.000  C
  H232     1.0000 0.73538  0.80918  0.41010  Biso   1.000  H
  C414     1.0000 0.75181  0.82621  0.48116  Biso   1.000  C
  H233     1.0000 0.41618  0.68109  0.23600  Biso   1.000  H
  C415     1.0000 0.43778  0.75269  0.23758  Biso   1.000  C
  H234     1.0000 0.46298  0.82429  0.25399  Biso   1.000  H
  O30      1.0000 0.36848  0.74322  0.51548  Biso   1.000  O
  C416     1.0000 0.40524  0.81342  0.45950  Biso   1.000  C
  H235     1.0000 0.43870  0.86509  0.40619  Biso   1.000  H
  N30      1.0000 0.69152  0.88001  0.55494  Biso   1.000  N
  C417     1.0000 0.73967  0.84463  0.52306  Biso   1.000  C
  H236     1.0000 0.77661  0.81810  0.48289  Biso   1.000  H
  H237     1.0000 0.42871  0.75420  0.20522  Biso   1.000  H
  C418     1.0000 0.36035  0.76577  0.55520  Biso   1.000  C
  H238     1.0000 0.38810  0.82720  0.47421  Biso   1.000  H
  C419     1.0000 0.71600  0.88742  0.59644  Biso   1.000  C
  C420     1.0000 0.76219  0.85105  0.56969  Biso   1.000  C
  N31      1.0000 0.39476  0.80885  0.56998  Biso   1.000  N
  C421     1.0000 0.31355  0.73688  0.57674  Biso   1.000  C
  O31      1.0000 0.70843  0.91141  0.63520  Biso   1.000  O
  C422     1.0000 0.75026  0.87220  0.60689  Biso   1.000  C
  H239     1.0000 0.78511  0.84091  0.57490  Biso   1.000  H
  C423     1.0000 0.38342  0.82927  0.60867  Biso   1.000  C
  C424     1.0000 0.30226  0.75770  0.61539  Biso   1.000  C
  H240     1.0000 0.29149  0.70541  0.56540  Biso   1.000  H
  C425     1.0000 0.69087  0.94387  0.62796  Biso   1.000  C
  H241     1.0000 0.76420  0.87640  0.63812  Biso   1.000  H
  N32      1.0000 0.42047  0.87452  0.62408  Biso   1.000  N
  C426     1.0000 0.33650  0.80539  0.63184  Biso   1.000  C
  H242     1.0000 0.27179  0.74031  0.63091  Biso   1.000  H
  C427     1.0000 0.66243  0.94579  0.66723  Biso   1.000  C
  C428     1.0000 0.70504  0.97656  0.58923  Biso   1.000  C
  C429     1.0000 0.40960  0.89534  0.65977  Biso   1.000  C
  C430     1.0000 0.32726  0.83081  0.66960  Biso   1.000  C
  H243     1.0000 0.65239  0.92309  0.69291  Biso   1.000  H
  C431     1.0000 0.64989  0.98198  0.66683  Biso   1.000  C
  H244     1.0000 0.72369  0.97479  0.56341  Biso   1.000  H
  C432     1.0000 0.69136  0.01220  0.58897  Biso   1.000  C
  O32      1.0000 0.44403  0.93860  0.67935  Biso   1.000  O
  C433     1.0000 0.36306  0.87592  0.68279  Biso   1.000  C
  H245     1.0000 0.29672  0.81652  0.68512  Biso   1.000  H
  C434     1.0000 0.62009  0.99042  0.70647  Biso   1.000  C
  C435     1.0000 0.66411  0.01559  0.62770  Biso   1.000  C
  H246     1.0000 0.70051  0.03420  0.56259  Biso   1.000  H
  C436     1.0000 0.49306  0.96341  0.66261  Biso   1.000  C
  H247     1.0000 0.35739  0.89401  0.70651  Biso   1.000  H
  C437     1.0000 0.57691  0.98883  0.67969  Biso   1.000  C
  H248     1.0000 0.61021  0.96702  0.73400  Biso   1.000  H
  C438     1.0000 0.65288  0.04426  0.72240  Biso   1.000  C
  C439     1.0000 0.64645  0.05259  0.63346  Biso   1.000  C
  C440     1.0000 0.50651  0.99572  0.62382  Biso   1.000  C
  C441     1.0000 0.52751  0.95884  0.69129  Biso   1.000  C
  C442     1.0000 0.59109  0.02222  0.63996  Biso   1.000  C
  C443     1.0000 0.66642  0.07753  0.68338  Biso   1.000  C
  C444     1.0000 0.66885  0.06080  0.76973  Biso   1.000  C
  H249     1.0000 0.65639  0.07599  0.60601  Biso   1.000  H
  H250     1.0000 0.48260  0.99801  0.60549  Biso   1.000  H
  C445     1.0000 0.55569  0.02495  0.61196  Biso   1.000  C
  H251     1.0000 0.51769  0.93650  0.71730  Biso   1.000  H
  C446     1.0000 0.69489  0.12750  0.69214  Biso   1.000  C
  H252     1.0000 0.65971  0.03851  0.79571  Biso   1.000  H
  C447     1.0000 0.69873  0.11099  0.77830  Biso   1.000  C
  H253     1.0000 0.56500  0.04639  0.58521  Biso   1.000  H
  C448     1.0000 0.71137  0.14412  0.74032  Biso   1.000  C
  H254     1.0000 0.70299  0.14991  0.66638  Biso   1.000  H
  H255     1.0000 0.71020  0.12220  0.81012  Biso   1.000  H
  H256     1.0000 0.73090  0.17770  0.74649  Biso   1.000  H
  C449     1.0000 0.26311  0.57665  0.57674  Biso   1.000  C
  C450     1.0000 0.23424  0.59460  0.55520  Biso   1.000  C
  C451     1.0000 0.24231  0.54455  0.61539  Biso   1.000  C
  H257     1.0000 0.29461  0.58608  0.56540  Biso   1.000  H
  O33      1.0000 0.25678  0.62526  0.51548  Biso   1.000  O
  N33      1.0000 0.19114  0.58590  0.56998  Biso   1.000  N
  C452     1.0000 0.19461  0.53110  0.63184  Biso   1.000  C
  H258     1.0000 0.25969  0.53151  0.63091  Biso   1.000  H
  C453     1.0000 0.22977  0.63060  0.47776  Biso   1.000  C
  C454     1.0000 0.17070  0.55413  0.60867  Biso   1.000  C
  C455     1.0000 0.16919  0.49642  0.66960  Biso   1.000  C
  C456     1.0000 0.18658  0.59183  0.45950  Biso   1.000  C
  C457     1.0000 0.25129  0.67696  0.45614  Biso   1.000  C
  N34      1.0000 0.12547  0.54595  0.62408  Biso   1.000  N
  C458     1.0000 0.12408  0.48714  0.68279  Biso   1.000  C
  H259     1.0000 0.18349  0.48021  0.68512  Biso   1.000  H
  C459     1.0000 0.16384  0.59946  0.41897  Biso   1.000  C
  H260     1.0000 0.17281  0.56091  0.47421  Biso   1.000  H
  H261     1.0000 0.28059  0.70268  0.46870  Biso   1.000  H
  C460     1.0000 0.22878  0.68440  0.41579  Biso   1.000  C
  C461     1.0000 0.10468  0.51426  0.65977  Biso   1.000  C
  H262     1.0000 0.10599  0.46341  0.70651  Biso   1.000  H
  C462     1.0000 0.18469  0.64600  0.39758  Biso   1.000  C
  H263     1.0000 0.13488  0.57359  0.40619  Biso   1.000  H
  C463     1.0000 0.24778  0.73205  0.38653  Biso   1.000  C
  O34      1.0000 0.06138  0.50542  0.67935  Biso   1.000  O
  C464     1.0000 0.16605  0.66056  0.35246  Biso   1.000  C
  H264     1.0000 0.27890  0.75899  0.39939  Biso   1.000  H
  C465     1.0000 0.25200  0.71775  0.33310  Biso   1.000  C
  C466     1.0000 0.20694  0.74425  0.38546  Biso   1.000  C
  C467     1.0000 0.03656  0.52963  0.66261  Biso   1.000  C
  C468     1.0000 0.20760  0.67958  0.31481  Biso   1.000  C
  H265     1.0000 0.13500  0.63351  0.33971  Biso   1.000  H
  C469     1.0000 0.16207  0.70545  0.36735  Biso   1.000  C
  C470     1.0000 0.29434  0.73931  0.30420  Biso   1.000  C
  C471     1.0000 0.21082  0.78884  0.39687  Biso   1.000  C
  C472     1.0000 0.00428  0.51076  0.62382  Biso   1.000  C
  C473     1.0000 0.04117  0.56865  0.69129  Biso   1.000  C
  C474     1.0000 0.20522  0.66358  0.26674  Biso   1.000  C
  C475     1.0000 0.12154  0.71189  0.36247  Biso   1.000  C
  H266     1.0000 0.32389  0.76459  0.31651  Biso   1.000  H
  C476     1.0000 0.29099  0.72170  0.25591  Biso   1.000  C
  H267     1.0000 0.24009  0.81471  0.40899  Biso   1.000  H
  C477     1.0000 0.17013  0.79415  0.38985  Biso   1.000  C
  H268     1.0000 0.00198  0.48460  0.60549  Biso   1.000  H
  C478     1.0000 0.97504  0.53073  0.61196  Biso   1.000  C
  H269     1.0000 0.06349  0.58118  0.71730  Biso   1.000  H
  C479     1.0000 0.01118  0.58807  0.67969  Biso   1.000  C
  C480     1.0000 0.24729  0.68510  0.23758  Biso   1.000  C
  H270     1.0000 0.17571  0.63871  0.25399  Biso   1.000  H
  C481     1.0000 0.12603  0.75700  0.37389  Biso   1.000  C
  H271     1.0000 0.09148  0.68599  0.35161  Biso   1.000  H
  H272     1.0000 0.31892  0.73511  0.23600  Biso   1.000  H
  O35      1.0000 0.17673  0.84220  0.39466  Biso   1.000  O
  C482     1.0000 0.97776  0.56884  0.63996  Biso   1.000  C
  H273     1.0000 0.95360  0.51861  0.58521  Biso   1.000  H
  C483     1.0000 0.00958  0.62968  0.70647  Biso   1.000  C
  H274     1.0000 0.24581  0.67449  0.20522  Biso   1.000  H
  H275     1.0000 0.09919  0.76179  0.37071  Biso   1.000  H
  C484     1.0000 0.16827  0.85764  0.43870  Biso   1.000  C
  C485     1.0000 0.94741  0.59386  0.63346  Biso   1.000  C
  C486     1.0000 0.01800  0.66789  0.66683  Biso   1.000  C
  H276     1.0000 0.03300  0.64320  0.73400  Biso   1.000  H
  C487     1.0000 0.95575  0.60864  0.72240  Biso   1.000  C
  N35      1.0000 0.15010  0.82691  0.47539  Biso   1.000  N
  C488     1.0000 0.17966  0.90702  0.43859  Biso   1.000  C
  C489     1.0000 0.98442  0.64855  0.62770  Biso   1.000  C
  C490     1.0000 0.92250  0.58892  0.68338  Biso   1.000  C
  H277     1.0000 0.92399  0.58041  0.60601  Biso   1.000  H
  C491     1.0000 0.05421  0.71665  0.66723  Biso   1.000  C
  C492     1.0000 0.93921  0.60805  0.76973  Biso   1.000  C
  C493     1.0000 0.14245  0.84537  0.51799  Biso   1.000  C
  H278     1.0000 0.19080  0.92619  0.41010  Biso   1.000  H
  C494     1.0000 0.17380  0.92563  0.48116  Biso   1.000  C
  C495     1.0000 0.98778  0.67913  0.58897  Biso   1.000  C
  C496     1.0000 0.87250  0.56736  0.69214  Biso   1.000  C
  C497     1.0000 0.05612  0.74701  0.62796  Biso   1.000  C
  H279     1.0000 0.07691  0.72929  0.69291  Biso   1.000  H
  H280     1.0000 0.96149  0.62120  0.79571  Biso   1.000  H
  C498     1.0000 0.88901  0.58774  0.77830  Biso   1.000  C
  N36      1.0000 0.11996  0.81150  0.55494  Biso   1.000  N
  C499     1.0000 0.15538  0.89505  0.52306  Biso   1.000  C
  H281     1.0000 0.18191  0.95850  0.48289  Biso   1.000  H
  C500     1.0000 0.02343  0.72848  0.58923  Biso   1.000  C
  H282     1.0000 0.96579  0.66631  0.56259  Biso   1.000  H
  C501     1.0000 0.85586  0.56722  0.74032  Biso   1.000  C
  H283     1.0000 0.85011  0.55310  0.66638  Biso   1.000  H
  O36      1.0000 0.08859  0.79702  0.63520  Biso   1.000  O
  H284     1.0000 0.87781  0.58800  0.81012  Biso   1.000  H
  C502     1.0000 0.11262  0.82860  0.59644  Biso   1.000  C
  C503     1.0000 0.14896  0.91111  0.56969  Biso   1.000  C
  H285     1.0000 0.02521  0.74889  0.56341  Biso   1.000  H
  H286     1.0000 0.82231  0.55321  0.74649  Biso   1.000  H
  C504     1.0000 0.12780  0.87806  0.60689  Biso   1.000  C
  H287     1.0000 0.15909  0.94421  0.57490  Biso   1.000  H
  H288     1.0000 0.12360  0.88779  0.63812  Biso   1.000  H
  C505     1.0000 0.73689  0.42335  0.42326  Biso   1.000  C
  C506     1.0000 0.75769  0.45545  0.38461  Biso   1.000  C
  H289     1.0000 0.70539  0.41391  0.43460  Biso   1.000  H
  C507     1.0000 0.76576  0.40540  0.44480  Biso   1.000  C
  C508     1.0000 0.80539  0.46890  0.36816  Biso   1.000  C
  H290     1.0000 0.74031  0.46849  0.36909  Biso   1.000  H
  O37      1.0000 0.74322  0.37474  0.48452  Biso   1.000  O
  N37      1.0000 0.80886  0.41410  0.43002  Biso   1.000  N
  C509     1.0000 0.83081  0.50357  0.33040  Biso   1.000  C
  C510     1.0000 0.82930  0.44586  0.39133  Biso   1.000  C
  C511     1.0000 0.77023  0.36940  0.52224  Biso   1.000  C
  C512     1.0000 0.87592  0.51286  0.31721  Biso   1.000  C
  H291     1.0000 0.81651  0.51979  0.31488  Biso   1.000  H
  N38      1.0000 0.87453  0.45405  0.37592  Biso   1.000  N
  C513     1.0000 0.74871  0.32304  0.54386  Biso   1.000  C
  C514     1.0000 0.81342  0.40817  0.54050  Biso   1.000  C
  C515     1.0000 0.89532  0.48574  0.34023  Biso   1.000  C
  H292     1.0000 0.89401  0.53659  0.29349  Biso   1.000  H
  H293     1.0000 0.71941  0.29732  0.53130  Biso   1.000  H
  C516     1.0000 0.77122  0.31560  0.58421  Biso   1.000  C
  C517     1.0000 0.83616  0.40054  0.58103  Biso   1.000  C
  H294     1.0000 0.82719  0.43908  0.52579  Biso   1.000  H
  O38      1.0000 0.93862  0.49458  0.32065  Biso   1.000  O
  C518     1.0000 0.81531  0.35399  0.60242  Biso   1.000  C
  C519     1.0000 0.75222  0.26795  0.61347  Biso   1.000  C
  H295     1.0000 0.86512  0.42641  0.59381  Biso   1.000  H
  C520     1.0000 0.96344  0.47037  0.33739  Biso   1.000  C
  C521     1.0000 0.83395  0.33944  0.64754  Biso   1.000  C
  H296     1.0000 0.72110  0.24101  0.60061  Biso   1.000  H
  C522     1.0000 0.74800  0.28224  0.66690  Biso   1.000  C
  C523     1.0000 0.79306  0.25575  0.61454  Biso   1.000  C
  C524     1.0000 0.99572  0.48924  0.37618  Biso   1.000  C
  C525     1.0000 0.95883  0.43135  0.30871  Biso   1.000  C
  C526     1.0000 0.79240  0.32042  0.68519  Biso   1.000  C
  H297     1.0000 0.86499  0.36649  0.66029  Biso   1.000  H
  C527     1.0000 0.83793  0.29455  0.63265  Biso   1.000  C
  C528     1.0000 0.70566  0.26069  0.69580  Biso   1.000  C
  C529     1.0000 0.78918  0.21116  0.60313  Biso   1.000  C
  H298     1.0000 0.99802  0.51540  0.39451  Biso   1.000  H
  C530     1.0000 0.02496  0.46927  0.38804  Biso   1.000  C
  H299     1.0000 0.93651  0.41882  0.28270  Biso   1.000  H
  C531     1.0000 0.98882  0.41192  0.32031  Biso   1.000  C
  C532     1.0000 0.79478  0.33642  0.73326  Biso   1.000  C
  C533     1.0000 0.87846  0.28810  0.63753  Biso   1.000  C
  H300     1.0000 0.67611  0.23541  0.68349  Biso   1.000  H
  C534     1.0000 0.70901  0.27830  0.74409  Biso   1.000  C
  H301     1.0000 0.75991  0.18529  0.59101  Biso   1.000  H
  C535     1.0000 0.82987  0.20585  0.61015  Biso   1.000  C
  C536     1.0000 0.02224  0.43116  0.36004  Biso   1.000  C
  H302     1.0000 0.04640  0.48139  0.41479  Biso   1.000  H
  C537     1.0000 0.99042  0.37032  0.29353  Biso   1.000  C
  C538     1.0000 0.75271  0.31489  0.76242  Biso   1.000  C
  H303     1.0000 0.82429  0.36129  0.74601  Biso   1.000  H
  C539     1.0000 0.87397  0.24300  0.62611  Biso   1.000  C
  H304     1.0000 0.90852  0.31401  0.64839  Biso   1.000  H
  H305     1.0000 0.68108  0.26489  0.76400  Biso   1.000  H
  O39      1.0000 0.82327  0.15780  0.60534  Biso   1.000  O
  C540     1.0000 0.05259  0.40614  0.36654  Biso   1.000  C
  C541     1.0000 0.98200  0.33210  0.33317  Biso   1.000  C
  H306     1.0000 0.96700  0.35679  0.26600  Biso   1.000  H
  C542     1.0000 0.04427  0.39140  0.27760  Biso   1.000  C
  H307     1.0000 0.75419  0.32551  0.79478  Biso   1.000  H
  H308     1.0000 0.90081  0.23821  0.62929  Biso   1.000  H
  C543     1.0000 0.83173  0.14236  0.56130  Biso   1.000  C
  C544     1.0000 0.01558  0.35145  0.37230  Biso   1.000  C
  C545     1.0000 0.07750  0.41108  0.31662  Biso   1.000  C
  H309     1.0000 0.07601  0.41959  0.39399  Biso   1.000  H
  C546     1.0000 0.94579  0.28335  0.33277  Biso   1.000  C
  C547     1.0000 0.06079  0.39195  0.23027  Biso   1.000  C
  N39      1.0000 0.84990  0.17309  0.52461  Biso   1.000  N
  C548     1.0000 0.82034  0.09298  0.56141  Biso   1.000  C
  C549     1.0000 0.01222  0.32086  0.41103  Biso   1.000  C
  C550     1.0000 0.12750  0.43263  0.30786  Biso   1.000  C
  C551     1.0000 0.94388  0.25298  0.37204  Biso   1.000  C
  H310     1.0000 0.92309  0.27071  0.30709  Biso   1.000  H
  H311     1.0000 0.03851  0.37880  0.20429  Biso   1.000  H
  C552     1.0000 0.11099  0.41226  0.22170  Biso   1.000  C
  C553     1.0000 0.85755  0.15463  0.48201  Biso   1.000  C
  H312     1.0000 0.80920  0.07381  0.58990  Biso   1.000  H
  C554     1.0000 0.82620  0.07437  0.51884  Biso   1.000  C
  C555     1.0000 0.97657  0.27152  0.41077  Biso   1.000  C
  H313     1.0000 0.03421  0.33369  0.43741  Biso   1.000  H
  C556     1.0000 0.14414  0.43278  0.25968  Biso   1.000  C
  H314     1.0000 0.14989  0.44690  0.33362  Biso   1.000  H
  O40      1.0000 0.91141  0.20298  0.36480  Biso   1.000  O
  H315     1.0000 0.12219  0.41200  0.18988  Biso   1.000  H
  N40      1.0000 0.88004  0.18849  0.44506  Biso   1.000  N
  C557     1.0000 0.84462  0.10495  0.47694  Biso   1.000  C
  H316     1.0000 0.81809  0.04149  0.51711  Biso   1.000  H
  H317     1.0000 0.97479  0.25111  0.43659  Biso   1.000  H
  H318     1.0000 0.17769  0.44679  0.25351  Biso   1.000  H
  C558     1.0000 0.88738  0.17140  0.40356  Biso   1.000  C
  C559     1.0000 0.85104  0.08889  0.43031  Biso   1.000  C
  C560     1.0000 0.87220  0.12194  0.39311  Biso   1.000  C
  H319     1.0000 0.84091  0.05579  0.42510  Biso   1.000  H
  H320     1.0000 0.87640  0.11221  0.36188  Biso   1.000  H
  C561     1.0000 0.29764  0.20733  0.70725  Biso   1.000  C
  C562     1.0000 0.25706  0.21182  0.69580  Biso   1.000  C
  C563     1.0000 0.29066  0.16318  0.72321  Biso   1.000  C
  H321     1.0000 0.32926  0.23412  0.70403  Biso   1.000  H
  C564     1.0000 0.21008  0.17129  0.70067  Biso   1.000  C
  H322     1.0000 0.26117  0.24182  0.68493  Biso   1.000  H
  C565     1.0000 0.24471  0.12253  0.73020  Biso   1.000  C
  O41      1.0000 0.33210  0.15658  0.72802  Biso   1.000  O
  C566     1.0000 0.16115  0.16727  0.68582  Biso   1.000  C
  C567     1.0000 0.20401  0.12640  0.71878  Biso   1.000  C
  H323     1.0000 0.24126  0.09323  0.74235  Biso   1.000  H
  C568     1.0000 0.35603  0.16506  0.77202  Biso   1.000  C
  C569     1.0000 0.13863  0.12574  0.64817  Biso   1.000  C
  C570     1.0000 0.12801  0.14866  0.73090  Biso   1.000  C
  H324     1.0000 0.16517  0.19833  0.67303  Biso   1.000  H
  C571     1.0000 0.15094  0.08557  0.71985  Biso   1.000  C
  N41      1.0000 0.34348  0.18322  0.80871  Biso   1.000  N
  C572     1.0000 0.39406  0.15367  0.77191  Biso   1.000  C
  C573     1.0000 0.12504  0.12810  0.60006  Biso   1.000  C
  C574     1.0000 0.13242  0.08133  0.66642  Biso   1.000  C
  C575     1.0000 0.12229  0.10455  0.74915  Biso   1.000  C
  C576     1.0000 0.10226  0.16948  0.75233  Biso   1.000  C
  H325     1.0000 0.14677  0.05443  0.73274  Biso   1.000  H
  C577     1.0000 0.36959  0.19089  0.85132  Biso   1.000  C
  H326     1.0000 0.40206  0.14254  0.74342  Biso   1.000  H
  C578     1.0000 0.41847  0.15953  0.81448  Biso   1.000  C
  C579     1.0000 0.10446  0.08605  0.57094  Biso   1.000  C
  H327     1.0000 0.12966  0.15765  0.58735  Biso   1.000  H
  C580     1.0000 0.11163  0.03899  0.63753  Biso   1.000  C
  C581     1.0000 0.09230  0.08203  0.78946  Biso   1.000  C
  H328     1.0000 0.10538  0.19844  0.73954  Biso   1.000  H
  C582     1.0000 0.07192  0.14678  0.79286  Biso   1.000  C
  N42      1.0000 0.35820  0.21337  0.88826  Biso   1.000  N
  C583     1.0000 0.40633  0.17796  0.85638  Biso   1.000  C
  H329     1.0000 0.44327  0.15142  0.81625  Biso   1.000  H
  C584     1.0000 0.09738  0.04234  0.58923  Biso   1.000  C
  H330     1.0000 0.09537  0.08752  0.53854  Biso   1.000  H
  H331     1.0000 0.10735  0.00943  0.64983  Biso   1.000  H
  C585     1.0000 0.06748  0.10355  0.81108  Biso   1.000  C
  H332     1.0000 0.08876  0.05273  0.80202  Biso   1.000  H
  H333     1.0000 0.05476  0.16052  0.80753  Biso   1.000  H
  C586     1.0000 0.38266  0.22074  0.92976  Biso   1.000  C
  C587     1.0000 0.42885  0.18437  0.90301  Biso   1.000  C
  H334     1.0000 0.08286  0.01445  0.56932  Biso   1.000  H
  O42      1.0000 0.03514  0.07654  0.84880  Biso   1.000  O
  O43      1.0000 0.37509  0.24473  0.96852  Biso   1.000  O
  C588     1.0000 0.41694  0.20556  0.94022  Biso   1.000  C
  H335     1.0000 0.45177  0.17423  0.90822  Biso   1.000  H
  C589     1.0000 0.02702  0.09909  0.88852  Biso   1.000  C
  C590     1.0000 0.35753  0.27720  0.96128  Biso   1.000  C
  H336     1.0000 0.43086  0.20972  0.97144  Biso   1.000  H
  N43      1.0000 0.06142  0.14217  0.90330  Biso   1.000  N
  C591     1.0000 0.98021  0.07020  0.91007  Biso   1.000  C
  C592     1.0000 0.37170  0.30988  0.92255  Biso   1.000  C
  C593     1.0000 0.32911  0.27915  0.00059  Biso   1.000  C
  C594     1.0000 0.05010  0.16263  0.94199  Biso   1.000  C
  C595     1.0000 0.96894  0.09106  0.94875  Biso   1.000  C
  H337     1.0000 0.95815  0.03873  0.89872  Biso   1.000  H
  C596     1.0000 0.35802  0.34552  0.92230  Biso   1.000  C
  H338     1.0000 0.39037  0.30815  0.89673  Biso   1.000  H
  H339     1.0000 0.31907  0.25645  0.02623  Biso   1.000  H
  C597     1.0000 0.31655  0.31530  0.00018  Biso   1.000  C
  N44      1.0000 0.08715  0.20788  0.95740  Biso   1.000  N
  C598     1.0000 0.00318  0.13875  0.96516  Biso   1.000  C
  H340     1.0000 0.93845  0.07363  0.96423  Biso   1.000  H
  C599     1.0000 0.33077  0.34891  0.96102  Biso   1.000  C
  H341     1.0000 0.36717  0.36752  0.89595  Biso   1.000  H
  C600     1.0000 0.28675  0.32374  0.03979  Biso   1.000  C
  C601     1.0000 0.07626  0.22866  0.99309  Biso   1.000  C
  C602     1.0000 0.99392  0.16414  0.00296  Biso   1.000  C
  C603     1.0000 0.31313  0.38594  0.96678  Biso   1.000  C
  C604     1.0000 0.24358  0.32215  0.01304  Biso   1.000  C
  H342     1.0000 0.27687  0.30034  0.06732  Biso   1.000  H
  C605     1.0000 0.31954  0.37758  0.05576  Biso   1.000  C
  O44      1.0000 0.11069  0.27193  0.01267  Biso   1.000  O
  C606     1.0000 0.02974  0.20928  0.01611  Biso   1.000  C
  H343     1.0000 0.96338  0.14984  0.01844  Biso   1.000  H
  C607     1.0000 0.25777  0.35558  0.97329  Biso   1.000  C
  H344     1.0000 0.32307  0.40934  0.93933  Biso   1.000  H
  C608     1.0000 0.33308  0.41086  0.01670  Biso   1.000  C
  C609     1.0000 0.19417  0.29216  0.02461  Biso   1.000  C
  C610     1.0000 0.33551  0.39413  0.10305  Biso   1.000  C
  C611     1.0000 0.15974  0.29676  0.99597  Biso   1.000  C
  H345     1.0000 0.02405  0.22734  0.03983  Biso   1.000  H
  C612     1.0000 0.22235  0.35827  0.94531  Biso   1.000  C
  C613     1.0000 0.36155  0.46083  0.02546  Biso   1.000  C
  H346     1.0000 0.18435  0.26983  0.05062  Biso   1.000  H
  H347     1.0000 0.32637  0.37183  0.12903  Biso   1.000  H
  C614     1.0000 0.36539  0.44432  0.11166  Biso   1.000  C
  C615     1.0000 0.17317  0.32905  0.95714  Biso   1.000  C
  H348     1.0000 0.23167  0.37972  0.91853  Biso   1.000  H
  H349     1.0000 0.36966  0.48323  0.99974  Biso   1.000  H
  C616     1.0000 0.37803  0.47745  0.07364  Biso   1.000  C
  H350     1.0000 0.37686  0.45552  0.14344  Biso   1.000  H
  H351     1.0000 0.14926  0.33133  0.93885  Biso   1.000  H
  H352     1.0000 0.39756  0.51102  0.07985  Biso   1.000  H
  C617     1.0000 0.70236  0.79267  0.29275  Biso   1.000  C
  C618     1.0000 0.70934  0.83682  0.27679  Biso   1.000  C
  H353     1.0000 0.67074  0.76588  0.29597  Biso   1.000  H
  C619     1.0000 0.74296  0.78821  0.30420  Biso   1.000  C
  O45      1.0000 0.66789  0.84342  0.27198  Biso   1.000  O
  C620     1.0000 0.75531  0.87750  0.26980  Biso   1.000  C
  C621     1.0000 0.78992  0.82871  0.29933  Biso   1.000  C
  H354     1.0000 0.73883  0.75818  0.31507  Biso   1.000  H
  C622     1.0000 0.64397  0.83494  0.22798  Biso   1.000  C
  C623     1.0000 0.79599  0.87360  0.28122  Biso   1.000  C
  H355     1.0000 0.75874  0.90676  0.25765  Biso   1.000  H
  C624     1.0000 0.83885  0.83273  0.31418  Biso   1.000  C
  N45      1.0000 0.65652  0.81677  0.19129  Biso   1.000  N
  C625     1.0000 0.60594  0.84633  0.22809  Biso   1.000  C
  C626     1.0000 0.84906  0.91443  0.28015  Biso   1.000  C
  C627     1.0000 0.87199  0.85134  0.26910  Biso   1.000  C
  C628     1.0000 0.86137  0.87426  0.35183  Biso   1.000  C
  H356     1.0000 0.83483  0.80166  0.32697  Biso   1.000  H
  C629     1.0000 0.63041  0.80911  0.14868  Biso   1.000  C
  C630     1.0000 0.58153  0.84047  0.18552  Biso   1.000  C
  H357     1.0000 0.59794  0.85746  0.25658  Biso   1.000  H
  C631     1.0000 0.87771  0.89545  0.25085  Biso   1.000  C
  H358     1.0000 0.85323  0.94557  0.26726  Biso   1.000  H
  C632     1.0000 0.86758  0.91867  0.33358  Biso   1.000  C
  C633     1.0000 0.89774  0.83052  0.24767  Biso   1.000  C
  C634     1.0000 0.87496  0.87190  0.39994  Biso   1.000  C
  N46      1.0000 0.64180  0.78663  0.11174  Biso   1.000  N
  C635     1.0000 0.59367  0.82204  0.14362  Biso   1.000  C
  H359     1.0000 0.55673  0.84858  0.18375  Biso   1.000  H
  C636     1.0000 0.90770  0.91797  0.21054  Biso   1.000  C
  C637     1.0000 0.88837  0.96101  0.36247  Biso   1.000  C
  C638     1.0000 0.92808  0.85322  0.20714  Biso   1.000  C
  H360     1.0000 0.89462  0.80155  0.26046  Biso   1.000  H
  C639     1.0000 0.89554  0.91395  0.42906  Biso   1.000  C
  H361     1.0000 0.87033  0.84235  0.41265  Biso   1.000  H
  C640     1.0000 0.61734  0.77926  0.07024  Biso   1.000  C
  C641     1.0000 0.57115  0.81563  0.09699  Biso   1.000  C
  C642     1.0000 0.93252  0.89645  0.18892  Biso   1.000  C
  H362     1.0000 0.91124  0.94726  0.19798  Biso   1.000  H
  H363     1.0000 0.89265  0.99056  0.35017  Biso   1.000  H
  C643     1.0000 0.90262  0.95766  0.41077  Biso   1.000  C
  H364     1.0000 0.94524  0.83947  0.19247  Biso   1.000  H
  H365     1.0000 0.90463  0.91248  0.46146  Biso   1.000  H
  O46      1.0000 0.62491  0.75527  0.03148  Biso   1.000  O
  C644     1.0000 0.58306  0.79444  0.05978  Biso   1.000  C
  H366     1.0000 0.54823  0.82577  0.09178  Biso   1.000  H
  O47      1.0000 0.96486  0.92346  0.15120  Biso   1.000  O
  H367     1.0000 0.91714  0.98555  0.43068  Biso   1.000  H
  C645     1.0000 0.64247  0.72280  0.03872  Biso   1.000  C
  H368     1.0000 0.56914  0.79028  0.02856  Biso   1.000  H
  C646     1.0000 0.97298  0.90091  0.11148  Biso   1.000  C
  C647     1.0000 0.62830  0.69012  0.07745  Biso   1.000  C
  C648     1.0000 0.67089  0.72085  0.99941  Biso   1.000  C
  N47      1.0000 0.93858  0.85783  0.09670  Biso   1.000  N
  C649     1.0000 0.01979  0.92980  0.08993  Biso   1.000  C
  C650     1.0000 0.64198  0.65448  0.07770  Biso   1.000  C
  H369     1.0000 0.60965  0.69188  0.10327  Biso   1.000  H
  C651     1.0000 0.68345  0.68470  0.99982  Biso   1.000  C
  H370     1.0000 0.68093  0.74355  0.97377  Biso   1.000  H
  C652     1.0000 0.94990  0.83737  0.05801  Biso   1.000  C
  C653     1.0000 0.03106  0.90894  0.05125  Biso   1.000  C
  H371     1.0000 0.04185  0.96127  0.10128  Biso   1.000  H
  C654     1.0000 0.66923  0.65109  0.03898  Biso   1.000  C
  H372     1.0000 0.63283  0.63248  0.10405  Biso   1.000  H
  C655     1.0000 0.71325  0.67626  0.96021  Biso   1.000  C
  N48      1.0000 0.91285  0.79212  0.04260  Biso   1.000  N
  C656     1.0000 0.99682  0.86125  0.03484  Biso   1.000  C
  H373     1.0000 0.06154  0.92637  0.03577  Biso   1.000  H
  C657     1.0000 0.68687  0.61405  0.03322  Biso   1.000  C
  C658     1.0000 0.75642  0.67784  0.98696  Biso   1.000  C
  C659     1.0000 0.68046  0.62242  0.94424  Biso   1.000  C
  H374     1.0000 0.72313  0.69966  0.93268  Biso   1.000  H
  C660     1.0000 0.92374  0.77134  0.00691  Biso   1.000  C
  C661     1.0000 0.00608  0.83586  0.99704  Biso   1.000  C
  H375     1.0000 0.67693  0.59065  0.06067  Biso   1.000  H
  C662     1.0000 0.74223  0.64442  0.02671  Biso   1.000  C
  C663     1.0000 0.66691  0.58914  0.98330  Biso   1.000  C
  C664     1.0000 0.80583  0.70784  0.97539  Biso   1.000  C
  C665     1.0000 0.66449  0.60587  0.89695  Biso   1.000  C
  O48      1.0000 0.88931  0.72807  0.98733  Biso   1.000  O
  C666     1.0000 0.97026  0.79072  0.98389  Biso   1.000  C
  H376     1.0000 0.03662  0.85016  0.98156  Biso   1.000  H
  C667     1.0000 0.77765  0.64173  0.05469  Biso   1.000  C
  C668     1.0000 0.63845  0.53917  0.97454  Biso   1.000  C
  C669     1.0000 0.84026  0.70323  0.00403  Biso   1.000  C
  H377     1.0000 0.81565  0.73017  0.94938  Biso   1.000  H
  H378     1.0000 0.67363  0.62817  0.87097  Biso   1.000  H
  C670     1.0000 0.63461  0.55568  0.88834  Biso   1.000  C
  H379     1.0000 0.97595  0.77266  0.96017  Biso   1.000  H
  H380     1.0000 0.76833  0.62028  0.08147  Biso   1.000  H
  C671     1.0000 0.82683  0.67095  0.04286  Biso   1.000  C
  H381     1.0000 0.63034  0.51677  0.00026  Biso   1.000  H
  C672     1.0000 0.62197  0.52255  0.92636  Biso   1.000  C
  H382     1.0000 0.62314  0.54448  0.85656  Biso   1.000  H
  H383     1.0000 0.85074  0.66867  0.06115  Biso   1.000  H
  H384     1.0000 0.60244  0.48898  0.92015  Biso   1.000  H
  C673     1.0000 0.24037  0.39405  0.22809  Biso   1.000  C
  C674     1.0000 0.19100  0.35602  0.22798  Biso   1.000  C
  H385     1.0000 0.25952  0.40205  0.25658  Biso   1.000  H
  C675     1.0000 0.25896  0.41848  0.18552  Biso   1.000  C
  O49      1.0000 0.17553  0.33210  0.27198  Biso   1.000  O
  N49      1.0000 0.16026  0.34349  0.19129  Biso   1.000  N
  C676     1.0000 0.22837  0.40632  0.14362  Biso   1.000  C
  H386     1.0000 0.29185  0.44329  0.18375  Biso   1.000  H
  C677     1.0000 0.12750  0.29068  0.27679  Biso   1.000  C
  C678     1.0000 0.17870  0.36958  0.14868  Biso   1.000  C
  C679     1.0000 0.24445  0.42884  0.09699  Biso   1.000  C
  C680     1.0000 0.12219  0.24469  0.26980  Biso   1.000  C
  C681     1.0000 0.09033  0.29765  0.29275  Biso   1.000  C
  N50      1.0000 0.14485  0.35820  0.11174  Biso   1.000  N
  C682     1.0000 0.21137  0.41694  0.05978  Biso   1.000  C
  H387     1.0000 0.27752  0.45176  0.09178  Biso   1.000  H
  C683     1.0000 0.07759  0.20401  0.28122  Biso   1.000  C
  H388     1.0000 0.14805  0.24127  0.25765  Biso   1.000  H
  C684     1.0000 0.04522  0.25704  0.30420  Biso   1.000  C
  H389     1.0000 0.09512  0.32927  0.29597  Biso   1.000  H
  C685     1.0000 0.16194  0.38266  0.07024  Biso   1.000  C
  H390     1.0000 0.22115  0.43087  0.02856  Biso   1.000  H
  C686     1.0000 0.06539  0.15094  0.28015  Biso   1.000  C
  C687     1.0000 0.03877  0.21005  0.29933  Biso   1.000  C
  H391     1.0000 0.01933  0.26117  0.31507  Biso   1.000  H
  O50      1.0000 0.13036  0.37511  0.03148  Biso   1.000  O
  C688     1.0000 0.01775  0.12231  0.25085  Biso   1.000  C
  H392     1.0000 0.09235  0.14678  0.26726  Biso   1.000  H
  C689     1.0000 0.05108  0.13241  0.33358  Biso   1.000  C
  C690     1.0000 0.99390  0.16115  0.31418  Biso   1.000  C
  C691     1.0000 0.08034  0.35753  0.03872  Biso   1.000  C
  C692     1.0000 0.01028  0.09231  0.21054  Biso   1.000  C
  C693     1.0000 0.97932  0.12798  0.26910  Biso   1.000  C
  C694     1.0000 0.07263  0.11162  0.36247  Biso   1.000  C
  C695     1.0000 0.01289  0.13863  0.35183  Biso   1.000  C
  H393     1.0000 0.96683  0.16517  0.32697  Biso   1.000  H
  C696     1.0000 0.06181  0.37172  0.07745  Biso   1.000  C
  C697     1.0000 0.04999  0.32912  0.99941  Biso   1.000  C
  H394     1.0000 0.03603  0.08877  0.19798  Biso   1.000  H
  C698     1.0000 0.96394  0.06747  0.18892  Biso   1.000  C
  C699     1.0000 0.93279  0.10226  0.24767  Biso   1.000  C
  H395     1.0000 0.09796  0.10738  0.35017  Biso   1.000  H
  C700     1.0000 0.05503  0.09736  0.41077  Biso   1.000  C
  C701     1.0000 0.99693  0.12504  0.39994  Biso   1.000  C
  C702     1.0000 0.01248  0.35801  0.07770  Biso   1.000  C
  H396     1.0000 0.08224  0.39037  0.10327  Biso   1.000  H
  H397     1.0000 0.06264  0.31906  0.97377  Biso   1.000  H
  C703     1.0000 0.00123  0.31655  0.99982  Biso   1.000  C
  O51      1.0000 0.95858  0.03512  0.15120  Biso   1.000  O
  C704     1.0000 0.92516  0.07193  0.20714  Biso   1.000  C
  H398     1.0000 0.90693  0.10536  0.26046  Biso   1.000  H
  H399     1.0000 0.06844  0.08288  0.43068  Biso   1.000  H
  C705     1.0000 0.01844  0.10447  0.42906  Biso   1.000  C
  H400     1.0000 0.97203  0.12968  0.41265  Biso   1.000  H
  C706     1.0000 0.98188  0.33078  0.03898  Biso   1.000  C
  H401     1.0000 0.99962  0.36715  0.10405  Biso   1.000  H
  C707     1.0000 0.96304  0.28678  0.96021  Biso   1.000  C
  C708     1.0000 0.92791  0.02701  0.11148  Biso   1.000  C
  H402     1.0000 0.89423  0.05476  0.19247  Biso   1.000  H
  H403     1.0000 0.00782  0.09537  0.46146  Biso   1.000  H
  C709     1.0000 0.92720  0.31313  0.03322  Biso   1.000  C
  H404     1.0000 0.97653  0.27686  0.93268  Biso   1.000  H
  C710     1.0000 0.94195  0.31954  0.94424  Biso   1.000  C
  C711     1.0000 0.92142  0.24355  0.98696  Biso   1.000  C
  C712     1.0000 0.91000  0.98021  0.08993  Biso   1.000  C
  N51      1.0000 0.91924  0.06143  0.09670  Biso   1.000  N
  C713     1.0000 0.92225  0.33310  0.98330  Biso   1.000  C
  H405     1.0000 0.91372  0.32308  0.06067  Biso   1.000  H
  C714     1.0000 0.90218  0.25774  0.02671  Biso   1.000  C
  C715     1.0000 0.94140  0.33553  0.89695  Biso   1.000  C
  C716     1.0000 0.90199  0.19417  0.97539  Biso   1.000  C
  C717     1.0000 0.87787  0.96893  0.05125  Biso   1.000  C
  H406     1.0000 0.91944  0.95817  0.10128  Biso   1.000  H
  C718     1.0000 0.88749  0.05008  0.05801  Biso   1.000  C
  C719     1.0000 0.90073  0.36155  0.97454  Biso   1.000  C
  C720     1.0000 0.86410  0.22236  0.05469  Biso   1.000  C
  H407     1.0000 0.95452  0.32636  0.87097  Biso   1.000  H
  C721     1.0000 0.92106  0.36538  0.88834  Biso   1.000  C
  C722     1.0000 0.86297  0.15971  0.00403  Biso   1.000  C
  H408     1.0000 0.91455  0.18437  0.94938  Biso   1.000  H
  H409     1.0000 0.86484  0.93846  0.03577  Biso   1.000  H
  C723     1.0000 0.86445  0.00317  0.03484  Biso   1.000  C
  N52      1.0000 0.87928  0.08715  0.04260  Biso   1.000  N
  C724     1.0000 0.90057  0.37802  0.92636  Biso   1.000  C
  H410     1.0000 0.88643  0.36966  0.00026  Biso   1.000  H
  C725     1.0000 0.84410  0.17316  0.04286  Biso   1.000  C
  H411     1.0000 0.85194  0.23168  0.08147  Biso   1.000  H
  H412     1.0000 0.92135  0.37688  0.85656  Biso   1.000  H
  O52      1.0000 0.83875  0.11070  0.98733  Biso   1.000  O
  C726     1.0000 0.82976  0.99392  0.99704  Biso   1.000  C
  C727     1.0000 0.84756  0.07625  0.00691  Biso   1.000  C
  H413     1.0000 0.88653  0.39755  0.92015  Biso   1.000  H
  H414     1.0000 0.81796  0.14928  0.06115  Biso   1.000  H
  H415     1.0000 0.81353  0.96337  0.98156  Biso   1.000  H
  C728     1.0000 0.82048  0.02974  0.98389  Biso   1.000  C
  H416     1.0000 0.79674  0.02406  0.96017  Biso   1.000  H
  C729     1.0000 0.75963  0.60595  0.77191  Biso   1.000  C
  C730     1.0000 0.80900  0.64398  0.77202  Biso   1.000  C
  H417     1.0000 0.74048  0.59795  0.74342  Biso   1.000  H
  C731     1.0000 0.74103  0.58151  0.81448  Biso   1.000  C
  O53      1.0000 0.82447  0.66789  0.72802  Biso   1.000  O
  N53      1.0000 0.83974  0.65651  0.80871  Biso   1.000  N
  H418     1.0000 0.70816  0.55675  0.81625  Biso   1.000  H
  C732     1.0000 0.77163  0.59368  0.85638  Biso   1.000  C
  C733     1.0000 0.87250  0.70931  0.72321  Biso   1.000  C
  C734     1.0000 0.82130  0.63042  0.85132  Biso   1.000  C
  C735     1.0000 0.75555  0.57116  0.90301  Biso   1.000  C
  C736     1.0000 0.87781  0.75531  0.73020  Biso   1.000  C
  C737     1.0000 0.90967  0.70235  0.70725  Biso   1.000  C
  N54      1.0000 0.85515  0.64180  0.88826  Biso   1.000  N
  H419     1.0000 0.72248  0.54824  0.90822  Biso   1.000  H
  C738     1.0000 0.78863  0.58306  0.94022  Biso   1.000  C
  C739     1.0000 0.92241  0.79599  0.71878  Biso   1.000  C
  H420     1.0000 0.85195  0.75873  0.74235  Biso   1.000  H
  H421     1.0000 0.90487  0.67073  0.70403  Biso   1.000  H
  C740     1.0000 0.95478  0.74296  0.69580  Biso   1.000  C
  C741     1.0000 0.83806  0.61733  0.92976  Biso   1.000  C
  H422     1.0000 0.77885  0.56913  0.97144  Biso   1.000  H
  C742     1.0000 0.93461  0.84906  0.71985  Biso   1.000  C
  C743     1.0000 0.96123  0.78995  0.70067  Biso   1.000  C
  H423     1.0000 0.98067  0.73883  0.68493  Biso   1.000  H
  O54      1.0000 0.86963  0.62489  0.96852  Biso   1.000  O
  C744     1.0000 0.98225  0.87769  0.74915  Biso   1.000  C
  H424     1.0000 0.90765  0.85322  0.73274  Biso   1.000  H
  C745     1.0000 0.94892  0.86759  0.66642  Biso   1.000  C
  C746     1.0000 0.00610  0.83885  0.68582  Biso   1.000  C
  C747     1.0000 0.91966  0.64247  0.96128  Biso   1.000  C
  C748     1.0000 0.98971  0.90769  0.78946  Biso   1.000  C
  C749     1.0000 0.02068  0.87201  0.73090  Biso   1.000  C
  C750     1.0000 0.92737  0.88838  0.63753  Biso   1.000  C
  C751     1.0000 0.98711  0.86136  0.64817  Biso   1.000  C
  H425     1.0000 0.03317  0.83483  0.67303  Biso   1.000  H
  C752     1.0000 0.93819  0.62828  0.92255  Biso   1.000  C
  C753     1.0000 0.95001  0.67088  0.00059  Biso   1.000  C
  H426     1.0000 0.96397  0.91122  0.80202  Biso   1.000  H
  C754     1.0000 0.03606  0.93252  0.81108  Biso   1.000  C
  C755     1.0000 0.06721  0.89774  0.75233  Biso   1.000  C
  H427     1.0000 0.90206  0.89265  0.64983  Biso   1.000  H
  C756     1.0000 0.94497  0.90264  0.58923  Biso   1.000  C
  C757     1.0000 0.00306  0.87496  0.60006  Biso   1.000  C
  C758     1.0000 0.98752  0.64199  0.92230  Biso   1.000  C
  H428     1.0000 0.91776  0.60963  0.89673  Biso   1.000  H
  H429     1.0000 0.93736  0.68094  0.02623  Biso   1.000  H
  C759     1.0000 0.99877  0.68345  0.00018  Biso   1.000  C
  O55      1.0000 0.04142  0.96488  0.84880  Biso   1.000  O
  C760     1.0000 0.07484  0.92806  0.79286  Biso   1.000  C
  H430     1.0000 0.09307  0.89464  0.73954  Biso   1.000  H
  H431     1.0000 0.93156  0.91712  0.56932  Biso   1.000  H
  C761     1.0000 0.98156  0.89552  0.57094  Biso   1.000  C
  H432     1.0000 0.02797  0.87032  0.58735  Biso   1.000  H
  C762     1.0000 0.01812  0.66922  0.96102  Biso   1.000  C
  H433     1.0000 0.00038  0.63285  0.89595  Biso   1.000  H
  C763     1.0000 0.03696  0.71322  0.03979  Biso   1.000  C
  C764     1.0000 0.07209  0.97299  0.88852  Biso   1.000  C
  H434     1.0000 0.10576  0.94524  0.80753  Biso   1.000  H
  H435     1.0000 0.99217  0.90463  0.53854  Biso   1.000  H
  C765     1.0000 0.07280  0.68687  0.96678  Biso   1.000  C
  H436     1.0000 0.02347  0.72313  0.06732  Biso   1.000  H
  C766     1.0000 0.05804  0.68046  0.05576  Biso   1.000  C
  C767     1.0000 0.07858  0.75645  0.01304  Biso   1.000  C
  N55      1.0000 0.08076  0.93857  0.90330  Biso   1.000  N
  C768     1.0000 0.09000  0.01979  0.91007  Biso   1.000  C
  H437     1.0000 0.08628  0.67692  0.93933  Biso   1.000  H
  C769     1.0000 0.09782  0.74226  0.97329  Biso   1.000  C
  C770     1.0000 0.07775  0.66690  0.01670  Biso   1.000  C
  C771     1.0000 0.05860  0.66447  0.10305  Biso   1.000  C
  C772     1.0000 0.09801  0.80583  0.02461  Biso   1.000  C
  C773     1.0000 0.11251  0.94992  0.94199  Biso   1.000  C
  C774     1.0000 0.12213  0.03106  0.94875  Biso   1.000  C
  H438     1.0000 0.08056  0.04182  0.89872  Biso   1.000  H
  C775     1.0000 0.13590  0.77764  0.94531  Biso   1.000  C
  C776     1.0000 0.09927  0.63845  0.02546  Biso   1.000  C
  H439     1.0000 0.04548  0.67364  0.12903  Biso   1.000  H
  C777     1.0000 0.07894  0.63462  0.11166  Biso   1.000  C
  C778     1.0000 0.13703  0.84028  0.99597  Biso   1.000  C
  H440     1.0000 0.08545  0.81563  0.05062  Biso   1.000  H
  N56      1.0000 0.12072  0.91285  0.95740  Biso   1.000  N
  C779     1.0000 0.13555  0.99683  0.96516  Biso   1.000  C
  H441     1.0000 0.13516  0.06154  0.96423  Biso   1.000  H
  H442     1.0000 0.14807  0.76835  0.91853  Biso   1.000  H
  C780     1.0000 0.15590  0.82683  0.95714  Biso   1.000  C
  H443     1.0000 0.11357  0.63034  0.99974  Biso   1.000  H
  C781     1.0000 0.09943  0.62198  0.07364  Biso   1.000  C
  H444     1.0000 0.07865  0.62312  0.14344  Biso   1.000  H
  O56      1.0000 0.16125  0.88930  0.01267  Biso   1.000  O
  C782     1.0000 0.15244  0.92375  0.99309  Biso   1.000  C
  C783     1.0000 0.17024  0.00608  0.00296  Biso   1.000  C
  H445     1.0000 0.18206  0.85075  0.93885  Biso   1.000  H
  H446     1.0000 0.11347  0.60245  0.07985  Biso   1.000  H
  C784     1.0000 0.17952  0.97026  0.01611  Biso   1.000  C
  H447     1.0000 0.18647  0.03663  0.01844  Biso   1.000  H
  H448     1.0000 0.20326  0.97593  0.03983  Biso   1.000  H
  C785     1.0000 0.24332  0.64685  0.75658  Biso   1.000  C
  C786     1.0000 0.21119  0.63558  0.71793  Biso   1.000  C
  H449     1.0000 0.25278  0.62485  0.76792  Biso   1.000  H
  C787     1.0000 0.26125  0.69369  0.77816  Biso   1.000  C
  C788     1.0000 0.19779  0.66985  0.70149  Biso   1.000  C
  H450     1.0000 0.19818  0.60514  0.70245  Biso   1.000  H
  N57      1.0000 0.25258  0.72811  0.76338  Biso   1.000  N
  O57      1.0000 0.29192  0.70180  0.81784  Biso   1.000  O
  C789     1.0000 0.16310  0.66060  0.66372  Biso   1.000  C
  C790     1.0000 0.22083  0.71676  0.72469  Biso   1.000  C
  C791     1.0000 0.29728  0.73415  0.85556  Biso   1.000  C
  C792     1.0000 0.15380  0.69638  0.65053  Biso   1.000  C
  H451     1.0000 0.14687  0.63005  0.64824  Biso   1.000  H
  N58      1.0000 0.21260  0.75379  0.70928  Biso   1.000  N
  C793     1.0000 0.34362  0.75899  0.87718  Biso   1.000  C
  C794     1.0000 0.25848  0.73857  0.87382  Biso   1.000  C
  C795     1.0000 0.18090  0.74292  0.67359  Biso   1.000  C
  H452     1.0000 0.13008  0.69074  0.62685  Biso   1.000  H
  H453     1.0000 0.36935  0.75542  0.86462  Biso   1.000  H
  C796     1.0000 0.35107  0.78895  0.91753  Biso   1.000  C
  C797     1.0000 0.26613  0.76894  0.91435  Biso   1.000  C
  H454     1.0000 0.22757  0.72144  0.85915  Biso   1.000  H
  O58      1.0000 0.17209  0.77738  0.65401  Biso   1.000  O
  C798     1.0000 0.31266  0.79466  0.93578  Biso   1.000  C
  C799     1.0000 0.39873  0.81762  0.94683  Biso   1.000  C
  H455     1.0000 0.24027  0.77204  0.92714  Biso   1.000  H
  C800     1.0000 0.19631  0.82639  0.67071  Biso   1.000  C
  C801     1.0000 0.32724  0.82783  0.98086  Biso   1.000  C
  H456     1.0000 0.42567  0.81342  0.93393  Biso   1.000  H
  C802     1.0000 0.41091  0.87065  0.94786  Biso   1.000  C
  C803     1.0000 0.38442  0.79908  0.00022  Biso   1.000  C
  C804     1.0000 0.17744  0.83984  0.70954  Biso   1.000  C
  C805     1.0000 0.23533  0.86085  0.64207  Biso   1.000  C
  H457     1.0000 0.30017  0.83185  0.99364  Biso   1.000  H
  C806     1.0000 0.37211  0.87673  0.96597  Biso   1.000  C
  C807     1.0000 0.34623  0.80531  0.01851  Biso   1.000  C
  C808     1.0000 0.45553  0.91137  0.93645  Biso   1.000  C
  C809     1.0000 0.40597  0.77830  0.02912  Biso   1.000  C
  C810     1.0000 0.19744  0.88904  0.72136  Biso   1.000  C
  H458     1.0000 0.15128  0.81593  0.72783  Biso   1.000  H
  H459     1.0000 0.24789  0.85105  0.61602  Biso   1.000  H
  C811     1.0000 0.25476  0.91023  0.65364  Biso   1.000  C
  C812     1.0000 0.37856  0.92372  0.97085  Biso   1.000  C
  C813     1.0000 0.33026  0.79168  0.06662  Biso   1.000  C
  H460     1.0000 0.48139  0.90794  0.92433  Biso   1.000  H
  C814     1.0000 0.46084  0.95736  0.94347  Biso   1.000  C
  H461     1.0000 0.43128  0.77403  0.01685  Biso   1.000  H
  C815     1.0000 0.38837  0.76404  0.07745  Biso   1.000  C
  C816     1.0000 0.23552  0.92442  0.69336  Biso   1.000  C
  H462     1.0000 0.18526  0.89833  0.74812  Biso   1.000  H
  C817     1.0000 0.29636  0.95342  0.62688  Biso   1.000  C
  C818     1.0000 0.42366  0.96433  0.95943  Biso   1.000  C
  H463     1.0000 0.35267  0.92784  0.98175  Biso   1.000  H
  C819     1.0000 0.35178  0.77115  0.09574  Biso   1.000  C
  H464     1.0000 0.30535  0.79632  0.07933  Biso   1.000  H
  O59      1.0000 0.50887  0.99878  0.93866  Biso   1.000  O
  H465     1.0000 0.40176  0.74952  0.09732  Biso   1.000  H
  C820     1.0000 0.26053  0.97980  0.69986  Biso   1.000  C
  C821     1.0000 0.33457  0.98323  0.66649  Biso   1.000  C
  H466     1.0000 0.30987  0.94354  0.59932  Biso   1.000  H
  C822     1.0000 0.27529  0.98622  0.61092  Biso   1.000  C
  H467     1.0000 0.42846  0.99594  0.96264  Biso   1.000  H
  H468     1.0000 0.34116  0.76205  0.12814  Biso   1.000  H
  C823     1.0000 0.52434  0.02270  0.89466  Biso   1.000  C
  C824     1.0000 0.31522  0.99746  0.70566  Biso   1.000  C
  C825     1.0000 0.25559  0.99978  0.64998  Biso   1.000  C
  H469     1.0000 0.24704  0.98972  0.72735  Biso   1.000  H
  C826     1.0000 0.38331  0.99576  0.66609  Biso   1.000  C
  C827     1.0000 0.27472  0.00217  0.56363  Biso   1.000  C
  N59      1.0000 0.49358  0.01013  0.85793  Biso   1.000  N
  C828     1.0000 0.57370  0.06073  0.89473  Biso   1.000  C
  C829     1.0000 0.34582  0.02469  0.74435  Biso   1.000  C
  C830     1.0000 0.23407  0.02823  0.64122  Biso   1.000  C
  H470     1.0000 0.39598  0.98574  0.64044  Biso   1.000  H
  C831     1.0000 0.41368  0.02421  0.70540  Biso   1.000  C
  H471     1.0000 0.28786  0.99303  0.53765  Biso   1.000  H
  C832     1.0000 0.25440  0.03206  0.55502  Biso   1.000  C
  C833     1.0000 0.51203  0.03626  0.81533  Biso   1.000  C
  H472     1.0000 0.59286  0.06873  0.92322  Biso   1.000  H
  C834     1.0000 0.59230  0.08516  0.85217  Biso   1.000  C
  H473     1.0000 0.33296  0.03383  0.77073  Biso   1.000  H
  C835     1.0000 0.39513  0.03836  0.74409  Biso   1.000  C
  C836     1.0000 0.23391  0.04470  0.59304  Biso   1.000  C
  H474     1.0000 0.21977  0.03633  0.66694  Biso   1.000  H
  O60      1.0000 0.46369  0.04175  0.69812  Biso   1.000  O
  H475     1.0000 0.25467  0.04352  0.52324  Biso   1.000  H
  N60      1.0000 0.47819  0.02487  0.77838  Biso   1.000  N
  C837     1.0000 0.56171  0.07300  0.81026  Biso   1.000  C
  H476     1.0000 0.62517  0.10993  0.85043  Biso   1.000  H
  H477     1.0000 0.41558  0.05704  0.76992  Biso   1.000  H
  H478     1.0000 0.21987  0.06423  0.58683  Biso   1.000  H
  C838     1.0000 0.49526  0.04931  0.73692  Biso   1.000  C
  C839     1.0000 0.57779  0.09552  0.76367  Biso   1.000  C
  C840     1.0000 0.54469  0.08358  0.72643  Biso   1.000  C
  H479     1.0000 0.61086  0.11844  0.75842  Biso   1.000  H
  H480     1.0000 0.55448  0.09754  0.69524  Biso   1.000  H
  C841     1.0000 0.75668  0.35315  0.24342  Biso   1.000  C
  C842     1.0000 0.73875  0.30631  0.22184  Biso   1.000  C
  C843     1.0000 0.78881  0.36442  0.28207  Biso   1.000  C
  H481     1.0000 0.74724  0.37518  0.23208  Biso   1.000  H
  O61      1.0000 0.70808  0.29820  0.18216  Biso   1.000  O
  N61      1.0000 0.74742  0.27189  0.23662  Biso   1.000  N
  C844     1.0000 0.80221  0.33015  0.29851  Biso   1.000  C
  H482     1.0000 0.80182  0.39486  0.29755  Biso   1.000  H
  C845     1.0000 0.70272  0.26585  0.14444  Biso   1.000  C
  C846     1.0000 0.77917  0.28324  0.27531  Biso   1.000  C
  C847     1.0000 0.83690  0.33940  0.33628  Biso   1.000  C
  C848     1.0000 0.65638  0.24101  0.12282  Biso   1.000  C
  C849     1.0000 0.74152  0.26142  0.12618  Biso   1.000  C
  N62      1.0000 0.78740  0.24620  0.29072  Biso   1.000  N
  C850     1.0000 0.84620  0.30362  0.34947  Biso   1.000  C
  H483     1.0000 0.85313  0.36995  0.35176  Biso   1.000  H
  H484     1.0000 0.63065  0.24458  0.13538  Biso   1.000  H
  C851     1.0000 0.64893  0.21105  0.08247  Biso   1.000  C
  C852     1.0000 0.73387  0.23106  0.08565  Biso   1.000  C
  H485     1.0000 0.77243  0.27856  0.14085  Biso   1.000  H
  C853     1.0000 0.81910  0.25708  0.32641  Biso   1.000  C
  H486     1.0000 0.86992  0.30926  0.37315  Biso   1.000  H
  C854     1.0000 0.68734  0.20534  0.06422  Biso   1.000  C
  C855     1.0000 0.60129  0.18241  0.05317  Biso   1.000  C
  H487     1.0000 0.75973  0.22796  0.07286  Biso   1.000  H
  O62      1.0000 0.82791  0.22262  0.34599  Biso   1.000  O
  C856     1.0000 0.67276  0.17217  0.01914  Biso   1.000  C
  H488     1.0000 0.57433  0.18658  0.06607  Biso   1.000  H
  C857     1.0000 0.58909  0.12935  0.05214  Biso   1.000  C
  C858     1.0000 0.61558  0.20091  0.99978  Biso   1.000  C
  C859     1.0000 0.80369  0.17361  0.32929  Biso   1.000  C
  H489     1.0000 0.69983  0.16815  0.00636  Biso   1.000  H
  C860     1.0000 0.62789  0.12327  0.03403  Biso   1.000  C
  C861     1.0000 0.65377  0.19469  0.98149  Biso   1.000  C
  C862     1.0000 0.54447  0.08863  0.06355  Biso   1.000  C
  C863     1.0000 0.59403  0.22170  0.97088  Biso   1.000  C
  C864     1.0000 0.82256  0.16016  0.29046  Biso   1.000  C
  C865     1.0000 0.76467  0.13915  0.35793  Biso   1.000  C
  C866     1.0000 0.62144  0.07628  0.02915  Biso   1.000  C
  C867     1.0000 0.66974  0.20832  0.93338  Biso   1.000  C
  H490     1.0000 0.51861  0.09205  0.07567  Biso   1.000  H
  C868     1.0000 0.53918  0.04267  0.05653  Biso   1.000  C
  H491     1.0000 0.56872  0.22597  0.98315  Biso   1.000  H
  C869     1.0000 0.61163  0.23596  0.92255  Biso   1.000  C
  C870     1.0000 0.80256  0.11096  0.27864  Biso   1.000  C
  H492     1.0000 0.84872  0.18407  0.27217  Biso   1.000  H
  H493     1.0000 0.75211  0.14895  0.38398  Biso   1.000  H
  C871     1.0000 0.74524  0.08977  0.34636  Biso   1.000  C
  C872     1.0000 0.57633  0.03567  0.04057  Biso   1.000  C
  H494     1.0000 0.64733  0.07215  0.01825  Biso   1.000  H
  C873     1.0000 0.64824  0.22888  0.90426  Biso   1.000  C
  H495     1.0000 0.69465  0.20368  0.92067  Biso   1.000  H
  O63      1.0000 0.49113  0.00122  0.06134  Biso   1.000  O
  H496     1.0000 0.59824  0.25048  0.90268  Biso   1.000  H
  C874     1.0000 0.76448  0.07558  0.30664  Biso   1.000  C
  H497     1.0000 0.81474  0.10167  0.25188  Biso   1.000  H
  C875     1.0000 0.70364  0.04658  0.37312  Biso   1.000  C
  H498     1.0000 0.57154  0.00405  0.03736  Biso   1.000  H
  H499     1.0000 0.65884  0.23795  0.87186  Biso   1.000  H
  C876     1.0000 0.47566  0.97730  0.10534  Biso   1.000  C
  C877     1.0000 0.73946  0.02019  0.30014  Biso   1.000  C
  C878     1.0000 0.66543  0.01677  0.33351  Biso   1.000  C
  H500     1.0000 0.69013  0.05646  0.40068  Biso   1.000  H
  C879     1.0000 0.72471  0.01378  0.38908  Biso   1.000  C
  N63      1.0000 0.50642  0.98987  0.14207  Biso   1.000  N
  C880     1.0000 0.42629  0.93927  0.10527  Biso   1.000  C
  C881     1.0000 0.68478  0.00254  0.29434  Biso   1.000  C
  C882     1.0000 0.74441  0.00022  0.35002  Biso   1.000  C
  H501     1.0000 0.75295  0.01028  0.27265  Biso   1.000  H
  C883     1.0000 0.61669  0.00424  0.33391  Biso   1.000  C
  C884     1.0000 0.72528  0.99783  0.43637  Biso   1.000  C
  C885     1.0000 0.48796  0.96374  0.18467  Biso   1.000  C
  H502     1.0000 0.40714  0.93127  0.07678  Biso   1.000  H
  C886     1.0000 0.40770  0.91484  0.14783  Biso   1.000  C
  C887     1.0000 0.65418  0.97531  0.25565  Biso   1.000  C
  C888     1.0000 0.76593  0.97177  0.35878  Biso   1.000  C
  C889     1.0000 0.58632  0.97579  0.29460  Biso   1.000  C
  H503     1.0000 0.60402  0.01426  0.35956  Biso   1.000  H
  H504     1.0000 0.71214  0.00696  0.46235  Biso   1.000  H
  C890     1.0000 0.74560  0.96794  0.44498  Biso   1.000  C
  N64      1.0000 0.52181  0.97513  0.22162  Biso   1.000  N
  C891     1.0000 0.43829  0.92700  0.18974  Biso   1.000  C
  H505     1.0000 0.37482  0.89007  0.14957  Biso   1.000  H
  C892     1.0000 0.60487  0.96164  0.25591  Biso   1.000  C
  H506     1.0000 0.66704  0.96617  0.22927  Biso   1.000  H
  C893     1.0000 0.76611  0.95534  0.40696  Biso   1.000  C
  H507     1.0000 0.78023  0.96366  0.33306  Biso   1.000  H
  O64      1.0000 0.53631  0.95825  0.30188  Biso   1.000  O
  H508     1.0000 0.74533  0.95648  0.47676  Biso   1.000  H
  C894     1.0000 0.50474  0.95069  0.26308  Biso   1.000  C
  C895     1.0000 0.42221  0.90448  0.23633  Biso   1.000  C
  H509     1.0000 0.58442  0.94295  0.23008  Biso   1.000  H
  H510     1.0000 0.78013  0.93577  0.41317  Biso   1.000  H
  C896     1.0000 0.45531  0.91642  0.27357  Biso   1.000  C
  H511     1.0000 0.38914  0.88156  0.24158  Biso   1.000  H
  H512     1.0000 0.44551  0.90245  0.30476  Biso   1.000  H
  C897     1.0000 0.15954  0.74104  0.18552  Biso   1.000  C
  C898     1.0000 0.15366  0.75962  0.22809  Biso   1.000  C
  H513     1.0000 0.15143  0.70817  0.18375  Biso   1.000  H
  C899     1.0000 0.17796  0.77163  0.14362  Biso   1.000  C
  C900     1.0000 0.16505  0.80900  0.22798  Biso   1.000  C
  H514     1.0000 0.14252  0.74045  0.25658  Biso   1.000  H
  C901     1.0000 0.18436  0.75553  0.09699  Biso   1.000  C
  C902     1.0000 0.19089  0.82131  0.14868  Biso   1.000  C
  O65      1.0000 0.15660  0.82448  0.27198  Biso   1.000  O
  N65      1.0000 0.18322  0.83973  0.19129  Biso   1.000  N
  H515     1.0000 0.17425  0.72247  0.09178  Biso   1.000  H
  C903     1.0000 0.20554  0.78862  0.05978  Biso   1.000  C
  N66      1.0000 0.21336  0.85514  0.11174  Biso   1.000  N
  C904     1.0000 0.16321  0.87253  0.27679  Biso   1.000  C
  H516     1.0000 0.20972  0.77885  0.02856  Biso   1.000  H
  C905     1.0000 0.22072  0.83807  0.07024  Biso   1.000  C
  C906     1.0000 0.12250  0.87780  0.26980  Biso   1.000  C
  C907     1.0000 0.20731  0.90968  0.29275  Biso   1.000  C
  O66      1.0000 0.24473  0.86962  0.03148  Biso   1.000  O
  C908     1.0000 0.12638  0.92239  0.28122  Biso   1.000  C
  H517     1.0000 0.09325  0.85197  0.25765  Biso   1.000  H
  H518     1.0000 0.23413  0.90485  0.29597  Biso   1.000  H
  C909     1.0000 0.21180  0.95478  0.30420  Biso   1.000  C
  C910     1.0000 0.27722  0.91966  0.03872  Biso   1.000  C
  C911     1.0000 0.08555  0.93462  0.28015  Biso   1.000  C
  C912     1.0000 0.17127  0.96123  0.29933  Biso   1.000  C
  H519     1.0000 0.24184  0.98065  0.31507  Biso   1.000  H
  C913     1.0000 0.30991  0.93820  0.07745  Biso   1.000  C
  C914     1.0000 0.27912  0.95003  0.99941  Biso   1.000  C
  C915     1.0000 0.10456  0.98227  0.25085  Biso   1.000  C
  H520     1.0000 0.05442  0.90765  0.26726  Biso   1.000  H
  C916     1.0000 0.08134  0.94892  0.33358  Biso   1.000  C
  C917     1.0000 0.16729  0.00612  0.31418  Biso   1.000  C
  C918     1.0000 0.34554  0.98751  0.07770  Biso   1.000  C
  H521     1.0000 0.30813  0.91778  0.10327  Biso   1.000  H
  H522     1.0000 0.25641  0.93735  0.97377  Biso   1.000  H
  C919     1.0000 0.31532  0.99875  0.99982  Biso   1.000  C
  C920     1.0000 0.08205  0.98972  0.21054  Biso   1.000  C
  C921     1.0000 0.14865  0.02067  0.26910  Biso   1.000  C
  C922     1.0000 0.03900  0.92736  0.36247  Biso   1.000  C
  C923     1.0000 0.12574  0.98710  0.35183  Biso   1.000  C
  H523     1.0000 0.19833  0.03316  0.32697  Biso   1.000  H
  C924     1.0000 0.34892  0.01813  0.03898  Biso   1.000  C
  H524     1.0000 0.36755  0.00037  0.10405  Biso   1.000  H
  C925     1.0000 0.32374  0.03696  0.96021  Biso   1.000  C
  H525     1.0000 0.05273  0.96396  0.19798  Biso   1.000  H
  C926     1.0000 0.10355  0.03604  0.18892  Biso   1.000  C
  C927     1.0000 0.16950  0.06722  0.24767  Biso   1.000  C
  H526     1.0000 0.00945  0.90208  0.35017  Biso   1.000  H
  C928     1.0000 0.04235  0.94498  0.41077  Biso   1.000  C
  C929     1.0000 0.12810  0.00306  0.39994  Biso   1.000  C
  C930     1.0000 0.38593  0.07282  0.03322  Biso   1.000  C
  H527     1.0000 0.30034  0.02347  0.93268  Biso   1.000  H
  C931     1.0000 0.37759  0.05804  0.94424  Biso   1.000  C
  C932     1.0000 0.32216  0.07860  0.98696  Biso   1.000  C
  O67      1.0000 0.07656  0.04142  0.15120  Biso   1.000  O
  C933     1.0000 0.14676  0.07484  0.20714  Biso   1.000  C
  H528     1.0000 0.19844  0.09305  0.26046  Biso   1.000  H
  H529     1.0000 0.01442  0.93157  0.43068  Biso   1.000  H
  C934     1.0000 0.08605  0.98157  0.42906  Biso   1.000  C
  H530     1.0000 0.15763  0.02797  0.41265  Biso   1.000  H
  C935     1.0000 0.41084  0.07775  0.98330  Biso   1.000  C
  H531     1.0000 0.40935  0.08627  0.06067  Biso   1.000  H
  C936     1.0000 0.35556  0.09780  0.02671  Biso   1.000  C
  C937     1.0000 0.39411  0.05859  0.89695  Biso   1.000  C
  C938     1.0000 0.29215  0.09799  0.97539  Biso   1.000  C
  C939     1.0000 0.09910  0.07208  0.11148  Biso   1.000  C
  H532     1.0000 0.16053  0.10576  0.19247  Biso   1.000  H
  H533     1.0000 0.08751  0.99215  0.46146  Biso   1.000  H
  C940     1.0000 0.46082  0.09928  0.97454  Biso   1.000  C
  C941     1.0000 0.35828  0.13591  0.05469  Biso   1.000  C
  H534     1.0000 0.37185  0.04547  0.87097  Biso   1.000  H
  C942     1.0000 0.44433  0.07893  0.88834  Biso   1.000  C
  H535     1.0000 0.26983  0.08546  0.94938  Biso   1.000  H
  C943     1.0000 0.29676  0.13701  0.00403  Biso   1.000  C
  N67      1.0000 0.14218  0.08074  0.09670  Biso   1.000  N
  C944     1.0000 0.07021  0.08999  0.08993  Biso   1.000  C
  C945     1.0000 0.47746  0.09942  0.92636  Biso   1.000  C
  H536     1.0000 0.48322  0.11357  0.00026  Biso   1.000  H
  H537     1.0000 0.37974  0.14807  0.08147  Biso   1.000  H
  C946     1.0000 0.32904  0.15588  0.04286  Biso   1.000  C
  H538     1.0000 0.45553  0.07868  0.85656  Biso   1.000  H
  O68      1.0000 0.27194  0.16122  0.98733  Biso   1.000  O
  C947     1.0000 0.16262  0.11251  0.05801  Biso   1.000  C
  C948     1.0000 0.09103  0.12212  0.05125  Biso   1.000  C
  H539     1.0000 0.03871  0.08056  0.10128  Biso   1.000  H
  H540     1.0000 0.51103  0.11346  0.92015  Biso   1.000  H
  H541     1.0000 0.33135  0.18208  0.06115  Biso   1.000  H
  C949     1.0000 0.22866  0.15242  0.00691  Biso   1.000  C
  N68      1.0000 0.20787  0.12072  0.04260  Biso   1.000  N
  C950     1.0000 0.13871  0.13554  0.03484  Biso   1.000  C
  H542     1.0000 0.07365  0.13517  0.03577  Biso   1.000  H
  C951     1.0000 0.20926  0.17954  0.98389  Biso   1.000  C
  C952     1.0000 0.16415  0.17025  0.99704  Biso   1.000  C
  H543     1.0000 0.22735  0.20327  0.96017  Biso   1.000  H
  H544     1.0000 0.14985  0.18647  0.98156  Biso   1.000  H
  C953     1.0000 0.84046  0.25895  0.81448  Biso   1.000  C
  C954     1.0000 0.84633  0.24038  0.77191  Biso   1.000  C
  C955     1.0000 0.82204  0.22837  0.85638  Biso   1.000  C
  H545     1.0000 0.84857  0.29183  0.81625  Biso   1.000  H
  C956     1.0000 0.83495  0.19100  0.77202  Biso   1.000  C
  H546     1.0000 0.85748  0.25954  0.74342  Biso   1.000  H
  C957     1.0000 0.80911  0.17869  0.85132  Biso   1.000  C
  C958     1.0000 0.81564  0.24447  0.90301  Biso   1.000  C
  O69      1.0000 0.84339  0.17552  0.72802  Biso   1.000  O
  N69      1.0000 0.81678  0.16027  0.80871  Biso   1.000  N
  N70      1.0000 0.78664  0.14486  0.88826  Biso   1.000  N
  C959     1.0000 0.79446  0.21138  0.94022  Biso   1.000  C
  H547     1.0000 0.82575  0.27753  0.90822  Biso   1.000  H
  C960     1.0000 0.83679  0.12747  0.72321  Biso   1.000  C
  C961     1.0000 0.77928  0.16192  0.92976  Biso   1.000  C
  H548     1.0000 0.79028  0.22115  0.97144  Biso   1.000  H
  C962     1.0000 0.79269  0.09032  0.70725  Biso   1.000  C
  C963     1.0000 0.87750  0.12220  0.73020  Biso   1.000  C
  O70      1.0000 0.75527  0.13038  0.96852  Biso   1.000  O
  H549     1.0000 0.76587  0.09515  0.70403  Biso   1.000  H
  C964     1.0000 0.78820  0.04522  0.69580  Biso   1.000  C
  C965     1.0000 0.87362  0.07761  0.71878  Biso   1.000  C
  H550     1.0000 0.90675  0.14803  0.74235  Biso   1.000  H
  C966     1.0000 0.72278  0.08034  0.96128  Biso   1.000  C
  H551     1.0000 0.75816  0.01935  0.68493  Biso   1.000  H
  C967     1.0000 0.82873  0.03877  0.70067  Biso   1.000  C
  C968     1.0000 0.91444  0.06537  0.71985  Biso   1.000  C
  C969     1.0000 0.69009  0.06180  0.92255  Biso   1.000  C
  C970     1.0000 0.72087  0.04997  0.00059  Biso   1.000  C
  C971     1.0000 0.83271  0.99388  0.68582  Biso   1.000  C
  C972     1.0000 0.89544  0.01773  0.74915  Biso   1.000  C
  H552     1.0000 0.94558  0.09235  0.73274  Biso   1.000  H
  C973     1.0000 0.91866  0.05108  0.66642  Biso   1.000  C
  C974     1.0000 0.65446  0.01249  0.92230  Biso   1.000  C
  H553     1.0000 0.69187  0.08222  0.89673  Biso   1.000  H
  H554     1.0000 0.74359  0.06265  0.02623  Biso   1.000  H
  C975     1.0000 0.68468  0.00125  0.00018  Biso   1.000  C
  C976     1.0000 0.87426  0.01290  0.64817  Biso   1.000  C
  C977     1.0000 0.85135  0.97933  0.73090  Biso   1.000  C
  H555     1.0000 0.80167  0.96683  0.67303  Biso   1.000  H
  C978     1.0000 0.91795  0.01028  0.78946  Biso   1.000  C
  C979     1.0000 0.96100  0.07263  0.63753  Biso   1.000  C
  C980     1.0000 0.65108  0.98187  0.96102  Biso   1.000  C
  H556     1.0000 0.63245  0.99963  0.89595  Biso   1.000  H
  C981     1.0000 0.67626  0.96304  0.03979  Biso   1.000  C
  C982     1.0000 0.87190  0.99694  0.60006  Biso   1.000  C
  C983     1.0000 0.83050  0.93278  0.75233  Biso   1.000  C
  H557     1.0000 0.94727  0.03604  0.80202  Biso   1.000  H
  C984     1.0000 0.89645  0.96396  0.81108  Biso   1.000  C
  H558     1.0000 0.99057  0.09795  0.64983  Biso   1.000  H
  C985     1.0000 0.95765  0.05502  0.58923  Biso   1.000  C
  C986     1.0000 0.61407  0.92718  0.96678  Biso   1.000  C
  H559     1.0000 0.69966  0.97653  0.06732  Biso   1.000  H
  C987     1.0000 0.62241  0.94196  0.05576  Biso   1.000  C
  C988     1.0000 0.67786  0.92143  0.01304  Biso   1.000  C
  C989     1.0000 0.91395  0.01843  0.57094  Biso   1.000  C
  H560     1.0000 0.84237  0.97203  0.58735  Biso   1.000  H
  H561     1.0000 0.80156  0.90695  0.73954  Biso   1.000  H
  C990     1.0000 0.85324  0.92515  0.79286  Biso   1.000  C
  O71      1.0000 0.92344  0.95858  0.84880  Biso   1.000  O
  H562     1.0000 0.98558  0.06843  0.56932  Biso   1.000  H
  H563     1.0000 0.59065  0.91373  0.93933  Biso   1.000  H
  C991     1.0000 0.64443  0.90220  0.97329  Biso   1.000  C
  C992     1.0000 0.58916  0.92224  0.01670  Biso   1.000  C
  C993     1.0000 0.60589  0.94141  0.10305  Biso   1.000  C
  C994     1.0000 0.70785  0.90201  0.02461  Biso   1.000  C
  H564     1.0000 0.91249  0.00785  0.53854  Biso   1.000  H
  H565     1.0000 0.83947  0.89424  0.80753  Biso   1.000  H
  C995     1.0000 0.90090  0.92792  0.88852  Biso   1.000  C
  C996     1.0000 0.64172  0.86409  0.94531  Biso   1.000  C
  C997     1.0000 0.53918  0.90072  0.02546  Biso   1.000  C
  H566     1.0000 0.62815  0.95453  0.12903  Biso   1.000  H
  C998     1.0000 0.55567  0.92106  0.11166  Biso   1.000  C
  C999     1.0000 0.70324  0.86299  0.99597  Biso   1.000  C
  H567     1.0000 0.73017  0.91454  0.05062  Biso   1.000  H
  N71      1.0000 0.85782  0.91926  0.90330  Biso   1.000  N
  C1000    1.0000 0.92979  0.91001  0.91007  Biso   1.000  C
  H568     1.0000 0.62026  0.85193  0.91853  Biso   1.000  H
  C1001    1.0000 0.67096  0.84412  0.95714  Biso   1.000  C
  H569     1.0000 0.51677  0.88642  0.99974  Biso   1.000  H
  C1002    1.0000 0.52254  0.90058  0.07364  Biso   1.000  C
  H570     1.0000 0.54447  0.92132  0.14344  Biso   1.000  H
  O72      1.0000 0.72806  0.83878  0.01267  Biso   1.000  O
  C1003    1.0000 0.83738  0.88749  0.94199  Biso   1.000  C
  C1004    1.0000 0.90897  0.87787  0.94875  Biso   1.000  C
  H571     1.0000 0.96129  0.91944  0.89872  Biso   1.000  H
  H572     1.0000 0.66864  0.81792  0.93885  Biso   1.000  H
  H573     1.0000 0.48897  0.88653  0.07985  Biso   1.000  H
  C1005    1.0000 0.77134  0.84758  0.99309  Biso   1.000  C
  N72      1.0000 0.79213  0.87927  0.95740  Biso   1.000  N
  C1006    1.0000 0.86129  0.86446  0.96516  Biso   1.000  C
  H574     1.0000 0.92635  0.86483  0.96423  Biso   1.000  H
  C1007    1.0000 0.79074  0.82046  0.01611  Biso   1.000  C
  C1008    1.0000 0.83585  0.82975  0.00296  Biso   1.000  C
  H575     1.0000 0.77265  0.79673  0.03983  Biso   1.000  H
  H576     1.0000 0.85015  0.81353  0.01844  Biso   1.000  H
