data_image0
_cell_length_a       25.813
_cell_length_b       19.94
_cell_length_c       27.557
_cell_angle_alpha    90
_cell_angle_beta     101.78
_cell_angle_gamma    90

_symmetry_space_group_name_H-M    "P 1"
_symmetry_int_tables_number       1

loop_
  _symmetry_equiv_pos_as_xyz
  'x, y, z'

loop_
  _atom_site_label
  _atom_site_occupancy
  _atom_site_fract_x
  _atom_site_fract_y
  _atom_site_fract_z
  _atom_site_thermal_displace_type
  _atom_site_B_iso_or_equiv
  _atom_site_type_symbol
  C1       1.0000 0.48941  0.54910  0.44442  Biso   1.000  C
  C2       1.0000 0.52831  0.55898  0.41777  Biso   1.000  C
  C3       1.0000 0.48349  0.59659  0.48016  Biso   1.000  C
  H1       1.0000 0.46692  0.51088  0.43860  Biso   1.000  H
  O1       1.0000 0.54323  0.51058  0.38615  Biso   1.000  O
  C4       1.0000 0.56174  0.61670  0.42433  Biso   1.000  C
  C5       1.0000 0.51706  0.65120  0.49005  Biso   1.000  C
  H2       1.0000 0.45588  0.59132  0.49799  Biso   1.000  H
  C6       1.0000 0.50520  0.47869  0.35138  Biso   1.000  C
  H3       1.0000 0.58709  0.62442  0.40431  Biso   1.000  H
  C7       1.0000 0.55536  0.66018  0.46099  Biso   1.000  C
  C8       1.0000 0.52260  0.70060  0.53216  Biso   1.000  C
  N1       1.0000 0.45771  0.50065  0.33911  Biso   1.000  N
  C9       1.0000 0.52731  0.42101  0.32999  Biso   1.000  C
  C10      1.0000 0.59187  0.72061  0.47797  Biso   1.000  C
  C11      1.0000 0.57792  0.69208  0.56093  Biso   1.000  C
  H4       1.0000 0.49571  0.69308  0.55311  Biso   1.000  H
  C12      1.0000 0.51990  0.77121  0.51107  Biso   1.000  C
  C13      1.0000 0.42379  0.46640  0.30345  Biso   1.000  C
  C14      1.0000 0.49362  0.38852  0.29396  Biso   1.000  C
  H5       1.0000 0.56310  0.40732  0.34081  Biso   1.000  H
  H6       1.0000 0.61868  0.72798  0.45699  Biso   1.000  H
  C15      1.0000 0.61671  0.70301  0.53187  Biso   1.000  C
  C16      1.0000 0.55776  0.78099  0.48071  Biso   1.000  C
  C17      1.0000 0.59401  0.67392  0.61116  Biso   1.000  C
  C18      1.0000 0.48841  0.82482  0.52015  Biso   1.000  C
  N2       1.0000 0.37302  0.49052  0.29236  Biso   1.000  N
  C19      1.0000 0.43958  0.40928  0.27976  Biso   1.000  C
  H7       1.0000 0.50579  0.35140  0.27780  Biso   1.000  H
  C20      1.0000 0.66911  0.69689  0.55348  Biso   1.000  C
  C21      1.0000 0.56032  0.84358  0.45832  Biso   1.000  C
  C22      1.0000 0.64870  0.66841  0.63081  Biso   1.000  C
  H8       1.0000 0.56879  0.66570  0.63121  Biso   1.000  H
  H9       1.0000 0.46438  0.81921  0.54180  Biso   1.000  H
  C23      1.0000 0.49210  0.88641  0.49747  Biso   1.000  C
  C24      1.0000 0.34018  0.45782  0.25919  Biso   1.000  C
  C25      1.0000 0.40197  0.37678  0.24317  Biso   1.000  C
  H10      1.0000 0.69518  0.70371  0.53409  Biso   1.000  H
  C26      1.0000 0.68460  0.68099  0.60319  Biso   1.000  C
  C27      1.0000 0.52920  0.89428  0.46737  Biso   1.000  C
  H11      1.0000 0.58410  0.85030  0.43660  Biso   1.000  H
  H12      1.0000 0.66028  0.65552  0.66439  Biso   1.000  H
  H13      1.0000 0.46968  0.92252  0.50229  Biso   1.000  H
  C28      1.0000 0.35016  0.40000  0.23331  Biso   1.000  C
  O2       1.0000 0.28842  0.47904  0.24529  Biso   1.000  O
  H14      1.0000 0.41179  0.33952  0.22549  Biso   1.000  H
  H15      1.0000 0.72120  0.67889  0.61791  Biso   1.000  H
  O3       1.0000 0.53581  0.95878  0.44702  Biso   1.000  O
  H16      1.0000 0.32298  0.37808  0.21029  Biso   1.000  H
  C29      1.0000 0.27037  0.53320  0.27001  Biso   1.000  C
  C30      1.0000 0.50344  0.97688  0.40428  Biso   1.000  C
  C31      1.0000 0.27007  0.52849  0.32072  Biso   1.000  C
  C32      1.0000 0.24903  0.58791  0.24195  Biso   1.000  C
  N3       1.0000 0.46251  0.94032  0.38585  Biso   1.000  N
  C33      1.0000 0.51879  0.03791  0.38348  Biso   1.000  C
  C34      1.0000 0.24761  0.58210  0.34282  Biso   1.000  C
  H17      1.0000 0.28449  0.49062  0.33959  Biso   1.000  H
  H18      1.0000 0.24859  0.58932  0.20740  Biso   1.000  H
  C35      1.0000 0.22872  0.63952  0.26430  Biso   1.000  C
  C36      1.0000 0.43150  0.96299  0.34204  Biso   1.000  C
  C37      1.0000 0.48850  0.05822  0.34070  Biso   1.000  C
  H19      1.0000 0.54900  0.06259  0.39931  Biso   1.000  H
  C38      1.0000 0.22774  0.63631  0.31527  Biso   1.000  C
  H20      1.0000 0.24631  0.58029  0.37699  Biso   1.000  H
  C39      1.0000 0.20359  0.70140  0.23876  Biso   1.000  C
  N4       1.0000 0.38851  0.92367  0.32398  Biso   1.000  N
  C40      1.0000 0.44309  0.02161  0.31790  Biso   1.000  C
  H21      1.0000 0.49768  0.09789  0.32539  Biso   1.000  H
  C41      1.0000 0.20081  0.69764  0.33284  Biso   1.000  C
  C42      1.0000 0.23528  0.75988  0.26968  Biso   1.000  C
  H22      1.0000 0.20430  0.70321  0.20258  Biso   1.000  H
  C43      1.0000 0.14849  0.70782  0.24973  Biso   1.000  C
  C44      1.0000 0.35749  0.94328  0.28206  Biso   1.000  C
  C45      1.0000 0.41040  0.03862  0.27242  Biso   1.000  C
  C46      1.0000 0.23443  0.75762  0.31931  Biso   1.000  C
  C47      1.0000 0.14668  0.70321  0.30063  Biso   1.000  C
  H23      1.0000 0.20009  0.69579  0.36899  Biso   1.000  H
  C48      1.0000 0.26438  0.80822  0.25122  Biso   1.000  C
  C49      1.0000 0.09972  0.71229  0.21437  Biso   1.000  C
  O4       1.0000 0.31453  0.90752  0.25985  Biso   1.000  O
  C50      1.0000 0.36672  0.00080  0.25366  Biso   1.000  C
  H24      1.0000 0.41870  0.07648  0.25452  Biso   1.000  H
  C51      1.0000 0.25839  0.80652  0.35067  Biso   1.000  C
  C52      1.0000 0.09889  0.70401  0.31457  Biso   1.000  C
  C53      1.0000 0.29097  0.85632  0.28454  Biso   1.000  C
  H25      1.0000 0.26630  0.80888  0.21719  Biso   1.000  H
  H26      1.0000 0.10002  0.71419  0.18001  Biso   1.000  H
  C54      1.0000 0.05258  0.71399  0.22972  Biso   1.000  C
  H27      1.0000 0.34360  0.01199  0.22330  Biso   1.000  H
  H28      1.0000 0.25528  0.80622  0.38441  Biso   1.000  H
  C55      1.0000 0.28792  0.85762  0.33292  Biso   1.000  C
  C56      1.0000 0.05240  0.70878  0.27898  Biso   1.000  C
  H29      1.0000 0.09738  0.70120  0.34871  Biso   1.000  H
  H30      1.0000 0.02031  0.71861  0.20622  Biso   1.000  H
  H31      1.0000 0.30492  0.89178  0.35442  Biso   1.000  H
  H32      1.0000 0.01951  0.70848  0.28929  Biso   1.000  H
  C57      1.0000 0.51058  0.45090  0.55559  Biso   1.000  C
  C58      1.0000 0.51651  0.40341  0.51986  Biso   1.000  C
  C59      1.0000 0.47168  0.44102  0.58221  Biso   1.000  C
  H33      1.0000 0.53312  0.48912  0.56141  Biso   1.000  H
  C60      1.0000 0.48293  0.34880  0.50992  Biso   1.000  C
  H34      1.0000 0.54411  0.40868  0.50199  Biso   1.000  H
  C61      1.0000 0.43826  0.38330  0.57568  Biso   1.000  C
  O5       1.0000 0.45677  0.48942  0.61387  Biso   1.000  O
  C62      1.0000 0.47739  0.29940  0.46781  Biso   1.000  C
  C63      1.0000 0.44463  0.33982  0.53899  Biso   1.000  C
  H35      1.0000 0.41291  0.37558  0.59570  Biso   1.000  H
  C64      1.0000 0.49480  0.52131  0.64864  Biso   1.000  C
  C65      1.0000 0.42211  0.30792  0.43905  Biso   1.000  C
  H36      1.0000 0.50429  0.30692  0.44691  Biso   1.000  H
  C66      1.0000 0.48009  0.22879  0.48890  Biso   1.000  C
  C67      1.0000 0.40813  0.27939  0.52204  Biso   1.000  C
  N5       1.0000 0.54229  0.49935  0.66091  Biso   1.000  N
  C68      1.0000 0.47269  0.57899  0.67002  Biso   1.000  C
  C69      1.0000 0.40602  0.32608  0.38886  Biso   1.000  C
  C70      1.0000 0.38332  0.29699  0.46811  Biso   1.000  C
  C71      1.0000 0.44228  0.21901  0.51930  Biso   1.000  C
  C72      1.0000 0.51158  0.17518  0.47982  Biso   1.000  C
  H37      1.0000 0.38131  0.27202  0.54299  Biso   1.000  H
  C73      1.0000 0.57621  0.53360  0.69657  Biso   1.000  C
  C74      1.0000 0.50642  0.61148  0.70606  Biso   1.000  C
  H38      1.0000 0.43690  0.59268  0.65920  Biso   1.000  H
  C75      1.0000 0.35130  0.33159  0.36921  Biso   1.000  C
  H39      1.0000 0.43121  0.33430  0.36880  Biso   1.000  H
  C76      1.0000 0.33092  0.30311  0.44650  Biso   1.000  C
  C77      1.0000 0.43972  0.15642  0.54169  Biso   1.000  C
  H40      1.0000 0.53562  0.18079  0.45821  Biso   1.000  H
  C78      1.0000 0.50789  0.11359  0.50255  Biso   1.000  C
  N6       1.0000 0.62697  0.50948  0.70761  Biso   1.000  N
  C79      1.0000 0.56042  0.59072  0.72025  Biso   1.000  C
  H41      1.0000 0.49421  0.64860  0.72222  Biso   1.000  H
  C80      1.0000 0.31539  0.31901  0.39679  Biso   1.000  C
  H42      1.0000 0.33971  0.34448  0.33559  Biso   1.000  H
  H43      1.0000 0.30481  0.29629  0.46589  Biso   1.000  H
  C81      1.0000 0.47079  0.10572  0.53265  Biso   1.000  C
  H44      1.0000 0.41590  0.14970  0.56341  Biso   1.000  H
  H45      1.0000 0.53031  0.07748  0.49769  Biso   1.000  H
  C82      1.0000 0.65981  0.54218  0.74083  Biso   1.000  C
  C83      1.0000 0.59803  0.62322  0.75684  Biso   1.000  C
  H46      1.0000 0.27880  0.32111  0.38211  Biso   1.000  H
  O6       1.0000 0.46418  0.04122  0.55296  Biso   1.000  O
  O7       1.0000 0.71157  0.52096  0.75469  Biso   1.000  O
  C84      1.0000 0.64984  0.60000  0.76670  Biso   1.000  C
  H47      1.0000 0.58820  0.66048  0.77449  Biso   1.000  H
  C85      1.0000 0.49655  0.02312  0.59574  Biso   1.000  C
  C86      1.0000 0.72963  0.46680  0.73000  Biso   1.000  C
  H48      1.0000 0.67701  0.62192  0.78968  Biso   1.000  H
  N7       1.0000 0.53748  0.05968  0.61412  Biso   1.000  N
  C87      1.0000 0.48120  0.96209  0.61650  Biso   1.000  C
  C88      1.0000 0.72993  0.47151  0.67929  Biso   1.000  C
  C89      1.0000 0.75097  0.41209  0.75806  Biso   1.000  C
  C90      1.0000 0.56850  0.03701  0.65798  Biso   1.000  C
  H49      1.0000 0.45099  0.93741  0.60071  Biso   1.000  H
  C91      1.0000 0.51149  0.94178  0.65927  Biso   1.000  C
  C92      1.0000 0.75242  0.41790  0.65716  Biso   1.000  C
  H50      1.0000 0.71550  0.50938  0.66039  Biso   1.000  H
  H51      1.0000 0.75141  0.41068  0.79261  Biso   1.000  H
  C93      1.0000 0.77127  0.36048  0.73567  Biso   1.000  C
  N8       1.0000 0.61148  0.07633  0.67599  Biso   1.000  N
  C94      1.0000 0.55690  0.97839  0.68207  Biso   1.000  C
  H52      1.0000 0.50231  0.90211  0.67458  Biso   1.000  H
  C95      1.0000 0.77226  0.36369  0.68474  Biso   1.000  C
  H53      1.0000 0.75368  0.41971  0.62298  Biso   1.000  H
  C96      1.0000 0.79640  0.29860  0.76121  Biso   1.000  C
  C97      1.0000 0.64250  0.05672  0.71792  Biso   1.000  C
  C98      1.0000 0.58960  0.96138  0.72759  Biso   1.000  C
  C99      1.0000 0.79918  0.30236  0.66713  Biso   1.000  C
  C100     1.0000 0.76472  0.24012  0.73034  Biso   1.000  C
  H54      1.0000 0.79569  0.29679  0.79739  Biso   1.000  H
  C101     1.0000 0.85151  0.29218  0.75028  Biso   1.000  C
  O8       1.0000 0.68546  0.09248  0.74012  Biso   1.000  O
  C102     1.0000 0.63328  0.99920  0.74635  Biso   1.000  C
  H55      1.0000 0.58130  0.92352  0.74550  Biso   1.000  H
  C103     1.0000 0.76557  0.24238  0.68070  Biso   1.000  C
  C104     1.0000 0.85331  0.29679  0.69935  Biso   1.000  C
  H56      1.0000 0.79990  0.30421  0.63099  Biso   1.000  H
  C105     1.0000 0.73562  0.19178  0.74880  Biso   1.000  C
  C106     1.0000 0.90032  0.28771  0.78564  Biso   1.000  C
  C107     1.0000 0.70902  0.14368  0.71543  Biso   1.000  C
  H57      1.0000 0.65640  0.98801  0.77671  Biso   1.000  H
  C108     1.0000 0.74161  0.19348  0.64934  Biso   1.000  C
  C109     1.0000 0.90111  0.29599  0.68545  Biso   1.000  C
  H58      1.0000 0.73370  0.19112  0.78279  Biso   1.000  H
  H59      1.0000 0.89998  0.28581  0.82001  Biso   1.000  H
  C110     1.0000 0.94741  0.28601  0.77030  Biso   1.000  C
  C111     1.0000 0.71208  0.14238  0.66710  Biso   1.000  C
  H60      1.0000 0.74472  0.19378  0.61561  Biso   1.000  H
  C112     1.0000 0.94759  0.29122  0.72099  Biso   1.000  C
  H61      1.0000 0.90261  0.29880  0.65130  Biso   1.000  H
  H62      1.0000 0.97969  0.28139  0.79380  Biso   1.000  H
  H63      1.0000 0.69512  0.10822  0.64560  Biso   1.000  H
  H64      1.0000 0.98048  0.29152  0.71069  Biso   1.000  H
  O9       1.0000 0.65523  0.61128  0.35557  Biso   1.000  O
  C113     1.0000 0.66940  0.57839  0.31590  Biso   1.000  C
  C114     1.0000 0.66121  0.67979  0.36061  Biso   1.000  C
  C115     1.0000 0.65471  0.51048  0.31212  Biso   1.000  C
  C116     1.0000 0.69760  0.60662  0.28388  Biso   1.000  C
  N9       1.0000 0.62460  0.71670  0.33522  Biso   1.000  N
  C117     1.0000 0.70679  0.70241  0.39449  Biso   1.000  C
  C118     1.0000 0.67110  0.47252  0.27605  Biso   1.000  C
  H65      1.0000 0.63419  0.49132  0.33351  Biso   1.000  H
  C119     1.0000 0.71350  0.56861  0.24770  Biso   1.000  C
  H66      1.0000 0.70619  0.65291  0.28669  Biso   1.000  H
  C120     1.0000 0.62850  0.78571  0.34367  Biso   1.000  C
  C121     1.0000 0.70939  0.77091  0.40268  Biso   1.000  C
  H67      1.0000 0.73359  0.67262  0.41061  Biso   1.000  H
  C122     1.0000 0.66090  0.39789  0.26731  Biso   1.000  C
  C123     1.0000 0.70089  0.50100  0.24406  Biso   1.000  C
  H68      1.0000 0.73289  0.58852  0.22560  Biso   1.000  H
  N10      1.0000 0.58896  0.82312  0.31635  Biso   1.000  N
  C124     1.0000 0.67091  0.81429  0.37829  Biso   1.000  C
  H69      1.0000 0.73860  0.78872  0.42581  Biso   1.000  H
  C125     1.0000 0.63650  0.39062  0.21207  Biso   1.000  C
  H70      1.0000 0.63871  0.37778  0.28940  Biso   1.000  H
  C126     1.0000 0.71722  0.36540  0.27402  Biso   1.000  C
  C127     1.0000 0.71852  0.44729  0.21011  Biso   1.000  C
  C128     1.0000 0.59089  0.88791  0.32398  Biso   1.000  C
  C129     1.0000 0.66991  0.88701  0.38418  Biso   1.000  C
  C130     1.0000 0.58921  0.35958  0.19220  Biso   1.000  C
  C131     1.0000 0.66648  0.41911  0.18112  Biso   1.000  C
  C132     1.0000 0.74701  0.39388  0.24240  Biso   1.000  C
  C133     1.0000 0.73701  0.31369  0.30564  Biso   1.000  C
  H71      1.0000 0.74062  0.46700  0.18779  Biso   1.000  H
  O10      1.0000 0.55307  0.92708  0.29622  Biso   1.000  O
  C134     1.0000 0.63049  0.92131  0.35798  Biso   1.000  C
  H72      1.0000 0.69719  0.90908  0.40680  Biso   1.000  H
  C135     1.0000 0.57241  0.35552  0.14179  Biso   1.000  C
  H73      1.0000 0.56821  0.34112  0.21352  Biso   1.000  H
  C136     1.0000 0.65059  0.41339  0.13059  Biso   1.000  C
  C137     1.0000 0.79741  0.36881  0.24254  Biso   1.000  C
  H74      1.0000 0.71602  0.29478  0.32680  Biso   1.000  H
  C138     1.0000 0.78720  0.28922  0.30660  Biso   1.000  C
  C139     1.0000 0.52680  0.90060  0.24925  Biso   1.000  C
  H75      1.0000 0.62879  0.96861  0.36191  Biso   1.000  H
  O11      1.0000 0.52698  0.31861  0.12070  Biso   1.000  O
  C140     1.0000 0.60191  0.38190  0.11039  Biso   1.000  C
  H76      1.0000 0.67220  0.43039  0.10939  Biso   1.000  H
  C141     1.0000 0.81770  0.31640  0.27431  Biso   1.000  C
  H77      1.0000 0.81799  0.38731  0.22090  Biso   1.000  H
  H78      1.0000 0.80118  0.25431  0.32899  Biso   1.000  H
  C142     1.0000 0.47570  0.87658  0.24429  Biso   1.000  C
  C143     1.0000 0.55321  0.90150  0.21100  Biso   1.000  C
  C144     1.0000 0.47800  0.34729  0.11921  Biso   1.000  C
  H79      1.0000 0.58989  0.37909  0.07551  Biso   1.000  H
  H80      1.0000 0.85200  0.29900  0.27420  Biso   1.000  H
  C145     1.0000 0.45180  0.85331  0.19754  Biso   1.000  C
  H81      1.0000 0.45800  0.87598  0.27131  Biso   1.000  H
  C146     1.0000 0.52902  0.87808  0.16522  Biso   1.000  C
  H82      1.0000 0.58840  0.91820  0.21619  Biso   1.000  H
  N11      1.0000 0.47426  0.40401  0.14097  Biso   1.000  N
  C147     1.0000 0.43719  0.30978  0.09049  Biso   1.000  C
  C148     1.0000 0.39501  0.82528  0.18349  Biso   1.000  C
  C149     1.0000 0.47841  0.85331  0.15895  Biso   1.000  C
  H83      1.0000 0.54690  0.87909  0.13830  Biso   1.000  H
  C150     1.0000 0.42360  0.43009  0.13586  Biso   1.000  C
  C151     1.0000 0.38652  0.33531  0.08659  Biso   1.000  C
  H84      1.0000 0.44381  0.26941  0.07451  Biso   1.000  H
  C152     1.0000 0.40009  0.75481  0.16433  Biso   1.000  C
  H85      1.0000 0.37611  0.82648  0.21181  Biso   1.000  H
  C153     1.0000 0.36579  0.86590  0.13812  Biso   1.000  C
  C154     1.0000 0.44630  0.82312  0.11202  Biso   1.000  C
  C155     1.0000 0.37931  0.39689  0.10932  Biso   1.000  C
  N12      1.0000 0.42122  0.49152  0.15925  Biso   1.000  N
  H86      1.0000 0.35681  0.31138  0.06869  Biso   1.000  H
  C156     1.0000 0.38297  0.69519  0.18175  Biso   1.000  C
  C157     1.0000 0.42949  0.75401  0.12592  Biso   1.000  C
  C158     1.0000 0.32040  0.90201  0.13464  Biso   1.000  C
  C159     1.0000 0.39401  0.86449  0.09768  Biso   1.000  C
  H87      1.0000 0.46639  0.82141  0.08459  Biso   1.000  H
  C160     1.0000 0.32930  0.42909  0.10631  Biso   1.000  C
  C161     1.0000 0.37520  0.51881  0.15465  Biso   1.000  C
  C162     1.0000 0.39299  0.63591  0.16003  Biso   1.000  C
  H88      1.0000 0.36462  0.69539  0.20829  Biso   1.000  H
  C163     1.0000 0.43821  0.69308  0.10442  Biso   1.000  C
  H89      1.0000 0.30280  0.90542  0.16158  Biso   1.000  H
  C164     1.0000 0.30058  0.93440  0.08848  Biso   1.000  C
  C165     1.0000 0.37201  0.89599  0.05538  Biso   1.000  C
  C166     1.0000 0.32641  0.48992  0.12896  Biso   1.000  C
  H90      1.0000 0.29801  0.40832  0.08860  Biso   1.000  H
  O12      1.0000 0.37225  0.57813  0.17827  Biso   1.000  O
  C167     1.0000 0.42181  0.63280  0.12036  Biso   1.000  C
  H91      1.0000 0.45618  0.69308  0.07759  Biso   1.000  H
  H92      1.0000 0.26870  0.95958  0.08459  Biso   1.000  H
  C168     1.0000 0.32491  0.93039  0.05119  Biso   1.000  C
  H93      1.0000 0.38909  0.89458  0.02799  Biso   1.000  H
  H94      1.0000 0.29349  0.51189  0.12759  Biso   1.000  H
  H95      1.0000 0.42899  0.59142  0.10602  Biso   1.000  H
  H96      1.0000 0.30978  0.95160  0.02068  Biso   1.000  H
  O13      1.0000 0.34477  0.38872  0.64445  Biso   1.000  O
  C169     1.0000 0.33879  0.32021  0.63941  Biso   1.000  C
  C170     1.0000 0.33059  0.42161  0.68407  Biso   1.000  C
  C171     1.0000 0.29320  0.29759  0.60549  Biso   1.000  C
  N13      1.0000 0.37540  0.28330  0.66480  Biso   1.000  N
  C172     1.0000 0.30239  0.39338  0.71610  Biso   1.000  C
  C173     1.0000 0.34529  0.48952  0.68789  Biso   1.000  C
  C174     1.0000 0.29060  0.22909  0.59730  Biso   1.000  C
  H97      1.0000 0.26641  0.32738  0.58940  Biso   1.000  H
  C175     1.0000 0.37149  0.21429  0.65631  Biso   1.000  C
  C176     1.0000 0.28650  0.43139  0.75232  Biso   1.000  C
  H98      1.0000 0.29380  0.34709  0.71328  Biso   1.000  H
  H99      1.0000 0.36581  0.50868  0.66650  Biso   1.000  H
  C177     1.0000 0.32889  0.52748  0.72392  Biso   1.000  C
  H100     1.0000 0.26139  0.21128  0.57420  Biso   1.000  H
  C178     1.0000 0.32908  0.18571  0.62169  Biso   1.000  C
  N14      1.0000 0.41104  0.17688  0.68367  Biso   1.000  N
  C179     1.0000 0.29910  0.49900  0.75591  Biso   1.000  C
  H101     1.0000 0.26710  0.41148  0.77441  Biso   1.000  H
  C180     1.0000 0.33910  0.60211  0.73271  Biso   1.000  C
  C181     1.0000 0.33008  0.11299  0.61579  Biso   1.000  C
  C182     1.0000 0.40911  0.11209  0.67603  Biso   1.000  C
  C183     1.0000 0.28148  0.55271  0.78991  Biso   1.000  C
  C184     1.0000 0.36349  0.60938  0.78790  Biso   1.000  C
  H102     1.0000 0.36128  0.62222  0.71062  Biso   1.000  H
  C185     1.0000 0.28282  0.63460  0.72600  Biso   1.000  C
  H103     1.0000 0.30281  0.09092  0.59322  Biso   1.000  H
  C186     1.0000 0.36950  0.07869  0.64204  Biso   1.000  C
  O14      1.0000 0.44692  0.07292  0.70379  Biso   1.000  O
  C187     1.0000 0.33351  0.58089  0.81889  Biso   1.000  C
  C188     1.0000 0.25301  0.60612  0.75758  Biso   1.000  C
  H104     1.0000 0.25941  0.53300  0.81218  Biso   1.000  H
  C189     1.0000 0.41079  0.64042  0.80781  Biso   1.000  C
  C190     1.0000 0.26299  0.68631  0.69438  Biso   1.000  C
  H105     1.0000 0.37121  0.03139  0.63811  Biso   1.000  H
  C191     1.0000 0.47320  0.09940  0.75076  Biso   1.000  C
  C192     1.0000 0.34940  0.58661  0.86938  Biso   1.000  C
  C193     1.0000 0.20259  0.63119  0.75747  Biso   1.000  C
  C194     1.0000 0.42762  0.64448  0.85819  Biso   1.000  C
  H106     1.0000 0.43179  0.65888  0.78650  Biso   1.000  H
  H107     1.0000 0.28402  0.70522  0.67321  Biso   1.000  H
  C195     1.0000 0.21280  0.71078  0.69342  Biso   1.000  C
  C196     1.0000 0.44679  0.09850  0.78902  Biso   1.000  C
  C197     1.0000 0.52429  0.12342  0.75569  Biso   1.000  C
  C198     1.0000 0.39808  0.61810  0.88959  Biso   1.000  C
  H108     1.0000 0.32779  0.56961  0.89059  Biso   1.000  H
  C199     1.0000 0.18230  0.68360  0.72570  Biso   1.000  C
  H109     1.0000 0.18200  0.61269  0.77908  Biso   1.000  H
  O15      1.0000 0.47301  0.68139  0.87932  Biso   1.000  O
  H110     1.0000 0.19881  0.74569  0.67099  Biso   1.000  H
  H111     1.0000 0.41160  0.08180  0.78379  Biso   1.000  H
  C200     1.0000 0.47098  0.12192  0.83480  Biso   1.000  C
  C201     1.0000 0.54819  0.14669  0.80244  Biso   1.000  C
  H112     1.0000 0.54200  0.12402  0.72871  Biso   1.000  H
  H113     1.0000 0.41011  0.62091  0.92450  Biso   1.000  H
  H114     1.0000 0.14800  0.70100  0.72581  Biso   1.000  H
  C202     1.0000 0.52200  0.65271  0.88080  Biso   1.000  C
  H115     1.0000 0.45310  0.12091  0.86171  Biso   1.000  H
  C203     1.0000 0.52162  0.14669  0.84102  Biso   1.000  C
  C204     1.0000 0.60498  0.17472  0.81648  Biso   1.000  C
  N15      1.0000 0.52574  0.59599  0.85904  Biso   1.000  N
  C205     1.0000 0.56281  0.69022  0.90949  Biso   1.000  C
  C206     1.0000 0.55369  0.17688  0.88795  Biso   1.000  C
  H116     1.0000 0.62388  0.17352  0.78820  Biso   1.000  H
  C207     1.0000 0.63421  0.13410  0.86189  Biso   1.000  C
  C208     1.0000 0.59991  0.24519  0.83569  Biso   1.000  C
  C209     1.0000 0.57640  0.56991  0.86416  Biso   1.000  C
  C210     1.0000 0.61351  0.66469  0.91338  Biso   1.000  C
  H117     1.0000 0.55618  0.73059  0.92551  Biso   1.000  H
  C211     1.0000 0.60599  0.13551  0.90234  Biso   1.000  C
  H118     1.0000 0.53360  0.17859  0.91539  Biso   1.000  H
  C212     1.0000 0.57051  0.24599  0.87409  Biso   1.000  C
  C213     1.0000 0.67959  0.09799  0.86534  Biso   1.000  C
  C214     1.0000 0.61703  0.30481  0.81826  Biso   1.000  C
  N16      1.0000 0.57878  0.50848  0.84077  Biso   1.000  N
  C215     1.0000 0.62069  0.60311  0.89070  Biso   1.000  C
  H119     1.0000 0.64322  0.68862  0.93129  Biso   1.000  H
  C216     1.0000 0.62799  0.10401  0.94460  Biso   1.000  C
  C217     1.0000 0.56179  0.30692  0.89559  Biso   1.000  C
  H120     1.0000 0.69720  0.09458  0.83839  Biso   1.000  H
  C218     1.0000 0.69941  0.06560  0.91149  Biso   1.000  C
  H121     1.0000 0.63541  0.30461  0.79169  Biso   1.000  H
  C219     1.0000 0.60701  0.36409  0.83999  Biso   1.000  C
  C220     1.0000 0.62479  0.48119  0.84532  Biso   1.000  C
  C221     1.0000 0.67070  0.57091  0.89370  Biso   1.000  C
  C222     1.0000 0.67512  0.06961  0.94878  Biso   1.000  C
  H122     1.0000 0.61091  0.10542  0.97199  Biso   1.000  H
  C223     1.0000 0.57819  0.36720  0.87965  Biso   1.000  C
  H123     1.0000 0.54381  0.30692  0.92239  Biso   1.000  H
  H124     1.0000 0.73129  0.04042  0.91539  Biso   1.000  H
  O16      1.0000 0.62775  0.42187  0.82175  Biso   1.000  O
  C224     1.0000 0.67359  0.51008  0.87105  Biso   1.000  C
  H125     1.0000 0.70198  0.59168  0.91138  Biso   1.000  H
  H126     1.0000 0.69021  0.04840  0.97929  Biso   1.000  H
  H127     1.0000 0.57101  0.40858  0.89400  Biso   1.000  H
  H128     1.0000 0.70650  0.48811  0.87239  Biso   1.000  H
  C225     1.0000 0.59969  0.78771  0.71436  Biso   1.000  C
  C226     1.0000 0.55260  0.78601  0.72971  Biso   1.000  C
  C227     1.0000 0.64850  0.79218  0.74972  Biso   1.000  C
  H129     1.0000 0.59999  0.78581  0.68000  Biso   1.000  H
  H130     1.0000 0.52032  0.78139  0.70620  Biso   1.000  H
  C228     1.0000 0.55242  0.79122  0.77901  Biso   1.000  C
  C229     1.0000 0.70361  0.79860  0.73879  Biso   1.000  C
  C230     1.0000 0.64671  0.79679  0.80066  Biso   1.000  C
  H131     1.0000 0.51949  0.79152  0.78931  Biso   1.000  H
  C231     1.0000 0.59891  0.79599  0.81456  Biso   1.000  C
  C232     1.0000 0.73529  0.74012  0.76967  Biso   1.000  C
  H132     1.0000 0.70429  0.79679  0.70261  Biso   1.000  H
  C233     1.0000 0.72870  0.86048  0.76429  Biso   1.000  C
  C234     1.0000 0.70083  0.80236  0.83283  Biso   1.000  C
  H133     1.0000 0.59740  0.79880  0.84870  Biso   1.000  H
  C235     1.0000 0.76439  0.69178  0.75121  Biso   1.000  C
  C236     1.0000 0.73445  0.74238  0.81930  Biso   1.000  C
  C237     1.0000 0.72776  0.86369  0.81526  Biso   1.000  C
  C238     1.0000 0.74904  0.91209  0.74194  Biso   1.000  C
  H134     1.0000 0.70011  0.80421  0.86901  Biso   1.000  H
  C239     1.0000 0.79099  0.64368  0.78457  Biso   1.000  C
  H135     1.0000 0.76632  0.69112  0.71721  Biso   1.000  H
  C240     1.0000 0.75841  0.69348  0.85066  Biso   1.000  C
  C241     1.0000 0.74760  0.91790  0.84284  Biso   1.000  C
  C242     1.0000 0.77035  0.96680  0.77000  Biso   1.000  C
  H136     1.0000 0.74860  0.91068  0.70739  Biso   1.000  H
  O17      1.0000 0.81455  0.59248  0.75988  Biso   1.000  O
  C243     1.0000 0.78789  0.64238  0.83291  Biso   1.000  C
  H137     1.0000 0.75530  0.69378  0.88440  Biso   1.000  H
  H138     1.0000 0.74628  0.91971  0.87698  Biso   1.000  H
  C244     1.0000 0.77009  0.97151  0.82071  Biso   1.000  C
  O18      1.0000 0.78844  0.02096  0.74531  Biso   1.000  O
  C245     1.0000 0.85747  0.55672  0.78208  Biso   1.000  C
  H139     1.0000 0.80490  0.60822  0.85441  Biso   1.000  H
  H140     1.0000 0.78451  0.00938  0.83962  Biso   1.000  H
  C246     1.0000 0.84020  0.04218  0.75918  Biso   1.000  C
  N17      1.0000 0.88854  0.57633  0.82401  Biso   1.000  N
  C247     1.0000 0.86673  0.49920  0.75365  Biso   1.000  C
  N18      1.0000 0.87300  0.00948  0.79235  Biso   1.000  N
  C248     1.0000 0.85017  0.10000  0.73330  Biso   1.000  C
  C249     1.0000 0.93151  0.53701  0.84203  Biso   1.000  C
  C250     1.0000 0.91041  0.46138  0.77241  Biso   1.000  C
  H141     1.0000 0.84361  0.48801  0.72329  Biso   1.000  H
  C251     1.0000 0.92380  0.03360  0.80344  Biso   1.000  C
  H142     1.0000 0.82299  0.12192  0.71028  Biso   1.000  H
  C252     1.0000 0.90195  0.12322  0.74316  Biso   1.000  C
  N19      1.0000 0.96249  0.55968  0.88588  Biso   1.000  N
  C253     1.0000 0.94307  0.47839  0.81793  Biso   1.000  C
  H143     1.0000 0.91871  0.42352  0.75451  Biso   1.000  H
  N20      1.0000 0.95768  0.99935  0.83910  Biso   1.000  N
  C254     1.0000 0.93960  0.09072  0.77975  Biso   1.000  C
  H144     1.0000 0.91181  0.16048  0.72552  Biso   1.000  H
  C255     1.0000 0.00346  0.52312  0.90426  Biso   1.000  C
  C256     1.0000 0.98849  0.44178  0.84073  Biso   1.000  C
  C257     1.0000 0.00522  0.02131  0.85137  Biso   1.000  C
  C258     1.0000 0.99359  0.11148  0.79395  Biso   1.000  C
  O19      1.0000 0.03583  0.54122  0.94704  Biso   1.000  O
  C259     1.0000 0.01881  0.46209  0.88351  Biso   1.000  C
  H145     1.0000 0.99769  0.40211  0.82538  Biso   1.000  H
  O20      1.0000 0.04321  0.98942  0.88614  Biso   1.000  O
  C260     1.0000 0.02729  0.07899  0.82998  Biso   1.000  C
  H146     1.0000 0.00580  0.14860  0.77778  Biso   1.000  H
  C261     1.0000 0.02918  0.60572  0.96736  Biso   1.000  C
  H147     1.0000 0.04898  0.43741  0.89930  Biso   1.000  H
  C262     1.0000 0.02830  0.94102  0.91779  Biso   1.000  C
  H148     1.0000 0.06312  0.09268  0.84080  Biso   1.000  H
  C263     1.0000 0.99212  0.61359  0.99746  Biso   1.000  C
  C264     1.0000 0.06029  0.65642  0.95831  Biso   1.000  C
  C265     1.0000 0.98939  0.95090  0.94441  Biso   1.000  C
  C266     1.0000 0.06176  0.88330  0.92432  Biso   1.000  C
  C267     1.0000 0.98839  0.67518  0.02018  Biso   1.000  C
  H149     1.0000 0.96970  0.57748  0.00231  Biso   1.000  H
  H150     1.0000 0.08411  0.64970  0.93659  Biso   1.000  H
  C268     1.0000 0.05773  0.71901  0.98070  Biso   1.000  C
  C269     1.0000 0.98350  0.90341  0.98015  Biso   1.000  C
  H151     1.0000 0.96689  0.98912  0.93859  Biso   1.000  H
  H152     1.0000 0.08711  0.87558  0.90430  Biso   1.000  H
  C270     1.0000 0.05534  0.83982  0.96102  Biso   1.000  C
  H153     1.0000 0.96441  0.68079  0.04183  Biso   1.000  H
  C271     1.0000 0.01992  0.72879  0.01110  Biso   1.000  C
  C272     1.0000 0.09189  0.77939  0.97796  Biso   1.000  C
  H154     1.0000 0.95590  0.90868  0.99801  Biso   1.000  H
  C273     1.0000 0.01705  0.84880  0.99008  Biso   1.000  C
  C274     1.0000 0.02258  0.79940  0.03219  Biso   1.000  C
  H155     1.0000 0.11870  0.77202  0.95701  Biso   1.000  H
  C275     1.0000 0.11670  0.79699  0.03189  Biso   1.000  C
  H156     1.0000 0.99568  0.80692  0.05310  Biso   1.000  H
  C276     1.0000 0.07790  0.80792  0.06096  Biso   1.000  C
  C277     1.0000 0.16910  0.80311  0.05351  Biso   1.000  C
  C278     1.0000 0.09400  0.82608  0.11118  Biso   1.000  C
  H157     1.0000 0.19520  0.79629  0.03412  Biso   1.000  H
  C279     1.0000 0.18458  0.81901  0.10321  Biso   1.000  C
  C280     1.0000 0.14872  0.83159  0.13083  Biso   1.000  C
  H158     1.0000 0.06880  0.83430  0.13120  Biso   1.000  H
  H159     1.0000 0.22122  0.82111  0.11793  Biso   1.000  H
  H160     1.0000 0.16030  0.84448  0.16442  Biso   1.000  H
  C281     1.0000 0.40030  0.21229  0.28562  Biso   1.000  C
  C282     1.0000 0.35152  0.20782  0.25025  Biso   1.000  C
  H161     1.0000 0.40001  0.21419  0.32002  Biso   1.000  H
  C283     1.0000 0.44740  0.21399  0.27031  Biso   1.000  C
  C284     1.0000 0.29639  0.20140  0.26123  Biso   1.000  C
  C285     1.0000 0.35329  0.20321  0.19936  Biso   1.000  C
  C286     1.0000 0.44762  0.20878  0.22101  Biso   1.000  C
  H162     1.0000 0.47972  0.21861  0.29381  Biso   1.000  H
  C287     1.0000 0.26470  0.25988  0.23031  Biso   1.000  C
  H163     1.0000 0.29571  0.20321  0.29741  Biso   1.000  H
  C288     1.0000 0.27130  0.13952  0.23569  Biso   1.000  C
  C289     1.0000 0.29916  0.19764  0.16714  Biso   1.000  C
  C290     1.0000 0.40108  0.20401  0.18542  Biso   1.000  C
  H164     1.0000 0.48051  0.20848  0.21070  Biso   1.000  H
  C291     1.0000 0.23560  0.30822  0.24877  Biso   1.000  C
  C292     1.0000 0.26558  0.25762  0.18068  Biso   1.000  C
  C293     1.0000 0.27223  0.13631  0.18472  Biso   1.000  C
  C294     1.0000 0.25096  0.08791  0.25808  Biso   1.000  C
  H165     1.0000 0.29989  0.19579  0.13100  Biso   1.000  H
  H166     1.0000 0.40260  0.20120  0.15132  Biso   1.000  H
  C295     1.0000 0.20901  0.35632  0.21545  Biso   1.000  C
  H167     1.0000 0.23368  0.30888  0.28280  Biso   1.000  H
  C296     1.0000 0.24162  0.30652  0.14931  Biso   1.000  C
  C297     1.0000 0.25240  0.08210  0.15717  Biso   1.000  C
  C298     1.0000 0.22964  0.03320  0.22998  Biso   1.000  C
  H168     1.0000 0.25139  0.08932  0.29259  Biso   1.000  H
  O21      1.0000 0.18545  0.40752  0.24013  Biso   1.000  O
  C299     1.0000 0.21211  0.35762  0.16711  Biso   1.000  C
  H169     1.0000 0.24469  0.30622  0.11558  Biso   1.000  H
  H170     1.0000 0.25371  0.08029  0.12300  Biso   1.000  H
  C300     1.0000 0.22991  0.02849  0.17930  Biso   1.000  C
  O22      1.0000 0.21156  0.97904  0.25470  Biso   1.000  O
  C301     1.0000 0.14253  0.44328  0.21793  Biso   1.000  C
  H171     1.0000 0.19510  0.39178  0.14561  Biso   1.000  H
  H172     1.0000 0.21549  0.99062  0.16040  Biso   1.000  H
  C302     1.0000 0.15980  0.95782  0.24084  Biso   1.000  C
  N21      1.0000 0.11146  0.42367  0.17600  Biso   1.000  N
  C303     1.0000 0.13327  0.50080  0.24636  Biso   1.000  C
  N22      1.0000 0.12699  0.99052  0.20762  Biso   1.000  N
  C304     1.0000 0.14983  0.90000  0.26671  Biso   1.000  C
  C305     1.0000 0.06852  0.46299  0.15795  Biso   1.000  C
  C306     1.0000 0.08959  0.53862  0.22760  Biso   1.000  C
  H173     1.0000 0.15638  0.51199  0.27668  Biso   1.000  H
  C307     1.0000 0.07620  0.96640  0.19658  Biso   1.000  C
  H174     1.0000 0.17700  0.87808  0.28970  Biso   1.000  H
  C308     1.0000 0.09804  0.87678  0.25682  Biso   1.000  C
  N23      1.0000 0.03750  0.44032  0.11414  Biso   1.000  N
  C309     1.0000 0.05692  0.52161  0.18208  Biso   1.000  C
  H175     1.0000 0.08128  0.57648  0.24551  Biso   1.000  H
  N24      1.0000 0.04232  0.00065  0.16092  Biso   1.000  N
  C310     1.0000 0.06044  0.90928  0.22026  Biso   1.000  C
  H176     1.0000 0.08818  0.83952  0.27450  Biso   1.000  H
  C311     1.0000 0.99653  0.47688  0.09571  Biso   1.000  C
  C312     1.0000 0.01151  0.55822  0.15929  Biso   1.000  C
  C313     1.0000 0.99482  0.97869  0.14865  Biso   1.000  C
  C314     1.0000 0.00640  0.88852  0.20607  Biso   1.000  C
  O23      1.0000 0.96417  0.45878  0.05297  Biso   1.000  O
  C315     1.0000 0.98119  0.53791  0.11651  Biso   1.000  C
  H177     1.0000 0.00230  0.59789  0.17460  Biso   1.000  H
  C316     1.0000 0.97270  0.92101  0.17000  Biso   1.000  C
  O24      1.0000 0.95679  0.01058  0.11388  Biso   1.000  O
  H178     1.0000 0.99419  0.85140  0.22219  Biso   1.000  H
  C317     1.0000 0.97081  0.39428  0.03262  Biso   1.000  C
  H179     1.0000 0.95102  0.56259  0.10072  Biso   1.000  H
  H180     1.0000 0.93692  0.90732  0.15921  Biso   1.000  H
  C318     1.0000 0.97170  0.05898  0.08222  Biso   1.000  C
  C319     1.0000 0.00792  0.38641  0.00256  Biso   1.000  C
  C320     1.0000 0.93970  0.34358  0.04167  Biso   1.000  C
  C321     1.0000 0.01061  0.04910  0.05560  Biso   1.000  C
  C322     1.0000 0.93823  0.11670  0.07566  Biso   1.000  C
  C323     1.0000 0.01160  0.32482  0.97980  Biso   1.000  C
  H181     1.0000 0.03030  0.42252  0.99770  Biso   1.000  H
  H182     1.0000 0.91588  0.35030  0.06339  Biso   1.000  H
  C324     1.0000 0.94226  0.28099  0.01931  Biso   1.000  C
  C325     1.0000 0.01649  0.09659  0.01983  Biso   1.000  C
  H183     1.0000 0.03310  0.01088  0.06139  Biso   1.000  H
  C326     1.0000 0.94466  0.16018  0.03900  Biso   1.000  C
  H184     1.0000 0.91289  0.12442  0.09571  Biso   1.000  H
  C327     1.0000 0.98011  0.27121  0.98892  Biso   1.000  C
  H185     1.0000 0.03559  0.31921  0.95819  Biso   1.000  H
  C328     1.0000 0.90815  0.22061  0.02206  Biso   1.000  C
  C329     1.0000 0.98295  0.15120  0.00993  Biso   1.000  C
  H186     1.0000 0.04410  0.09132  0.00200  Biso   1.000  H
  C330     1.0000 0.97741  0.20060  0.96782  Biso   1.000  C
  C331     1.0000 0.88330  0.20301  0.96812  Biso   1.000  C
  H187     1.0000 0.88130  0.22798  0.04300  Biso   1.000  H
  C332     1.0000 0.92210  0.19208  0.93906  Biso   1.000  C
  H188     1.0000 0.00431  0.19308  0.94688  Biso   1.000  H
  C333     1.0000 0.83090  0.19689  0.94651  Biso   1.000  C
  C334     1.0000 0.90600  0.17392  0.88883  Biso   1.000  C
  H189     1.0000 0.80479  0.20371  0.96590  Biso   1.000  H
  C335     1.0000 0.81542  0.18099  0.89680  Biso   1.000  C
  C336     1.0000 0.85132  0.16841  0.86918  Biso   1.000  C
  H190     1.0000 0.93119  0.16570  0.86878  Biso   1.000  H
  H191     1.0000 0.77882  0.17889  0.88208  Biso   1.000  H
  H192     1.0000 0.83970  0.15552  0.83560  Biso   1.000  H
  C337     1.0000 0.78652  0.06861  0.25229  Biso   1.000  C
  C338     1.0000 0.79909  0.00100  0.25593  Biso   1.000  C
  H193     1.0000 0.76708  0.08852  0.27439  Biso   1.000  H
  C339     1.0000 0.80238  0.10662  0.21611  Biso   1.000  C
  C340     1.0000 0.78151  0.94729  0.28992  Biso   1.000  C
  C341     1.0000 0.82892  0.97252  0.22393  Biso   1.000  C
  H194     1.0000 0.79379  0.15291  0.21330  Biso   1.000  H
  C342     1.0000 0.83061  0.07839  0.18409  Biso   1.000  C
  C343     1.0000 0.83350  0.91911  0.31891  Biso   1.000  C
  C344     1.0000 0.75300  0.89388  0.25759  Biso   1.000  C
  H195     1.0000 0.75940  0.96700  0.31220  Biso   1.000  H
  C345     1.0000 0.84532  0.01048  0.18790  Biso   1.000  C
  C346     1.0000 0.83911  0.89789  0.23268  Biso   1.000  C
  O25      1.0000 0.84480  0.11128  0.14446  Biso   1.000  O
  C347     1.0000 0.84938  0.91339  0.36939  Biso   1.000  C
  C348     1.0000 0.86351  0.89062  0.28792  Biso   1.000  C
  C349     1.0000 0.78280  0.86540  0.22601  Biso   1.000  C
  C350     1.0000 0.70261  0.86881  0.25745  Biso   1.000  C
  H196     1.0000 0.86580  0.99132  0.16651  Biso   1.000  H
  H197     1.0000 0.86130  0.87778  0.21059  Biso   1.000  H
  C351     1.0000 0.83882  0.17979  0.13942  Biso   1.000  C
  C352     1.0000 0.89811  0.88190  0.38960  Biso   1.000  C
  H198     1.0000 0.82782  0.93039  0.39060  Biso   1.000  H
  C353     1.0000 0.91080  0.85958  0.30779  Biso   1.000  C
  C354     1.0000 0.76300  0.81369  0.19435  Biso   1.000  C
  C355     1.0000 0.68229  0.81640  0.22571  Biso   1.000  C
  H199     1.0000 0.68199  0.88731  0.27909  Biso   1.000  H
  N25      1.0000 0.87541  0.21670  0.16477  Biso   1.000  N
  C356     1.0000 0.79319  0.20241  0.10550  Biso   1.000  C
  C357     1.0000 0.92760  0.85552  0.35820  Biso   1.000  C
  H200     1.0000 0.91009  0.87909  0.42452  Biso   1.000  H
  H201     1.0000 0.93181  0.84112  0.28651  Biso   1.000  H
  H202     1.0000 0.78400  0.79478  0.17319  Biso   1.000  H
  C358     1.0000 0.71278  0.78922  0.19339  Biso   1.000  C
  H203     1.0000 0.64798  0.79900  0.22579  Biso   1.000  H
  C359     1.0000 0.87152  0.28571  0.15632  Biso   1.000  C
  H204     1.0000 0.76640  0.17262  0.08941  Biso   1.000  H
  C360     1.0000 0.79059  0.27091  0.09731  Biso   1.000  C
  O26      1.0000 0.97303  0.81861  0.37929  Biso   1.000  O
  H205     1.0000 0.69880  0.75431  0.17100  Biso   1.000  H
  N26      1.0000 0.91103  0.32312  0.18368  Biso   1.000  N
  C361     1.0000 0.82910  0.31429  0.12170  Biso   1.000  C
  H206     1.0000 0.76142  0.28872  0.07421  Biso   1.000  H
  C362     1.0000 0.02202  0.84729  0.38081  Biso   1.000  C
  C363     1.0000 0.90909  0.38791  0.17604  Biso   1.000  C
  C364     1.0000 0.83010  0.38701  0.11580  Biso   1.000  C
  N27      1.0000 0.02575  0.90401  0.35901  Biso   1.000  N
  C365     1.0000 0.06279  0.80978  0.40950  Biso   1.000  C
  O27      1.0000 0.94691  0.42708  0.20381  Biso   1.000  O
  C366     1.0000 0.86948  0.42131  0.14201  Biso   1.000  C
  H207     1.0000 0.80278  0.40908  0.09319  Biso   1.000  H
  C367     1.0000 0.07639  0.93009  0.36417  Biso   1.000  C
  C368     1.0000 0.11350  0.83531  0.41340  Biso   1.000  C
  H208     1.0000 0.05621  0.76941  0.42552  Biso   1.000  H
  C369     1.0000 0.97318  0.40060  0.25077  Biso   1.000  C
  H209     1.0000 0.87118  0.46861  0.13808  Biso   1.000  H
  N28      1.0000 0.07877  0.99152  0.34078  Biso   1.000  N
  C370     1.0000 0.12071  0.89689  0.39067  Biso   1.000  C
  H210     1.0000 0.14320  0.81138  0.43130  Biso   1.000  H
  C371     1.0000 0.94680  0.40150  0.28899  Biso   1.000  C
  C372     1.0000 0.02431  0.37658  0.25570  Biso   1.000  C
  C373     1.0000 0.12481  0.01881  0.34534  Biso   1.000  C
  C374     1.0000 0.17069  0.92909  0.39371  Biso   1.000  C
  H211     1.0000 0.91162  0.41820  0.28380  Biso   1.000  H
  C375     1.0000 0.97101  0.37808  0.33481  Biso   1.000  C
  C376     1.0000 0.04821  0.35331  0.30245  Biso   1.000  C
  H212     1.0000 0.04202  0.37598  0.22872  Biso   1.000  H
  C377     1.0000 0.17361  0.98992  0.37103  Biso   1.000  C
  O28      1.0000 0.12773  0.07813  0.32176  Biso   1.000  O
  H213     1.0000 0.20201  0.90832  0.41139  Biso   1.000  H
  H214     1.0000 0.95308  0.37909  0.36168  Biso   1.000  H
  C378     1.0000 0.02160  0.35331  0.34104  Biso   1.000  C
  C379     1.0000 0.10501  0.32528  0.31650  Biso   1.000  C
  H215     1.0000 0.20649  0.01189  0.37240  Biso   1.000  H
  C380     1.0000 0.10698  0.13591  0.33996  Biso   1.000  C
  C381     1.0000 0.05368  0.32312  0.38797  Biso   1.000  C
  H216     1.0000 0.12391  0.32648  0.28821  Biso   1.000  H
  C382     1.0000 0.13419  0.36590  0.36187  Biso   1.000  C
  C383     1.0000 0.09990  0.25481  0.33570  Biso   1.000  C
  C384     1.0000 0.11701  0.19519  0.31824  Biso   1.000  C
  C385     1.0000 0.07821  0.13280  0.37966  Biso   1.000  C
  C386     1.0000 0.10601  0.36449  0.40235  Biso   1.000  C
  H217     1.0000 0.03359  0.32141  0.41540  Biso   1.000  H
  C387     1.0000 0.07049  0.25401  0.37410  Biso   1.000  C
  C388     1.0000 0.17962  0.40201  0.36535  Biso   1.000  C
  H218     1.0000 0.13540  0.19539  0.29170  Biso   1.000  H
  H219     1.0000 0.07100  0.09142  0.39401  Biso   1.000  H
  C389     1.0000 0.06181  0.19308  0.39560  Biso   1.000  C
  C390     1.0000 0.12801  0.39599  0.44461  Biso   1.000  C
  H220     1.0000 0.19722  0.40542  0.33840  Biso   1.000  H
  C391     1.0000 0.19940  0.43440  0.41150  Biso   1.000  C
  H221     1.0000 0.04379  0.19308  0.42240  Biso   1.000  H
  C392     1.0000 0.17510  0.43039  0.44880  Biso   1.000  C
  H222     1.0000 0.11089  0.39458  0.47200  Biso   1.000  H
  H223     1.0000 0.23132  0.45958  0.41540  Biso   1.000  H
  H224     1.0000 0.19020  0.45160  0.47930  Biso   1.000  H
  C393     1.0000 0.21351  0.93139  0.74768  Biso   1.000  C
  C394     1.0000 0.19761  0.89338  0.78386  Biso   1.000  C
  C395     1.0000 0.20091  0.99900  0.74409  Biso   1.000  C
  H225     1.0000 0.23291  0.91148  0.72559  Biso   1.000  H
  C396     1.0000 0.16942  0.92161  0.81589  Biso   1.000  C
  H226     1.0000 0.20621  0.84709  0.78672  Biso   1.000  H
  C397     1.0000 0.17112  0.02748  0.77608  Biso   1.000  C
  C398     1.0000 0.21849  0.05271  0.71010  Biso   1.000  C
  O29      1.0000 0.15520  0.88872  0.85556  Biso   1.000  O
  C399     1.0000 0.15468  0.98952  0.81211  Biso   1.000  C
  C400     1.0000 0.16092  0.10211  0.76729  Biso   1.000  C
  C401     1.0000 0.16650  0.08089  0.68111  Biso   1.000  C
  C402     1.0000 0.24700  0.10612  0.74242  Biso   1.000  C
  H227     1.0000 0.24060  0.03300  0.68782  Biso   1.000  H
  C403     1.0000 0.16118  0.82021  0.86060  Biso   1.000  C
  H228     1.0000 0.13420  0.00868  0.83350  Biso   1.000  H
  C404     1.0000 0.13649  0.10938  0.71210  Biso   1.000  C
  H229     1.0000 0.13869  0.12222  0.78939  Biso   1.000  H
  C405     1.0000 0.21719  0.13460  0.77400  Biso   1.000  C
  C406     1.0000 0.15061  0.08661  0.63058  Biso   1.000  C
  C407     1.0000 0.29738  0.13119  0.74253  Biso   1.000  C
  N29      1.0000 0.12462  0.78330  0.83520  Biso   1.000  N
  C408     1.0000 0.20681  0.79759  0.89452  Biso   1.000  C
  C409     1.0000 0.08919  0.14042  0.69219  Biso   1.000  C
  C410     1.0000 0.23699  0.18631  0.80562  Biso   1.000  C
  C411     1.0000 0.10189  0.11810  0.61042  Biso   1.000  C
  H230     1.0000 0.17222  0.06961  0.60942  Biso   1.000  H
  C412     1.0000 0.31771  0.18360  0.77430  Biso   1.000  C
  H231     1.0000 0.31800  0.11269  0.72088  Biso   1.000  H
  C413     1.0000 0.12852  0.71429  0.84369  Biso   1.000  C
  C414     1.0000 0.20941  0.72909  0.90271  Biso   1.000  C
  H232     1.0000 0.23360  0.82738  0.91060  Biso   1.000  H
  C415     1.0000 0.07240  0.14448  0.64182  Biso   1.000  C
  H233     1.0000 0.06819  0.15888  0.71351  Biso   1.000  H
  H234     1.0000 0.21599  0.20522  0.82679  Biso   1.000  H
  C416     1.0000 0.28721  0.21078  0.80659  Biso   1.000  C
  H235     1.0000 0.08990  0.12091  0.57550  Biso   1.000  H
  H236     1.0000 0.35201  0.20100  0.77419  Biso   1.000  H
  N30      1.0000 0.08897  0.67688  0.81634  Biso   1.000  N
  C417     1.0000 0.17089  0.68571  0.87832  Biso   1.000  C
  H237     1.0000 0.23862  0.71128  0.92580  Biso   1.000  H
  O30      1.0000 0.02700  0.18139  0.62069  Biso   1.000  O
  H238     1.0000 0.30120  0.24569  0.82901  Biso   1.000  H
  C418     1.0000 0.09091  0.61209  0.82397  Biso   1.000  C
  C419     1.0000 0.16989  0.61299  0.88421  Biso   1.000  C
  C420     1.0000 0.97802  0.15271  0.61920  Biso   1.000  C
  O31      1.0000 0.05309  0.57292  0.79621  Biso   1.000  O
  C421     1.0000 0.13051  0.57869  0.85797  Biso   1.000  C
  H239     1.0000 0.19721  0.59092  0.90679  Biso   1.000  H
  N31      1.0000 0.97428  0.09599  0.64096  Biso   1.000  N
  C422     1.0000 0.93721  0.19022  0.59051  Biso   1.000  C
  C423     1.0000 0.02681  0.59940  0.74924  Biso   1.000  C
  H240     1.0000 0.12881  0.53139  0.86189  Biso   1.000  H
  C424     1.0000 0.92361  0.06991  0.63585  Biso   1.000  C
  C425     1.0000 0.88649  0.16469  0.58658  Biso   1.000  C
  H241     1.0000 0.94379  0.23059  0.57450  Biso   1.000  H
  C426     1.0000 0.05319  0.59850  0.71099  Biso   1.000  C
  C427     1.0000 0.97568  0.62342  0.74427  Biso   1.000  C
  N32      1.0000 0.92123  0.00848  0.65924  Biso   1.000  N
  C428     1.0000 0.87928  0.10311  0.60931  Biso   1.000  C
  H242     1.0000 0.85680  0.18862  0.56871  Biso   1.000  H
  C429     1.0000 0.02899  0.62192  0.66521  Biso   1.000  C
  H243     1.0000 0.08842  0.58180  0.71621  Biso   1.000  H
  C430     1.0000 0.95179  0.64669  0.69757  Biso   1.000  C
  H244     1.0000 0.95801  0.62402  0.77130  Biso   1.000  H
  C431     1.0000 0.87518  0.98119  0.65468  Biso   1.000  C
  C432     1.0000 0.82931  0.07091  0.60630  Biso   1.000  C
  H245     1.0000 0.04691  0.62091  0.63829  Biso   1.000  H
  C433     1.0000 0.97840  0.64669  0.65898  Biso   1.000  C
  C434     1.0000 0.89499  0.67472  0.68352  Biso   1.000  C
  O32      1.0000 0.87227  0.92187  0.67825  Biso   1.000  O
  C435     1.0000 0.82638  0.01008  0.62895  Biso   1.000  C
  H246     1.0000 0.79798  0.09168  0.58858  Biso   1.000  H
  C436     1.0000 0.94631  0.67688  0.61201  Biso   1.000  C
  H247     1.0000 0.87609  0.67352  0.71180  Biso   1.000  H
  C437     1.0000 0.86580  0.63410  0.63811  Biso   1.000  C
  C438     1.0000 0.90010  0.74519  0.66432  Biso   1.000  C
  C439     1.0000 0.89301  0.86409  0.66002  Biso   1.000  C
  H248     1.0000 0.79351  0.98811  0.62762  Biso   1.000  H
  C440     1.0000 0.89398  0.63551  0.59767  Biso   1.000  C
  H249     1.0000 0.96641  0.67859  0.58462  Biso   1.000  H
  C441     1.0000 0.92950  0.74599  0.62591  Biso   1.000  C
  C442     1.0000 0.82041  0.59799  0.63462  Biso   1.000  C
  C443     1.0000 0.88298  0.80481  0.68174  Biso   1.000  C
  C444     1.0000 0.92178  0.86720  0.62035  Biso   1.000  C
  C445     1.0000 0.87199  0.60401  0.55541  Biso   1.000  C
  C446     1.0000 0.93818  0.80692  0.60441  Biso   1.000  C
  H250     1.0000 0.80282  0.59458  0.66161  Biso   1.000  H
  C447     1.0000 0.80060  0.56560  0.58851  Biso   1.000  C
  H251     1.0000 0.86460  0.80461  0.70832  Biso   1.000  H
  H252     1.0000 0.92900  0.90858  0.60601  Biso   1.000  H
  C448     1.0000 0.82490  0.56961  0.55122  Biso   1.000  C
  H253     1.0000 0.88911  0.60542  0.52801  Biso   1.000  H
  H254     1.0000 0.95621  0.80692  0.57761  Biso   1.000  H
  H255     1.0000 0.76872  0.54042  0.58462  Biso   1.000  H
  H256     1.0000 0.80980  0.54840  0.52071  Biso   1.000  H
  Ne1      1.0000 0.09927  0.20824  0.13419  Biso   1.000  Ne
  He1      1.0000 0.00000  0.00000  0.00000  Biso   1.000  He
  He2      1.0000 0.15505  0.18328  0.05585  Biso   1.000  He
  Ar1      1.0000 0.04301  0.22053  0.22268  Biso   1.000  Ar
  Ne2      1.0000 0.40073  0.70824  0.36581  Biso   1.000  Ne
  He3      1.0000 0.38675  0.73292  0.42371  Biso   1.000  He
  He4      1.0000 0.00000  0.00000  0.00000  Biso   1.000  He
  Ar2      1.0000 0.45682  0.72050  0.27734  Biso   1.000  Ar
  Ne3      1.0000 0.59927  0.29176  0.63419  Biso   1.000  Ne
  He5      1.0000 0.00000  0.00000  0.00000  Biso   1.000  He
  He6      1.0000 0.61902  0.26983  0.56827  Biso   1.000  He
  Ar3      1.0000 0.53474  0.27259  0.72265  Biso   1.000  Ar
  Ne4      1.0000 0.54392  0.61700  0.21127  Biso   1.000  Ne
  He7      1.0000 0.52043  0.59448  0.25650  Biso   1.000  He
  He8      1.0000 0.55613  0.57120  0.19568  Biso   1.000  He
  Ar4      1.0000 0.54952  0.61627  0.21544  Biso   1.000  Ar
  Ne5      1.0000 0.45608  0.38300  0.78873  Biso   1.000  Ne
  He9      1.0000 0.42155  0.30731  0.80661  Biso   1.000  He
  He10     1.0000 0.45720  0.36620  0.77302  Biso   1.000  He
  Ar5      1.0000 0.44340  0.36955  0.78977  Biso   1.000  Ar
  Ne6      1.0000 0.95608  0.11700  0.28873  Biso   1.000  Ne
  He11     1.0000 0.94366  0.08381  0.29911  Biso   1.000  He
  He12     1.0000 0.96206  0.08946  0.27569  Biso   1.000  He
  Ar6      1.0000 0.95050  0.11620  0.28458  Biso   1.000  Ar
  Ne7      1.0000 0.04392  0.88300  0.71127  Biso   1.000  Ne
  He13     1.0000 0.04079  0.91142  0.72070  Biso   1.000  He
  He14     1.0000 0.05933  0.92317  0.69445  Biso   1.000  He
  Ar7      1.0000 0.04951  0.88373  0.71543  Biso   1.000  Ar
  Ne8      1.0000 0.90073  0.79176  0.86581  Biso   1.000  Ne
  He15     1.0000 0.84806  0.81662  0.93805  Biso   1.000  He
  He16     1.0000 0.00000  0.00000  0.00000  Biso   1.000  He
  Ar8      1.0000 0.96583  0.77213  0.77735  Biso   1.000  Ar
