data_image0
_cell_length_a       24.242
_cell_length_b       24.242
_cell_length_c       24.242
_cell_angle_alpha    90
_cell_angle_beta     90
_cell_angle_gamma    90

_symmetry_space_group_name_H-M    "P 1"
_symmetry_int_tables_number       1

loop_
  _symmetry_equiv_pos_as_xyz
  'x, y, z'

loop_
  _atom_site_label
  _atom_site_occupancy
  _atom_site_fract_x
  _atom_site_fract_y
  _atom_site_fract_z
  _atom_site_thermal_displace_type
  _atom_site_B_iso_or_equiv
  _atom_site_type_symbol
  C1       1.0000 0.38561  0.36721  0.30851  Biso   1.000  C
  C2       1.0000 0.39939  0.32159  0.34040  Biso   1.000  C
  H1       1.0000 0.40710  0.37608  0.27791  Biso   1.000  H
  C3       1.0000 0.34040  0.39939  0.32159  Biso   1.000  C
  C4       1.0000 0.44691  0.28690  0.32671  Biso   1.000  C
  C5       1.0000 0.36721  0.30851  0.38561  Biso   1.000  C
  C6       1.0000 0.30851  0.38561  0.36721  Biso   1.000  C
  C7       1.0000 0.32671  0.44691  0.28690  Biso   1.000  C
  N1       1.0000 0.48239  0.29932  0.29012  Biso   1.000  N
  H2       1.0000 0.45141  0.25398  0.34580  Biso   1.000  H
  H3       1.0000 0.37608  0.27791  0.40710  Biso   1.000  H
  C8       1.0000 0.32159  0.34040  0.39939  Biso   1.000  C
  H4       1.0000 0.27791  0.40710  0.37608  Biso   1.000  H
  N2       1.0000 0.29012  0.48239  0.29932  Biso   1.000  N
  H5       1.0000 0.34580  0.45141  0.25398  Biso   1.000  H
  C9       1.0000 0.52640  0.25988  0.27951  Biso   1.000  C
  C10      1.0000 0.28690  0.32671  0.44691  Biso   1.000  C
  C11      1.0000 0.27951  0.52640  0.25988  Biso   1.000  C
  C12      1.0000 0.52640  0.24012  0.22049  Biso   1.000  C
  H6       1.0000 0.52178  0.22812  0.30410  Biso   1.000  H
  C13      1.0000 0.58312  0.28310  0.28690  Biso   1.000  C
  N3       1.0000 0.29932  0.29012  0.48239  Biso   1.000  N
  H7       1.0000 0.25398  0.34580  0.45141  Biso   1.000  H
  C14      1.0000 0.22049  0.52640  0.24012  Biso   1.000  C
  H8       1.0000 0.30410  0.52178  0.22812  Biso   1.000  H
  C15      1.0000 0.28690  0.58312  0.28310  Biso   1.000  C
  N4       1.0000 0.48239  0.20068  0.20988  Biso   1.000  N
  H9       1.0000 0.52178  0.27188  0.19590  Biso   1.000  H
  C16      1.0000 0.58312  0.21690  0.21310  Biso   1.000  C
  C17      1.0000 0.61971  0.25002  0.25002  Biso   1.000  C
  H10      1.0000 0.58399  0.32171  0.27659  Biso   1.000  H
  H11      1.0000 0.59492  0.27968  0.32510  Biso   1.000  H
  C18      1.0000 0.25988  0.27951  0.52640  Biso   1.000  C
  N5       1.0000 0.20988  0.48239  0.20068  Biso   1.000  N
  H12      1.0000 0.19590  0.52178  0.27188  Biso   1.000  H
  C19      1.0000 0.21310  0.58312  0.21690  Biso   1.000  C
  H13      1.0000 0.27659  0.58399  0.32171  Biso   1.000  H
  H14      1.0000 0.32510  0.59492  0.27968  Biso   1.000  H
  C20      1.0000 0.25002  0.61971  0.25002  Biso   1.000  C
  C21      1.0000 0.44691  0.21310  0.17329  Biso   1.000  C
  H15      1.0000 0.58399  0.17829  0.22341  Biso   1.000  H
  H16      1.0000 0.59492  0.22032  0.17490  Biso   1.000  H
  H17      1.0000 0.64310  0.22581  0.27172  Biso   1.000  H
  H18      1.0000 0.64310  0.27419  0.22828  Biso   1.000  H
  C22      1.0000 0.24012  0.22049  0.52640  Biso   1.000  C
  H19      1.0000 0.22812  0.30410  0.52178  Biso   1.000  H
  C23      1.0000 0.28310  0.28690  0.58312  Biso   1.000  C
  C24      1.0000 0.17329  0.44691  0.21310  Biso   1.000  C
  H20      1.0000 0.22341  0.58399  0.17829  Biso   1.000  H
  H21      1.0000 0.17490  0.59492  0.22032  Biso   1.000  H
  H22      1.0000 0.27172  0.64310  0.22581  Biso   1.000  H
  H23      1.0000 0.22828  0.64310  0.27419  Biso   1.000  H
  C25      1.0000 0.39939  0.17841  0.15960  Biso   1.000  C
  H24      1.0000 0.45141  0.24602  0.15420  Biso   1.000  H
  N6       1.0000 0.20068  0.20988  0.48239  Biso   1.000  N
  H25      1.0000 0.27188  0.19590  0.52178  Biso   1.000  H
  C26      1.0000 0.21690  0.21310  0.58312  Biso   1.000  C
  H26      1.0000 0.32171  0.27659  0.58399  Biso   1.000  H
  H27      1.0000 0.27968  0.32510  0.59492  Biso   1.000  H
  C27      1.0000 0.25002  0.25002  0.61971  Biso   1.000  C
  C28      1.0000 0.15960  0.39939  0.17841  Biso   1.000  C
  H28      1.0000 0.15420  0.45141  0.24602  Biso   1.000  H
  C29      1.0000 0.36721  0.19149  0.11439  Biso   1.000  C
  C30      1.0000 0.38561  0.13279  0.19149  Biso   1.000  C
  C31      1.0000 0.21310  0.17329  0.44691  Biso   1.000  C
  H29      1.0000 0.17829  0.22341  0.58399  Biso   1.000  H
  H30      1.0000 0.22032  0.17490  0.59492  Biso   1.000  H
  H31      1.0000 0.27419  0.22828  0.64310  Biso   1.000  H
  H32      1.0000 0.22581  0.27172  0.64310  Biso   1.000  H
  C32      1.0000 0.19149  0.38561  0.13279  Biso   1.000  C
  C33      1.0000 0.11439  0.36721  0.19149  Biso   1.000  C
  H33      1.0000 0.37608  0.22209  0.09290  Biso   1.000  H
  C34      1.0000 0.32159  0.15960  0.10061  Biso   1.000  C
  H34      1.0000 0.40710  0.12392  0.22209  Biso   1.000  H
  C35      1.0000 0.34040  0.10061  0.17841  Biso   1.000  C
  C36      1.0000 0.17841  0.15960  0.39939  Biso   1.000  C
  H35      1.0000 0.24602  0.15420  0.45141  Biso   1.000  H
  C37      1.0000 0.17841  0.34040  0.10061  Biso   1.000  C
  H36      1.0000 0.22209  0.40710  0.12392  Biso   1.000  H
  C38      1.0000 0.10061  0.32159  0.15960  Biso   1.000  C
  H37      1.0000 0.09290  0.37608  0.22209  Biso   1.000  H
  C39      1.0000 0.30851  0.11439  0.13279  Biso   1.000  C
  C40      1.0000 0.28690  0.17329  0.05309  Biso   1.000  C
  C41      1.0000 0.32671  0.05309  0.21310  Biso   1.000  C
  C42      1.0000 0.19149  0.11439  0.36721  Biso   1.000  C
  C43      1.0000 0.13279  0.19149  0.38561  Biso   1.000  C
  C44      1.0000 0.21310  0.32671  0.05309  Biso   1.000  C
  C45      1.0000 0.13279  0.30851  0.11439  Biso   1.000  C
  C46      1.0000 0.05309  0.28690  0.17329  Biso   1.000  C
  H38      1.0000 0.27791  0.09290  0.12392  Biso   1.000  H
  N7       1.0000 0.29932  0.20988  0.01761  Biso   1.000  N
  H39      1.0000 0.25398  0.15420  0.04859  Biso   1.000  H
  N8       1.0000 0.29012  0.01761  0.20068  Biso   1.000  N
  H40      1.0000 0.34580  0.04859  0.24602  Biso   1.000  H
  C47      1.0000 0.15960  0.10061  0.32159  Biso   1.000  C
  H41      1.0000 0.22209  0.09290  0.37608  Biso   1.000  H
  C48      1.0000 0.10061  0.17841  0.34040  Biso   1.000  C
  H42      1.0000 0.12392  0.22209  0.40710  Biso   1.000  H
  N9       1.0000 0.20068  0.29012  0.01761  Biso   1.000  N
  H43      1.0000 0.24602  0.34580  0.04859  Biso   1.000  H
  H44      1.0000 0.12392  0.27791  0.09290  Biso   1.000  H
  N10      1.0000 0.01761  0.29932  0.20988  Biso   1.000  N
  H45      1.0000 0.04859  0.25398  0.15420  Biso   1.000  H
  C49      1.0000 0.25988  0.22049  0.97360  Biso   1.000  C
  C50      1.0000 0.27951  0.97360  0.24012  Biso   1.000  C
  C51      1.0000 0.17329  0.05309  0.28690  Biso   1.000  C
  C52      1.0000 0.11439  0.13279  0.30851  Biso   1.000  C
  C53      1.0000 0.05309  0.21310  0.32671  Biso   1.000  C
  C54      1.0000 0.24012  0.27951  0.97360  Biso   1.000  C
  C55      1.0000 0.97360  0.25988  0.22049  Biso   1.000  C
  H46      1.0000 0.22812  0.19590  0.97822  Biso   1.000  H
  C56      1.0000 0.28310  0.21310  0.91688  Biso   1.000  C
  C57      1.0000 0.22049  0.97360  0.25988  Biso   1.000  C
  H47      1.0000 0.30410  0.97822  0.27188  Biso   1.000  H
  C58      1.0000 0.28690  0.91688  0.21690  Biso   1.000  C
  N11      1.0000 0.20988  0.01761  0.29932  Biso   1.000  N
  H48      1.0000 0.15420  0.04859  0.25398  Biso   1.000  H
  H49      1.0000 0.09290  0.12392  0.27791  Biso   1.000  H
  N12      1.0000 0.01761  0.20068  0.29012  Biso   1.000  N
  H50      1.0000 0.04859  0.24602  0.34580  Biso   1.000  H
  H51      1.0000 0.27188  0.30410  0.97822  Biso   1.000  H
  C59      1.0000 0.21690  0.28690  0.91688  Biso   1.000  C
  C60      1.0000 0.97360  0.24012  0.27951  Biso   1.000  C
  H52      1.0000 0.97822  0.22812  0.19590  Biso   1.000  H
  C61      1.0000 0.91688  0.28310  0.21310  Biso   1.000  C
  H53      1.0000 0.32171  0.22341  0.91601  Biso   1.000  H
  H54      1.0000 0.27968  0.17490  0.90508  Biso   1.000  H
  C62      1.0000 0.25002  0.25002  0.88029  Biso   1.000  C
  H55      1.0000 0.19590  0.97822  0.22812  Biso   1.000  H
  C63      1.0000 0.21310  0.91688  0.28310  Biso   1.000  C
  H56      1.0000 0.27659  0.91601  0.17829  Biso   1.000  H
  H57      1.0000 0.32510  0.90508  0.22032  Biso   1.000  H
  C64      1.0000 0.25002  0.88029  0.25002  Biso   1.000  C
  H58      1.0000 0.17829  0.27659  0.91601  Biso   1.000  H
  H59      1.0000 0.22032  0.32510  0.90508  Biso   1.000  H
  H60      1.0000 0.97822  0.27188  0.30410  Biso   1.000  H
  C65      1.0000 0.91688  0.21690  0.28690  Biso   1.000  C
  H61      1.0000 0.91601  0.32171  0.22341  Biso   1.000  H
  H62      1.0000 0.90508  0.27968  0.17490  Biso   1.000  H
  C66      1.0000 0.88029  0.25002  0.25002  Biso   1.000  C
  H63      1.0000 0.27419  0.27172  0.85690  Biso   1.000  H
  H64      1.0000 0.22581  0.22828  0.85690  Biso   1.000  H
  H65      1.0000 0.22341  0.91601  0.32171  Biso   1.000  H
  H66      1.0000 0.17490  0.90508  0.27968  Biso   1.000  H
  H67      1.0000 0.27172  0.85690  0.27419  Biso   1.000  H
  H68      1.0000 0.22828  0.85690  0.22581  Biso   1.000  H
  H69      1.0000 0.91601  0.17829  0.27659  Biso   1.000  H
  H70      1.0000 0.90508  0.22032  0.32510  Biso   1.000  H
  H71      1.0000 0.85690  0.27419  0.27172  Biso   1.000  H
  H72      1.0000 0.85690  0.22581  0.22828  Biso   1.000  H
  C67      1.0000 0.50000  0.36969  0.50000  Biso   1.000  C
  C68      1.0000 0.53308  0.33310  0.46308  Biso   1.000  C
  C69      1.0000 0.46692  0.33310  0.53692  Biso   1.000  C
  H73      1.0000 0.52421  0.39312  0.52170  Biso   1.000  H
  H74      1.0000 0.47579  0.39312  0.47830  Biso   1.000  H
  C70      1.0000 0.50990  0.27638  0.47051  Biso   1.000  C
  H75      1.0000 0.57169  0.33401  0.47339  Biso   1.000  H
  H76      1.0000 0.52970  0.34490  0.42488  Biso   1.000  H
  C71      1.0000 0.49010  0.27638  0.52949  Biso   1.000  C
  H77      1.0000 0.42831  0.33401  0.52661  Biso   1.000  H
  H78      1.0000 0.47030  0.34490  0.57512  Biso   1.000  H
  N13      1.0000 0.54929  0.23241  0.45990  Biso   1.000  N
  H79      1.0000 0.47810  0.27180  0.44592  Biso   1.000  H
  N14      1.0000 0.45071  0.23241  0.54010  Biso   1.000  N
  H80      1.0000 0.52190  0.27180  0.55408  Biso   1.000  H
  C72      1.0000 0.53692  0.19689  0.42331  Biso   1.000  C
  C73      1.0000 0.46308  0.19689  0.57669  Biso   1.000  C
  C74      1.0000 0.57161  0.14941  0.40962  Biso   1.000  C
  H81      1.0000 0.50400  0.20139  0.40422  Biso   1.000  H
  C75      1.0000 0.42839  0.14941  0.59038  Biso   1.000  C
  H82      1.0000 0.49600  0.20139  0.59578  Biso   1.000  H
  C76      1.0000 0.55849  0.11719  0.36441  Biso   1.000  C
  C77      1.0000 0.61719  0.13559  0.44151  Biso   1.000  C
  C78      1.0000 0.44151  0.11719  0.63559  Biso   1.000  C
  C79      1.0000 0.38281  0.13559  0.55849  Biso   1.000  C
  H83      1.0000 0.52789  0.12610  0.34292  Biso   1.000  H
  C80      1.0000 0.59038  0.07161  0.35059  Biso   1.000  C
  H84      1.0000 0.62610  0.15708  0.47211  Biso   1.000  H
  C81      1.0000 0.64941  0.09038  0.42839  Biso   1.000  C
  H85      1.0000 0.47211  0.12610  0.65708  Biso   1.000  H
  C82      1.0000 0.40962  0.07161  0.64941  Biso   1.000  C
  H86      1.0000 0.37390  0.15708  0.52789  Biso   1.000  H
  C83      1.0000 0.35059  0.09038  0.57161  Biso   1.000  C
  C84      1.0000 0.63559  0.05849  0.38281  Biso   1.000  C
  C85      1.0000 0.57669  0.03692  0.30311  Biso   1.000  C
  C86      1.0000 0.69689  0.07669  0.46308  Biso   1.000  C
  C87      1.0000 0.36441  0.05849  0.61719  Biso   1.000  C
  C88      1.0000 0.42331  0.03692  0.69689  Biso   1.000  C
  C89      1.0000 0.30311  0.07669  0.53692  Biso   1.000  C
  H87      1.0000 0.65708  0.02789  0.37390  Biso   1.000  H
  N15      1.0000 0.54010  0.04929  0.26759  Biso   1.000  N
  H88      1.0000 0.59578  0.00400  0.29861  Biso   1.000  H
  N16      1.0000 0.73241  0.04010  0.45071  Biso   1.000  N
  H89      1.0000 0.70139  0.09578  0.49600  Biso   1.000  H
  H90      1.0000 0.34292  0.02789  0.62610  Biso   1.000  H
  N17      1.0000 0.45990  0.04929  0.73241  Biso   1.000  N
  H91      1.0000 0.40422  0.00400  0.70139  Biso   1.000  H
  N18      1.0000 0.26759  0.04010  0.54929  Biso   1.000  N
  H92      1.0000 0.29861  0.09578  0.50400  Biso   1.000  H
  C90      1.0000 0.52949  0.00990  0.22362  Biso   1.000  C
  C91      1.0000 0.77638  0.02949  0.49010  Biso   1.000  C
  C92      1.0000 0.47051  0.00990  0.77638  Biso   1.000  C
  C93      1.0000 0.22362  0.02949  0.50990  Biso   1.000  C
  C94      1.0000 0.53692  0.03308  0.16690  Biso   1.000  C
  C95      1.0000 0.47051  0.99010  0.22362  Biso   1.000  C
  H93      1.0000 0.55408  0.97810  0.22820  Biso   1.000  H
  H94      1.0000 0.77180  0.05408  0.52190  Biso   1.000  H
  C96      1.0000 0.83310  0.03692  0.46692  Biso   1.000  C
  C97      1.0000 0.77638  0.97051  0.50990  Biso   1.000  C
  C98      1.0000 0.46308  0.03308  0.83310  Biso   1.000  C
  C99      1.0000 0.52949  0.99010  0.77638  Biso   1.000  C
  H95      1.0000 0.44592  0.97810  0.77180  Biso   1.000  H
  H96      1.0000 0.22820  0.05408  0.47810  Biso   1.000  H
  C100     1.0000 0.16690  0.03692  0.53308  Biso   1.000  C
  C101     1.0000 0.22362  0.97051  0.49010  Biso   1.000  C
  H97      1.0000 0.52661  0.07169  0.16599  Biso   1.000  H
  H98      1.0000 0.57512  0.02970  0.15510  Biso   1.000  H
  C102     1.0000 0.50000  0.00000  0.13031  Biso   1.000  C
  H99      1.0000 0.44592  0.02190  0.22820  Biso   1.000  H
  N19      1.0000 0.45990  0.95071  0.26759  Biso   1.000  N
  C103     1.0000 0.46308  0.96692  0.16690  Biso   1.000  C
  H100     1.0000 0.83401  0.02661  0.42831  Biso   1.000  H
  H101     1.0000 0.84490  0.07512  0.47030  Biso   1.000  H
  C104     1.0000 0.86969  0.00000  0.50000  Biso   1.000  C
  N20      1.0000 0.73241  0.95990  0.54929  Biso   1.000  N
  H102     1.0000 0.77180  0.94592  0.47810  Biso   1.000  H
  C105     1.0000 0.83310  0.96308  0.53308  Biso   1.000  C
  H103     1.0000 0.47339  0.07169  0.83401  Biso   1.000  H
  H104     1.0000 0.42488  0.02970  0.84490  Biso   1.000  H
  C106     1.0000 0.50000  0.00000  0.86969  Biso   1.000  C
  H105     1.0000 0.55408  0.02190  0.77180  Biso   1.000  H
  N21      1.0000 0.54010  0.95071  0.73241  Biso   1.000  N
  C107     1.0000 0.53692  0.96692  0.83310  Biso   1.000  C
  H106     1.0000 0.16599  0.02661  0.57169  Biso   1.000  H
  H107     1.0000 0.15510  0.07512  0.52970  Biso   1.000  H
  C108     1.0000 0.13031  0.00000  0.50000  Biso   1.000  C
  N22      1.0000 0.26759  0.95990  0.45071  Biso   1.000  N
  H108     1.0000 0.22820  0.94592  0.52190  Biso   1.000  H
  C109     1.0000 0.16690  0.96308  0.46692  Biso   1.000  C
  H109     1.0000 0.47830  0.02421  0.10688  Biso   1.000  H
  H110     1.0000 0.52170  0.97579  0.10688  Biso   1.000  H
  C110     1.0000 0.42331  0.96308  0.30311  Biso   1.000  C
  H111     1.0000 0.47339  0.92831  0.16599  Biso   1.000  H
  H112     1.0000 0.42488  0.97030  0.15510  Biso   1.000  H
  H113     1.0000 0.89312  0.02170  0.52421  Biso   1.000  H
  H114     1.0000 0.89312  0.97830  0.47579  Biso   1.000  H
  C111     1.0000 0.69689  0.92331  0.53692  Biso   1.000  C
  H115     1.0000 0.83401  0.97339  0.57169  Biso   1.000  H
  H116     1.0000 0.84490  0.92488  0.52970  Biso   1.000  H
  H117     1.0000 0.52170  0.02421  0.89312  Biso   1.000  H
  H118     1.0000 0.47830  0.97579  0.89312  Biso   1.000  H
  C112     1.0000 0.57669  0.96308  0.69689  Biso   1.000  C
  H119     1.0000 0.52661  0.92831  0.83401  Biso   1.000  H
  H120     1.0000 0.57512  0.97030  0.84490  Biso   1.000  H
  H121     1.0000 0.10688  0.02170  0.47579  Biso   1.000  H
  H122     1.0000 0.10688  0.97830  0.52421  Biso   1.000  H
  C113     1.0000 0.30311  0.92331  0.46308  Biso   1.000  C
  H123     1.0000 0.16599  0.97339  0.42831  Biso   1.000  H
  H124     1.0000 0.15510  0.92488  0.47030  Biso   1.000  H
  C114     1.0000 0.40962  0.92839  0.35059  Biso   1.000  C
  H125     1.0000 0.40422  0.99600  0.29861  Biso   1.000  H
  C115     1.0000 0.64941  0.90962  0.57161  Biso   1.000  C
  H126     1.0000 0.70139  0.90422  0.50400  Biso   1.000  H
  C116     1.0000 0.59038  0.92839  0.64941  Biso   1.000  C
  H127     1.0000 0.59578  0.99600  0.70139  Biso   1.000  H
  C117     1.0000 0.35059  0.90962  0.42839  Biso   1.000  C
  H128     1.0000 0.29861  0.90422  0.49600  Biso   1.000  H
  C118     1.0000 0.44151  0.88281  0.36441  Biso   1.000  C
  C119     1.0000 0.36441  0.94151  0.38281  Biso   1.000  C
  C120     1.0000 0.63559  0.94151  0.61719  Biso   1.000  C
  C121     1.0000 0.61719  0.86441  0.55849  Biso   1.000  C
  C122     1.0000 0.55849  0.88281  0.63559  Biso   1.000  C
  C123     1.0000 0.38281  0.86441  0.44151  Biso   1.000  C
  H129     1.0000 0.47211  0.87390  0.34292  Biso   1.000  H
  C124     1.0000 0.42839  0.85059  0.40962  Biso   1.000  C
  H130     1.0000 0.34292  0.97211  0.37390  Biso   1.000  H
  H131     1.0000 0.65708  0.97211  0.62610  Biso   1.000  H
  H132     1.0000 0.62610  0.84292  0.52789  Biso   1.000  H
  C125     1.0000 0.57161  0.85059  0.59038  Biso   1.000  C
  H133     1.0000 0.52789  0.87390  0.65708  Biso   1.000  H
  H134     1.0000 0.37390  0.84292  0.47211  Biso   1.000  H
  C126     1.0000 0.46308  0.80311  0.42331  Biso   1.000  C
  C127     1.0000 0.53692  0.80311  0.57669  Biso   1.000  C
  N23      1.0000 0.45071  0.76759  0.45990  Biso   1.000  N
  H135     1.0000 0.49600  0.79861  0.40422  Biso   1.000  H
  N24      1.0000 0.54929  0.76759  0.54010  Biso   1.000  N
  H136     1.0000 0.50400  0.79861  0.59578  Biso   1.000  H
  C128     1.0000 0.49010  0.72362  0.47051  Biso   1.000  C
  C129     1.0000 0.50990  0.72362  0.52949  Biso   1.000  C
  H137     1.0000 0.52190  0.72820  0.44592  Biso   1.000  H
  C130     1.0000 0.46692  0.66690  0.46308  Biso   1.000  C
  H138     1.0000 0.47810  0.72820  0.55408  Biso   1.000  H
  C131     1.0000 0.53308  0.66690  0.53692  Biso   1.000  C
  H139     1.0000 0.42831  0.66599  0.47339  Biso   1.000  H
  H140     1.0000 0.47030  0.65510  0.42488  Biso   1.000  H
  C132     1.0000 0.50000  0.63031  0.50000  Biso   1.000  C
  H141     1.0000 0.57169  0.66599  0.52661  Biso   1.000  H
  H142     1.0000 0.52970  0.65510  0.57512  Biso   1.000  H
  H143     1.0000 0.47579  0.60688  0.52170  Biso   1.000  H
  H144     1.0000 0.52421  0.60688  0.47830  Biso   1.000  H
  C133     1.0000 0.50000  0.50000  0.36969  Biso   1.000  C
  C134     1.0000 0.53692  0.46692  0.33310  Biso   1.000  C
  C135     1.0000 0.46308  0.53308  0.33310  Biso   1.000  C
  H145     1.0000 0.52170  0.52421  0.39312  Biso   1.000  H
  H146     1.0000 0.47830  0.47579  0.39312  Biso   1.000  H
  C136     1.0000 0.52949  0.49010  0.27638  Biso   1.000  C
  H147     1.0000 0.52661  0.42831  0.33401  Biso   1.000  H
  H148     1.0000 0.57512  0.47030  0.34490  Biso   1.000  H
  C137     1.0000 0.47051  0.50990  0.27638  Biso   1.000  C
  H149     1.0000 0.47339  0.57169  0.33401  Biso   1.000  H
  H150     1.0000 0.42488  0.52970  0.34490  Biso   1.000  H
  N25      1.0000 0.54010  0.45071  0.23241  Biso   1.000  N
  H151     1.0000 0.55408  0.52190  0.27180  Biso   1.000  H
  N26      1.0000 0.45990  0.54929  0.23241  Biso   1.000  N
  H152     1.0000 0.44592  0.47810  0.27180  Biso   1.000  H
  C138     1.0000 0.57669  0.46308  0.19689  Biso   1.000  C
  C139     1.0000 0.42331  0.53692  0.19689  Biso   1.000  C
  C140     1.0000 0.59038  0.42839  0.14941  Biso   1.000  C
  H153     1.0000 0.59578  0.49600  0.20139  Biso   1.000  H
  C141     1.0000 0.40962  0.57161  0.14941  Biso   1.000  C
  H154     1.0000 0.40422  0.50400  0.20139  Biso   1.000  H
  C142     1.0000 0.55849  0.38281  0.13559  Biso   1.000  C
  C143     1.0000 0.63559  0.44151  0.11719  Biso   1.000  C
  C144     1.0000 0.36441  0.55849  0.11719  Biso   1.000  C
  C145     1.0000 0.44151  0.61719  0.13559  Biso   1.000  C
  C146     1.0000 0.57161  0.35059  0.09038  Biso   1.000  C
  H155     1.0000 0.52789  0.37390  0.15708  Biso   1.000  H
  C147     1.0000 0.64941  0.40962  0.07161  Biso   1.000  C
  H156     1.0000 0.65708  0.47211  0.12610  Biso   1.000  H
  H157     1.0000 0.34292  0.52789  0.12610  Biso   1.000  H
  C148     1.0000 0.35059  0.59038  0.07161  Biso   1.000  C
  H158     1.0000 0.47211  0.62610  0.15708  Biso   1.000  H
  C149     1.0000 0.42839  0.64941  0.09038  Biso   1.000  C
  C150     1.0000 0.53692  0.30311  0.07669  Biso   1.000  C
  C151     1.0000 0.61719  0.36441  0.05849  Biso   1.000  C
  C152     1.0000 0.69689  0.42331  0.03692  Biso   1.000  C
  C153     1.0000 0.38281  0.63559  0.05849  Biso   1.000  C
  C154     1.0000 0.30311  0.57669  0.03692  Biso   1.000  C
  C155     1.0000 0.46308  0.69689  0.07669  Biso   1.000  C
  N27      1.0000 0.54929  0.26759  0.04010  Biso   1.000  N
  H159     1.0000 0.50400  0.29861  0.09578  Biso   1.000  H
  H160     1.0000 0.62610  0.34292  0.02789  Biso   1.000  H
  N28      1.0000 0.73241  0.45990  0.04929  Biso   1.000  N
  H161     1.0000 0.70139  0.40422  0.00400  Biso   1.000  H
  H162     1.0000 0.37390  0.65708  0.02789  Biso   1.000  H
  N29      1.0000 0.26759  0.54010  0.04929  Biso   1.000  N
  H163     1.0000 0.29861  0.59578  0.00400  Biso   1.000  H
  N30      1.0000 0.45071  0.73241  0.04010  Biso   1.000  N
  H164     1.0000 0.49600  0.70139  0.09578  Biso   1.000  H
  C156     1.0000 0.50990  0.22362  0.02949  Biso   1.000  C
  C157     1.0000 0.77638  0.47051  0.00990  Biso   1.000  C
  C158     1.0000 0.22362  0.52949  0.00990  Biso   1.000  C
  C159     1.0000 0.49010  0.77638  0.02949  Biso   1.000  C
  H165     1.0000 0.47810  0.22820  0.05408  Biso   1.000  H
  C160     1.0000 0.53308  0.16690  0.03692  Biso   1.000  C
  C161     1.0000 0.49010  0.22362  0.97051  Biso   1.000  C
  C162     1.0000 0.83310  0.46308  0.03308  Biso   1.000  C
  C163     1.0000 0.77638  0.52949  0.99010  Biso   1.000  C
  H166     1.0000 0.77180  0.44592  0.97810  Biso   1.000  H
  C164     1.0000 0.22362  0.47051  0.99010  Biso   1.000  C
  C165     1.0000 0.16690  0.53692  0.03308  Biso   1.000  C
  H167     1.0000 0.22820  0.55408  0.97810  Biso   1.000  H
  C166     1.0000 0.50990  0.77638  0.97051  Biso   1.000  C
  H168     1.0000 0.52190  0.77180  0.05408  Biso   1.000  H
  C167     1.0000 0.46692  0.83310  0.03692  Biso   1.000  C
  H169     1.0000 0.57169  0.16599  0.02661  Biso   1.000  H
  H170     1.0000 0.52970  0.15510  0.07512  Biso   1.000  H
  C168     1.0000 0.50000  0.13031  0.00000  Biso   1.000  C
  N31      1.0000 0.45071  0.26759  0.95990  Biso   1.000  N
  H171     1.0000 0.52190  0.22820  0.94592  Biso   1.000  H
  C169     1.0000 0.46692  0.16690  0.96308  Biso   1.000  C
  H172     1.0000 0.83401  0.47339  0.07169  Biso   1.000  H
  H173     1.0000 0.84490  0.42488  0.02970  Biso   1.000  H
  C170     1.0000 0.86969  0.50000  0.00000  Biso   1.000  C
  H174     1.0000 0.77180  0.55408  0.02190  Biso   1.000  H
  N32      1.0000 0.73241  0.54010  0.95071  Biso   1.000  N
  C171     1.0000 0.83310  0.53692  0.96692  Biso   1.000  C
  N33      1.0000 0.26759  0.45990  0.95071  Biso   1.000  N
  H175     1.0000 0.22820  0.44592  0.02190  Biso   1.000  H
  C172     1.0000 0.16690  0.46308  0.96692  Biso   1.000  C
  C173     1.0000 0.13031  0.50000  0.00000  Biso   1.000  C
  H176     1.0000 0.16599  0.52661  0.07169  Biso   1.000  H
  H177     1.0000 0.15510  0.57512  0.02970  Biso   1.000  H
  N34      1.0000 0.54929  0.73241  0.95990  Biso   1.000  N
  H178     1.0000 0.47810  0.77180  0.94592  Biso   1.000  H
  C174     1.0000 0.53308  0.83310  0.96308  Biso   1.000  C
  H179     1.0000 0.42831  0.83401  0.02661  Biso   1.000  H
  H180     1.0000 0.47030  0.84490  0.07512  Biso   1.000  H
  C175     1.0000 0.50000  0.86969  0.00000  Biso   1.000  C
  H181     1.0000 0.47579  0.10688  0.02170  Biso   1.000  H
  H182     1.0000 0.52421  0.10688  0.97830  Biso   1.000  H
  C176     1.0000 0.46308  0.30311  0.92331  Biso   1.000  C
  H183     1.0000 0.42831  0.16599  0.97339  Biso   1.000  H
  H184     1.0000 0.47030  0.15510  0.92488  Biso   1.000  H
  H185     1.0000 0.89312  0.52170  0.02421  Biso   1.000  H
  H186     1.0000 0.89312  0.47830  0.97579  Biso   1.000  H
  C177     1.0000 0.69689  0.57669  0.96308  Biso   1.000  C
  H187     1.0000 0.83401  0.52661  0.92831  Biso   1.000  H
  H188     1.0000 0.84490  0.57512  0.97030  Biso   1.000  H
  C178     1.0000 0.30311  0.42331  0.96308  Biso   1.000  C
  H189     1.0000 0.16599  0.47339  0.92831  Biso   1.000  H
  H190     1.0000 0.15510  0.42488  0.97030  Biso   1.000  H
  H191     1.0000 0.10688  0.47830  0.02421  Biso   1.000  H
  H192     1.0000 0.10688  0.52170  0.97579  Biso   1.000  H
  C179     1.0000 0.53692  0.69689  0.92331  Biso   1.000  C
  H193     1.0000 0.57169  0.83401  0.97339  Biso   1.000  H
  H194     1.0000 0.52970  0.84490  0.92488  Biso   1.000  H
  H195     1.0000 0.52421  0.89312  0.02170  Biso   1.000  H
  H196     1.0000 0.47579  0.89312  0.97830  Biso   1.000  H
  C180     1.0000 0.42839  0.35059  0.90962  Biso   1.000  C
  H197     1.0000 0.49600  0.29861  0.90422  Biso   1.000  H
  C181     1.0000 0.64941  0.59038  0.92839  Biso   1.000  C
  H198     1.0000 0.70139  0.59578  0.99600  Biso   1.000  H
  C182     1.0000 0.35059  0.40962  0.92839  Biso   1.000  C
  H199     1.0000 0.29861  0.40422  0.99600  Biso   1.000  H
  C183     1.0000 0.57161  0.64941  0.90962  Biso   1.000  C
  H200     1.0000 0.50400  0.70139  0.90422  Biso   1.000  H
  C184     1.0000 0.44151  0.38281  0.86441  Biso   1.000  C
  C185     1.0000 0.38281  0.36441  0.94151  Biso   1.000  C
  C186     1.0000 0.63559  0.55849  0.88281  Biso   1.000  C
  C187     1.0000 0.61719  0.63559  0.94151  Biso   1.000  C
  C188     1.0000 0.36441  0.44151  0.88281  Biso   1.000  C
  C189     1.0000 0.55849  0.61719  0.86441  Biso   1.000  C
  H201     1.0000 0.47211  0.37390  0.84292  Biso   1.000  H
  C190     1.0000 0.40962  0.42839  0.85059  Biso   1.000  C
  H202     1.0000 0.37390  0.34292  0.97211  Biso   1.000  H
  H203     1.0000 0.65708  0.52789  0.87390  Biso   1.000  H
  C191     1.0000 0.59038  0.57161  0.85059  Biso   1.000  C
  H204     1.0000 0.62610  0.65708  0.97211  Biso   1.000  H
  H205     1.0000 0.34292  0.47211  0.87390  Biso   1.000  H
  H206     1.0000 0.52789  0.62610  0.84292  Biso   1.000  H
  C192     1.0000 0.42331  0.46308  0.80311  Biso   1.000  C
  C193     1.0000 0.57669  0.53692  0.80311  Biso   1.000  C
  N35      1.0000 0.45990  0.45071  0.76759  Biso   1.000  N
  H207     1.0000 0.40422  0.49600  0.79861  Biso   1.000  H
  N36      1.0000 0.54010  0.54929  0.76759  Biso   1.000  N
  H208     1.0000 0.59578  0.50400  0.79861  Biso   1.000  H
  C194     1.0000 0.47051  0.49010  0.72362  Biso   1.000  C
  C195     1.0000 0.52949  0.50990  0.72362  Biso   1.000  C
  H209     1.0000 0.44592  0.52190  0.72820  Biso   1.000  H
  C196     1.0000 0.46308  0.46692  0.66690  Biso   1.000  C
  H210     1.0000 0.55408  0.47810  0.72820  Biso   1.000  H
  C197     1.0000 0.53692  0.53308  0.66690  Biso   1.000  C
  H211     1.0000 0.47339  0.42831  0.66599  Biso   1.000  H
  H212     1.0000 0.42488  0.47030  0.65510  Biso   1.000  H
  C198     1.0000 0.50000  0.50000  0.63031  Biso   1.000  C
  H213     1.0000 0.52661  0.57169  0.66599  Biso   1.000  H
  H214     1.0000 0.57512  0.52970  0.65510  Biso   1.000  H
  H215     1.0000 0.52170  0.47579  0.60688  Biso   1.000  H
  H216     1.0000 0.47830  0.52421  0.60688  Biso   1.000  H
  C199     1.0000 0.36969  0.50000  0.50000  Biso   1.000  C
  C200     1.0000 0.33310  0.46308  0.53308  Biso   1.000  C
  C201     1.0000 0.33310  0.53692  0.46692  Biso   1.000  C
  H217     1.0000 0.39312  0.52170  0.52421  Biso   1.000  H
  H218     1.0000 0.39312  0.47830  0.47579  Biso   1.000  H
  C202     1.0000 0.27638  0.47051  0.50990  Biso   1.000  C
  H219     1.0000 0.33401  0.47339  0.57169  Biso   1.000  H
  H220     1.0000 0.34490  0.42488  0.52970  Biso   1.000  H
  C203     1.0000 0.27638  0.52949  0.49010  Biso   1.000  C
  H221     1.0000 0.33401  0.52661  0.42831  Biso   1.000  H
  H222     1.0000 0.34490  0.57512  0.47030  Biso   1.000  H
  N37      1.0000 0.23241  0.45990  0.54929  Biso   1.000  N
  H223     1.0000 0.27180  0.44592  0.47810  Biso   1.000  H
  N38      1.0000 0.23241  0.54010  0.45071  Biso   1.000  N
  H224     1.0000 0.27180  0.55408  0.52190  Biso   1.000  H
  C204     1.0000 0.19689  0.42331  0.53692  Biso   1.000  C
  C205     1.0000 0.19689  0.57669  0.46308  Biso   1.000  C
  C206     1.0000 0.14941  0.40962  0.57161  Biso   1.000  C
  H225     1.0000 0.20139  0.40422  0.50400  Biso   1.000  H
  C207     1.0000 0.14941  0.59038  0.42839  Biso   1.000  C
  H226     1.0000 0.20139  0.59578  0.49600  Biso   1.000  H
  C208     1.0000 0.11719  0.36441  0.55849  Biso   1.000  C
  C209     1.0000 0.13559  0.44151  0.61719  Biso   1.000  C
  C210     1.0000 0.11719  0.63559  0.44151  Biso   1.000  C
  C211     1.0000 0.13559  0.55849  0.38281  Biso   1.000  C
  H227     1.0000 0.12610  0.34292  0.52789  Biso   1.000  H
  C212     1.0000 0.07161  0.35059  0.59038  Biso   1.000  C
  H228     1.0000 0.15708  0.47211  0.62610  Biso   1.000  H
  C213     1.0000 0.09038  0.42839  0.64941  Biso   1.000  C
  H229     1.0000 0.12610  0.65708  0.47211  Biso   1.000  H
  C214     1.0000 0.07161  0.64941  0.40962  Biso   1.000  C
  H230     1.0000 0.15708  0.52789  0.37390  Biso   1.000  H
  C215     1.0000 0.09038  0.57161  0.35059  Biso   1.000  C
  C216     1.0000 0.05849  0.38281  0.63559  Biso   1.000  C
  C217     1.0000 0.03692  0.30311  0.57669  Biso   1.000  C
  C218     1.0000 0.07669  0.46308  0.69689  Biso   1.000  C
  C219     1.0000 0.05849  0.61719  0.36441  Biso   1.000  C
  C220     1.0000 0.03692  0.69689  0.42331  Biso   1.000  C
  C221     1.0000 0.07669  0.53692  0.30311  Biso   1.000  C
  H231     1.0000 0.02789  0.37390  0.65708  Biso   1.000  H
  N39      1.0000 0.04929  0.26759  0.54010  Biso   1.000  N
  H232     1.0000 0.00400  0.29861  0.59578  Biso   1.000  H
  N40      1.0000 0.04010  0.45071  0.73241  Biso   1.000  N
  H233     1.0000 0.09578  0.49600  0.70139  Biso   1.000  H
  H234     1.0000 0.02789  0.62610  0.34292  Biso   1.000  H
  N41      1.0000 0.04929  0.73241  0.45990  Biso   1.000  N
  H235     1.0000 0.00400  0.70139  0.40422  Biso   1.000  H
  N42      1.0000 0.04010  0.54929  0.26759  Biso   1.000  N
  H236     1.0000 0.09578  0.50400  0.29861  Biso   1.000  H
  C222     1.0000 0.00990  0.22362  0.52949  Biso   1.000  C
  C223     1.0000 0.02949  0.49010  0.77638  Biso   1.000  C
  C224     1.0000 0.00990  0.77638  0.47051  Biso   1.000  C
  C225     1.0000 0.02949  0.50990  0.22362  Biso   1.000  C
  C226     1.0000 0.03308  0.16690  0.53692  Biso   1.000  C
  C227     1.0000 0.99010  0.22362  0.47051  Biso   1.000  C
  H237     1.0000 0.97810  0.22820  0.55408  Biso   1.000  H
  H238     1.0000 0.05408  0.52190  0.77180  Biso   1.000  H
  C228     1.0000 0.03692  0.46692  0.83310  Biso   1.000  C
  C229     1.0000 0.97051  0.50990  0.77638  Biso   1.000  C
  C230     1.0000 0.03308  0.83310  0.46308  Biso   1.000  C
  C231     1.0000 0.99010  0.77638  0.52949  Biso   1.000  C
  H239     1.0000 0.97810  0.77180  0.44592  Biso   1.000  H
  H240     1.0000 0.05408  0.47810  0.22820  Biso   1.000  H
  C232     1.0000 0.03692  0.53308  0.16690  Biso   1.000  C
  C233     1.0000 0.97051  0.49010  0.22362  Biso   1.000  C
  H241     1.0000 0.07169  0.16599  0.52661  Biso   1.000  H
  H242     1.0000 0.02970  0.15510  0.57512  Biso   1.000  H
  C234     1.0000 0.00000  0.13031  0.50000  Biso   1.000  C
  H243     1.0000 0.02190  0.22820  0.44592  Biso   1.000  H
  N43      1.0000 0.95071  0.26759  0.45990  Biso   1.000  N
  C235     1.0000 0.96692  0.16690  0.46308  Biso   1.000  C
  H244     1.0000 0.02661  0.42831  0.83401  Biso   1.000  H
  H245     1.0000 0.07512  0.47030  0.84490  Biso   1.000  H
  C236     1.0000 0.00000  0.50000  0.86969  Biso   1.000  C
  N44      1.0000 0.95990  0.54929  0.73241  Biso   1.000  N
  H246     1.0000 0.94592  0.47810  0.77180  Biso   1.000  H
  C237     1.0000 0.96308  0.53308  0.83310  Biso   1.000  C
  H247     1.0000 0.07169  0.83401  0.47339  Biso   1.000  H
  H248     1.0000 0.02970  0.84490  0.42488  Biso   1.000  H
  C238     1.0000 0.00000  0.86969  0.50000  Biso   1.000  C
  H249     1.0000 0.02190  0.77180  0.55408  Biso   1.000  H
  N45      1.0000 0.95071  0.73241  0.54010  Biso   1.000  N
  C239     1.0000 0.96692  0.83310  0.53692  Biso   1.000  C
  H250     1.0000 0.02661  0.57169  0.16599  Biso   1.000  H
  H251     1.0000 0.07512  0.52970  0.15510  Biso   1.000  H
  C240     1.0000 0.00000  0.50000  0.13031  Biso   1.000  C
  N46      1.0000 0.95990  0.45071  0.26759  Biso   1.000  N
  H252     1.0000 0.94592  0.52190  0.22820  Biso   1.000  H
  C241     1.0000 0.96308  0.46692  0.16690  Biso   1.000  C
  H253     1.0000 0.02421  0.10688  0.47830  Biso   1.000  H
  H254     1.0000 0.97579  0.10688  0.52170  Biso   1.000  H
  C242     1.0000 0.96308  0.30311  0.42331  Biso   1.000  C
  H255     1.0000 0.92831  0.16599  0.47339  Biso   1.000  H
  H256     1.0000 0.97030  0.15510  0.42488  Biso   1.000  H
  H257     1.0000 0.02170  0.52421  0.89312  Biso   1.000  H
  H258     1.0000 0.97830  0.47579  0.89312  Biso   1.000  H
  C243     1.0000 0.92331  0.53692  0.69689  Biso   1.000  C
  H259     1.0000 0.97339  0.57169  0.83401  Biso   1.000  H
  H260     1.0000 0.92488  0.52970  0.84490  Biso   1.000  H
  H261     1.0000 0.02421  0.89312  0.52170  Biso   1.000  H
  H262     1.0000 0.97579  0.89312  0.47830  Biso   1.000  H
  C244     1.0000 0.96308  0.69689  0.57669  Biso   1.000  C
  H263     1.0000 0.92831  0.83401  0.52661  Biso   1.000  H
  H264     1.0000 0.97030  0.84490  0.57512  Biso   1.000  H
  H265     1.0000 0.02170  0.47579  0.10688  Biso   1.000  H
  H266     1.0000 0.97830  0.52421  0.10688  Biso   1.000  H
  C245     1.0000 0.92331  0.46308  0.30311  Biso   1.000  C
  H267     1.0000 0.97339  0.42831  0.16599  Biso   1.000  H
  H268     1.0000 0.92488  0.47030  0.15510  Biso   1.000  H
  C246     1.0000 0.92839  0.35059  0.40962  Biso   1.000  C
  H269     1.0000 0.99600  0.29861  0.40422  Biso   1.000  H
  C247     1.0000 0.90962  0.57161  0.64941  Biso   1.000  C
  H270     1.0000 0.90422  0.50400  0.70139  Biso   1.000  H
  C248     1.0000 0.92839  0.64941  0.59038  Biso   1.000  C
  H271     1.0000 0.99600  0.70139  0.59578  Biso   1.000  H
  C249     1.0000 0.90962  0.42839  0.35059  Biso   1.000  C
  H272     1.0000 0.90422  0.49600  0.29861  Biso   1.000  H
  C250     1.0000 0.88281  0.36441  0.44151  Biso   1.000  C
  C251     1.0000 0.94151  0.38281  0.36441  Biso   1.000  C
  C252     1.0000 0.86441  0.55849  0.61719  Biso   1.000  C
  C253     1.0000 0.94151  0.61719  0.63559  Biso   1.000  C
  C254     1.0000 0.88281  0.63559  0.55849  Biso   1.000  C
  C255     1.0000 0.86441  0.44151  0.38281  Biso   1.000  C
  H273     1.0000 0.87390  0.34292  0.47211  Biso   1.000  H
  C256     1.0000 0.85059  0.40962  0.42839  Biso   1.000  C
  H274     1.0000 0.97211  0.37390  0.34292  Biso   1.000  H
  H275     1.0000 0.84292  0.52789  0.62610  Biso   1.000  H
  C257     1.0000 0.85059  0.59038  0.57161  Biso   1.000  C
  H276     1.0000 0.97211  0.62610  0.65708  Biso   1.000  H
  H277     1.0000 0.87390  0.65708  0.52789  Biso   1.000  H
  H278     1.0000 0.84292  0.47211  0.37390  Biso   1.000  H
  C258     1.0000 0.80311  0.42331  0.46308  Biso   1.000  C
  C259     1.0000 0.80311  0.57669  0.53692  Biso   1.000  C
  N47      1.0000 0.76759  0.45990  0.45071  Biso   1.000  N
  H279     1.0000 0.79861  0.40422  0.49600  Biso   1.000  H
  N48      1.0000 0.76759  0.54010  0.54929  Biso   1.000  N
  H280     1.0000 0.79861  0.59578  0.50400  Biso   1.000  H
  C260     1.0000 0.72362  0.47051  0.49010  Biso   1.000  C
  C261     1.0000 0.72362  0.52949  0.50990  Biso   1.000  C
  H281     1.0000 0.72820  0.44592  0.52190  Biso   1.000  H
  C262     1.0000 0.66690  0.46308  0.46692  Biso   1.000  C
  H282     1.0000 0.72820  0.55408  0.47810  Biso   1.000  H
  C263     1.0000 0.66690  0.53692  0.53308  Biso   1.000  C
  H283     1.0000 0.66599  0.47339  0.42831  Biso   1.000  H
  H284     1.0000 0.65510  0.42488  0.47030  Biso   1.000  H
  C264     1.0000 0.63031  0.50000  0.50000  Biso   1.000  C
  H285     1.0000 0.66599  0.52661  0.57169  Biso   1.000  H
  H286     1.0000 0.65510  0.57512  0.52970  Biso   1.000  H
  H287     1.0000 0.60688  0.47830  0.52421  Biso   1.000  H
  H288     1.0000 0.60688  0.52170  0.47579  Biso   1.000  H
  C265     1.0000 0.71310  0.41688  0.28310  Biso   1.000  C
  C266     1.0000 0.72049  0.47360  0.25988  Biso   1.000  C
  H289     1.0000 0.72341  0.41601  0.32171  Biso   1.000  H
  H290     1.0000 0.67490  0.40508  0.27968  Biso   1.000  H
  C267     1.0000 0.74998  0.38029  0.25002  Biso   1.000  C
  N49      1.0000 0.70988  0.51761  0.29932  Biso   1.000  N
  C268     1.0000 0.77951  0.47360  0.24012  Biso   1.000  C
  H291     1.0000 0.69590  0.47822  0.22812  Biso   1.000  H
  C269     1.0000 0.78690  0.41688  0.21690  Biso   1.000  C
  H292     1.0000 0.77172  0.35690  0.27419  Biso   1.000  H
  H293     1.0000 0.72828  0.35690  0.22581  Biso   1.000  H
  C270     1.0000 0.67329  0.55309  0.28690  Biso   1.000  C
  N50      1.0000 0.79012  0.51761  0.20068  Biso   1.000  N
  H294     1.0000 0.80410  0.47822  0.27188  Biso   1.000  H
  H295     1.0000 0.77659  0.41601  0.17829  Biso   1.000  H
  H296     1.0000 0.82510  0.40508  0.22032  Biso   1.000  H
  C271     1.0000 0.65960  0.60061  0.32159  Biso   1.000  C
  H297     1.0000 0.65420  0.54859  0.25398  Biso   1.000  H
  C272     1.0000 0.82671  0.55309  0.21310  Biso   1.000  C
  C273     1.0000 0.69149  0.61439  0.36721  Biso   1.000  C
  C274     1.0000 0.61439  0.63279  0.30851  Biso   1.000  C
  C275     1.0000 0.84040  0.60061  0.17841  Biso   1.000  C
  H298     1.0000 0.84580  0.54859  0.24602  Biso   1.000  H
  H299     1.0000 0.72209  0.59290  0.37608  Biso   1.000  H
  C276     1.0000 0.67841  0.65960  0.39939  Biso   1.000  C
  H300     1.0000 0.59290  0.62392  0.27791  Biso   1.000  H
  C277     1.0000 0.60061  0.67841  0.34040  Biso   1.000  C
  C278     1.0000 0.80851  0.61439  0.13279  Biso   1.000  C
  C279     1.0000 0.88561  0.63279  0.19149  Biso   1.000  C
  C280     1.0000 0.63279  0.69149  0.38561  Biso   1.000  C
  C281     1.0000 0.71310  0.67329  0.44691  Biso   1.000  C
  C282     1.0000 0.55309  0.71310  0.32671  Biso   1.000  C
  H301     1.0000 0.77791  0.59290  0.12392  Biso   1.000  H
  C283     1.0000 0.82159  0.65960  0.10061  Biso   1.000  C
  H302     1.0000 0.90710  0.62392  0.22209  Biso   1.000  H
  C284     1.0000 0.89939  0.67841  0.15960  Biso   1.000  C
  H303     1.0000 0.62392  0.72209  0.40710  Biso   1.000  H
  N51      1.0000 0.70068  0.70988  0.48239  Biso   1.000  N
  H304     1.0000 0.74602  0.65420  0.45141  Biso   1.000  H
  N52      1.0000 0.51761  0.70068  0.29012  Biso   1.000  N
  H305     1.0000 0.54859  0.74602  0.34580  Biso   1.000  H
  C285     1.0000 0.86721  0.69149  0.11439  Biso   1.000  C
  C286     1.0000 0.78690  0.67329  0.05309  Biso   1.000  C
  C287     1.0000 0.94691  0.71310  0.17329  Biso   1.000  C
  C288     1.0000 0.74012  0.72049  0.52640  Biso   1.000  C
  C289     1.0000 0.47360  0.74012  0.27951  Biso   1.000  C
  H306     1.0000 0.87608  0.72209  0.09290  Biso   1.000  H
  N53      1.0000 0.79932  0.70988  0.01761  Biso   1.000  N
  H307     1.0000 0.75398  0.65420  0.04859  Biso   1.000  H
  N54      1.0000 0.98239  0.70068  0.20988  Biso   1.000  N
  H308     1.0000 0.95141  0.74602  0.15420  Biso   1.000  H
  C290     1.0000 0.75988  0.77951  0.52640  Biso   1.000  C
  H309     1.0000 0.77188  0.69590  0.52178  Biso   1.000  H
  C291     1.0000 0.71690  0.71310  0.58312  Biso   1.000  C
  C292     1.0000 0.47360  0.75988  0.22049  Biso   1.000  C
  H310     1.0000 0.47822  0.77188  0.30410  Biso   1.000  H
  C293     1.0000 0.41688  0.71690  0.28690  Biso   1.000  C
  C294     1.0000 0.75988  0.72049  0.97360  Biso   1.000  C
  C295     1.0000 0.02640  0.74012  0.22049  Biso   1.000  C
  N55      1.0000 0.79932  0.79012  0.48239  Biso   1.000  N
  H311     1.0000 0.72812  0.80410  0.52178  Biso   1.000  H
  C296     1.0000 0.78310  0.78690  0.58312  Biso   1.000  C
  H312     1.0000 0.67829  0.72341  0.58399  Biso   1.000  H
  H313     1.0000 0.72032  0.67490  0.59492  Biso   1.000  H
  C297     1.0000 0.74998  0.74998  0.61971  Biso   1.000  C
  N56      1.0000 0.51761  0.79932  0.20988  Biso   1.000  N
  H314     1.0000 0.47822  0.72812  0.19590  Biso   1.000  H
  C298     1.0000 0.41688  0.78310  0.21310  Biso   1.000  C
  H315     1.0000 0.41601  0.67829  0.27659  Biso   1.000  H
  H316     1.0000 0.40508  0.72032  0.32510  Biso   1.000  H
  C299     1.0000 0.38029  0.74998  0.25002  Biso   1.000  C
  C300     1.0000 0.74012  0.77951  0.97360  Biso   1.000  C
  H317     1.0000 0.72812  0.69590  0.97822  Biso   1.000  H
  C301     1.0000 0.78310  0.71310  0.91688  Biso   1.000  C
  C302     1.0000 0.02640  0.75988  0.27951  Biso   1.000  C
  H318     1.0000 0.02178  0.77188  0.19590  Biso   1.000  H
  C303     1.0000 0.08312  0.71690  0.21310  Biso   1.000  C
  C304     1.0000 0.78690  0.82671  0.44691  Biso   1.000  C
  H319     1.0000 0.82171  0.77659  0.58399  Biso   1.000  H
  H320     1.0000 0.77968  0.82510  0.59492  Biso   1.000  H
  H321     1.0000 0.77419  0.72828  0.64310  Biso   1.000  H
  H322     1.0000 0.72581  0.77172  0.64310  Biso   1.000  H
  C305     1.0000 0.55309  0.78690  0.17329  Biso   1.000  C
  H323     1.0000 0.41601  0.82171  0.22341  Biso   1.000  H
  H324     1.0000 0.40508  0.77968  0.17490  Biso   1.000  H
  H325     1.0000 0.35690  0.77419  0.27172  Biso   1.000  H
  H326     1.0000 0.35690  0.72581  0.22828  Biso   1.000  H
  N57      1.0000 0.70068  0.79012  0.01761  Biso   1.000  N
  H327     1.0000 0.77188  0.80410  0.97822  Biso   1.000  H
  C306     1.0000 0.71690  0.78690  0.91688  Biso   1.000  C
  H328     1.0000 0.82171  0.72341  0.91601  Biso   1.000  H
  H329     1.0000 0.77968  0.67490  0.90508  Biso   1.000  H
  C307     1.0000 0.74998  0.74998  0.88029  Biso   1.000  C
  N58      1.0000 0.98239  0.79932  0.29012  Biso   1.000  N
  H330     1.0000 0.02178  0.72812  0.30410  Biso   1.000  H
  C308     1.0000 0.08312  0.78310  0.28690  Biso   1.000  C
  H331     1.0000 0.08399  0.67829  0.22341  Biso   1.000  H
  H332     1.0000 0.09492  0.72032  0.17490  Biso   1.000  H
  C309     1.0000 0.11971  0.74998  0.25002  Biso   1.000  C
  C310     1.0000 0.82159  0.84040  0.39939  Biso   1.000  C
  H333     1.0000 0.75398  0.84580  0.45141  Biso   1.000  H
  C311     1.0000 0.60061  0.82159  0.15960  Biso   1.000  C
  H334     1.0000 0.54859  0.75398  0.15420  Biso   1.000  H
  C312     1.0000 0.71310  0.82671  0.05309  Biso   1.000  C
  H335     1.0000 0.67829  0.77659  0.91601  Biso   1.000  H
  H336     1.0000 0.72032  0.82510  0.90508  Biso   1.000  H
  H337     1.0000 0.77419  0.77172  0.85690  Biso   1.000  H
  H338     1.0000 0.72581  0.72828  0.85690  Biso   1.000  H
  C313     1.0000 0.94691  0.78690  0.32671  Biso   1.000  C
  H339     1.0000 0.08399  0.82171  0.27659  Biso   1.000  H
  H340     1.0000 0.09492  0.77968  0.32510  Biso   1.000  H
  H341     1.0000 0.14310  0.72581  0.27172  Biso   1.000  H
  H342     1.0000 0.14310  0.77419  0.22828  Biso   1.000  H
  C314     1.0000 0.80851  0.88561  0.36721  Biso   1.000  C
  C315     1.0000 0.86721  0.80851  0.38561  Biso   1.000  C
  C316     1.0000 0.61439  0.86721  0.19149  Biso   1.000  C
  C317     1.0000 0.63279  0.80851  0.11439  Biso   1.000  C
  C318     1.0000 0.67841  0.84040  0.10061  Biso   1.000  C
  H343     1.0000 0.74602  0.84580  0.04859  Biso   1.000  H
  C319     1.0000 0.89939  0.82159  0.34040  Biso   1.000  C
  H344     1.0000 0.95141  0.75398  0.34580  Biso   1.000  H
  H345     1.0000 0.77791  0.90710  0.37608  Biso   1.000  H
  C320     1.0000 0.84040  0.89939  0.32159  Biso   1.000  C
  H346     1.0000 0.87608  0.77791  0.40710  Biso   1.000  H
  H347     1.0000 0.59290  0.87608  0.22209  Biso   1.000  H
  C321     1.0000 0.65960  0.89939  0.17841  Biso   1.000  C
  H348     1.0000 0.62392  0.77791  0.09290  Biso   1.000  H
  C322     1.0000 0.69149  0.88561  0.13279  Biso   1.000  C
  C323     1.0000 0.88561  0.86721  0.30851  Biso   1.000  C
  C324     1.0000 0.82671  0.94691  0.28690  Biso   1.000  C
  C325     1.0000 0.67329  0.94691  0.21310  Biso   1.000  C
  H349     1.0000 0.72209  0.90710  0.12392  Biso   1.000  H
  H350     1.0000 0.90710  0.87608  0.27791  Biso   1.000  H
  N59      1.0000 0.79012  0.98239  0.29932  Biso   1.000  N
  H351     1.0000 0.84580  0.95141  0.25398  Biso   1.000  H
  N60      1.0000 0.70988  0.98239  0.20068  Biso   1.000  N
  H352     1.0000 0.65420  0.95141  0.24602  Biso   1.000  H
  C326     1.0000 0.77951  0.02640  0.25988  Biso   1.000  C
  C327     1.0000 0.72049  0.02640  0.24012  Biso   1.000  C
  H353     1.0000 0.80410  0.02178  0.22812  Biso   1.000  H
  C328     1.0000 0.78690  0.08312  0.28310  Biso   1.000  C
  H354     1.0000 0.69590  0.02178  0.27188  Biso   1.000  H
  C329     1.0000 0.71310  0.08312  0.21690  Biso   1.000  C
  H355     1.0000 0.77659  0.08399  0.32171  Biso   1.000  H
  H356     1.0000 0.82510  0.09492  0.27968  Biso   1.000  H
  C330     1.0000 0.74998  0.11971  0.25002  Biso   1.000  C
  H357     1.0000 0.72341  0.08399  0.17829  Biso   1.000  H
  H358     1.0000 0.67490  0.09492  0.22032  Biso   1.000  H
  H359     1.0000 0.77172  0.14310  0.22581  Biso   1.000  H
  H360     1.0000 0.72828  0.14310  0.27419  Biso   1.000  H
  C331     1.0000 0.41688  0.28310  0.71310  Biso   1.000  C
  C332     1.0000 0.47360  0.25988  0.72049  Biso   1.000  C
  H361     1.0000 0.41601  0.32171  0.72341  Biso   1.000  H
  H362     1.0000 0.40508  0.27968  0.67490  Biso   1.000  H
  C333     1.0000 0.38029  0.25002  0.74998  Biso   1.000  C
  N61      1.0000 0.51761  0.29932  0.70988  Biso   1.000  N
  C334     1.0000 0.47360  0.24012  0.77951  Biso   1.000  C
  H363     1.0000 0.47822  0.22812  0.69590  Biso   1.000  H
  C335     1.0000 0.41688  0.21690  0.78690  Biso   1.000  C
  H364     1.0000 0.35690  0.27419  0.77172  Biso   1.000  H
  H365     1.0000 0.35690  0.22581  0.72828  Biso   1.000  H
  C336     1.0000 0.55309  0.28690  0.67329  Biso   1.000  C
  N62      1.0000 0.51761  0.20068  0.79012  Biso   1.000  N
  H366     1.0000 0.47822  0.27188  0.80410  Biso   1.000  H
  H367     1.0000 0.41601  0.17829  0.77659  Biso   1.000  H
  H368     1.0000 0.40508  0.22032  0.82510  Biso   1.000  H
  C337     1.0000 0.60061  0.32159  0.65960  Biso   1.000  C
  H369     1.0000 0.54859  0.25398  0.65420  Biso   1.000  H
  C338     1.0000 0.55309  0.21310  0.82671  Biso   1.000  C
  C339     1.0000 0.63279  0.30851  0.61439  Biso   1.000  C
  C340     1.0000 0.61439  0.36721  0.69149  Biso   1.000  C
  C341     1.0000 0.60061  0.17841  0.84040  Biso   1.000  C
  H370     1.0000 0.54859  0.24602  0.84580  Biso   1.000  H
  C342     1.0000 0.67841  0.34040  0.60061  Biso   1.000  C
  H371     1.0000 0.62392  0.27791  0.59290  Biso   1.000  H
  C343     1.0000 0.65960  0.39939  0.67841  Biso   1.000  C
  H372     1.0000 0.59290  0.37608  0.72209  Biso   1.000  H
  C344     1.0000 0.61439  0.13279  0.80851  Biso   1.000  C
  C345     1.0000 0.63279  0.19149  0.88561  Biso   1.000  C
  C346     1.0000 0.71310  0.32671  0.55309  Biso   1.000  C
  C347     1.0000 0.69149  0.38561  0.63279  Biso   1.000  C
  C348     1.0000 0.67329  0.44691  0.71310  Biso   1.000  C
  C349     1.0000 0.65960  0.10061  0.82159  Biso   1.000  C
  H373     1.0000 0.59290  0.12392  0.77791  Biso   1.000  H
  H374     1.0000 0.62392  0.22209  0.90710  Biso   1.000  H
  C350     1.0000 0.67841  0.15960  0.89939  Biso   1.000  C
  N63      1.0000 0.70068  0.29012  0.51761  Biso   1.000  N
  H375     1.0000 0.74602  0.34580  0.54859  Biso   1.000  H
  H376     1.0000 0.72209  0.40710  0.62392  Biso   1.000  H
  N64      1.0000 0.70988  0.48239  0.70068  Biso   1.000  N
  H377     1.0000 0.65420  0.45141  0.74602  Biso   1.000  H
  C351     1.0000 0.67329  0.05309  0.78690  Biso   1.000  C
  C352     1.0000 0.69149  0.11439  0.86721  Biso   1.000  C
  C353     1.0000 0.71310  0.17329  0.94691  Biso   1.000  C
  C354     1.0000 0.74012  0.27951  0.47360  Biso   1.000  C
  C355     1.0000 0.72049  0.52640  0.74012  Biso   1.000  C
  N65      1.0000 0.70988  0.01761  0.79932  Biso   1.000  N
  H378     1.0000 0.65420  0.04859  0.75398  Biso   1.000  H
  H379     1.0000 0.72209  0.09290  0.87608  Biso   1.000  H
  N66      1.0000 0.70068  0.20988  0.98239  Biso   1.000  N
  H380     1.0000 0.74602  0.15420  0.95141  Biso   1.000  H
  C356     1.0000 0.71690  0.28690  0.41688  Biso   1.000  C
  C357     1.0000 0.75988  0.22049  0.47360  Biso   1.000  C
  H381     1.0000 0.77188  0.30410  0.47822  Biso   1.000  H
  C358     1.0000 0.77951  0.52640  0.75988  Biso   1.000  C
  H382     1.0000 0.69590  0.52178  0.77188  Biso   1.000  H
  C359     1.0000 0.71310  0.58312  0.71690  Biso   1.000  C
  C360     1.0000 0.72049  0.97360  0.75988  Biso   1.000  C
  C361     1.0000 0.74012  0.22049  0.02640  Biso   1.000  C
  H383     1.0000 0.67829  0.27659  0.41601  Biso   1.000  H
  H384     1.0000 0.72032  0.32510  0.40508  Biso   1.000  H
  C362     1.0000 0.74998  0.25002  0.38029  Biso   1.000  C
  C363     1.0000 0.78310  0.21310  0.41688  Biso   1.000  C
  N67      1.0000 0.79932  0.20988  0.51761  Biso   1.000  N
  H385     1.0000 0.72812  0.19590  0.47822  Biso   1.000  H
  N68      1.0000 0.79012  0.48239  0.79932  Biso   1.000  N
  H386     1.0000 0.80410  0.52178  0.72812  Biso   1.000  H
  C364     1.0000 0.78690  0.58312  0.78310  Biso   1.000  C
  H387     1.0000 0.72341  0.58399  0.67829  Biso   1.000  H
  H388     1.0000 0.67490  0.59492  0.72032  Biso   1.000  H
  C365     1.0000 0.74998  0.61971  0.74998  Biso   1.000  C
  C366     1.0000 0.77951  0.97360  0.74012  Biso   1.000  C
  H389     1.0000 0.69590  0.97822  0.72812  Biso   1.000  H
  C367     1.0000 0.71310  0.91688  0.78310  Biso   1.000  C
  C368     1.0000 0.75988  0.27951  0.02640  Biso   1.000  C
  H390     1.0000 0.77188  0.19590  0.02178  Biso   1.000  H
  C369     1.0000 0.71690  0.21310  0.08312  Biso   1.000  C
  H391     1.0000 0.77419  0.27172  0.35690  Biso   1.000  H
  H392     1.0000 0.72581  0.22828  0.35690  Biso   1.000  H
  H393     1.0000 0.82171  0.22341  0.41601  Biso   1.000  H
  H394     1.0000 0.77968  0.17490  0.40508  Biso   1.000  H
  C370     1.0000 0.78690  0.17329  0.55309  Biso   1.000  C
  C371     1.0000 0.82671  0.44691  0.78690  Biso   1.000  C
  H395     1.0000 0.77659  0.58399  0.82171  Biso   1.000  H
  H396     1.0000 0.82510  0.59492  0.77968  Biso   1.000  H
  H397     1.0000 0.77172  0.64310  0.72581  Biso   1.000  H
  H398     1.0000 0.72828  0.64310  0.77419  Biso   1.000  H
  N69      1.0000 0.79012  0.01761  0.70068  Biso   1.000  N
  H399     1.0000 0.80410  0.97822  0.77188  Biso   1.000  H
  C372     1.0000 0.78690  0.91688  0.71690  Biso   1.000  C
  C373     1.0000 0.74998  0.88029  0.74998  Biso   1.000  C
  H400     1.0000 0.72341  0.91601  0.82171  Biso   1.000  H
  H401     1.0000 0.67490  0.90508  0.77968  Biso   1.000  H
  N70      1.0000 0.79932  0.29012  0.98239  Biso   1.000  N
  H402     1.0000 0.72812  0.30410  0.02178  Biso   1.000  H
  C374     1.0000 0.78310  0.28690  0.08312  Biso   1.000  C
  C375     1.0000 0.74998  0.25002  0.11971  Biso   1.000  C
  H403     1.0000 0.67829  0.22341  0.08399  Biso   1.000  H
  H404     1.0000 0.72032  0.17490  0.09492  Biso   1.000  H
  C376     1.0000 0.82159  0.15960  0.60061  Biso   1.000  C
  H405     1.0000 0.75398  0.15420  0.54859  Biso   1.000  H
  C377     1.0000 0.84040  0.39939  0.82159  Biso   1.000  C
  H406     1.0000 0.84580  0.45141  0.75398  Biso   1.000  H
  C378     1.0000 0.82671  0.05309  0.71310  Biso   1.000  C
  H407     1.0000 0.77659  0.91601  0.67829  Biso   1.000  H
  H408     1.0000 0.82510  0.90508  0.72032  Biso   1.000  H
  H409     1.0000 0.77172  0.85690  0.77419  Biso   1.000  H
  H410     1.0000 0.72828  0.85690  0.72581  Biso   1.000  H
  C379     1.0000 0.78690  0.32671  0.94691  Biso   1.000  C
  H411     1.0000 0.82171  0.27659  0.08399  Biso   1.000  H
  H412     1.0000 0.77968  0.32510  0.09492  Biso   1.000  H
  H413     1.0000 0.77419  0.22828  0.14310  Biso   1.000  H
  H414     1.0000 0.72581  0.27172  0.14310  Biso   1.000  H
  C380     1.0000 0.80851  0.11439  0.63279  Biso   1.000  C
  C381     1.0000 0.86721  0.19149  0.61439  Biso   1.000  C
  C382     1.0000 0.88561  0.36721  0.80851  Biso   1.000  C
  C383     1.0000 0.80851  0.38561  0.86721  Biso   1.000  C
  C384     1.0000 0.84040  0.10061  0.67841  Biso   1.000  C
  H415     1.0000 0.84580  0.04859  0.74602  Biso   1.000  H
  C385     1.0000 0.82159  0.34040  0.89939  Biso   1.000  C
  H416     1.0000 0.75398  0.34580  0.95141  Biso   1.000  H
  H417     1.0000 0.77791  0.09290  0.62392  Biso   1.000  H
  H418     1.0000 0.87608  0.22209  0.59290  Biso   1.000  H
  C386     1.0000 0.89939  0.17841  0.65960  Biso   1.000  C
  C387     1.0000 0.89939  0.32159  0.84040  Biso   1.000  C
  H419     1.0000 0.90710  0.37608  0.77791  Biso   1.000  H
  H420     1.0000 0.77791  0.40710  0.87608  Biso   1.000  H
  C388     1.0000 0.88561  0.13279  0.69149  Biso   1.000  C
  C389     1.0000 0.86721  0.30851  0.88561  Biso   1.000  C
  C390     1.0000 0.94691  0.21310  0.67329  Biso   1.000  C
  C391     1.0000 0.94691  0.28690  0.82671  Biso   1.000  C
  H421     1.0000 0.90710  0.12392  0.72209  Biso   1.000  H
  H422     1.0000 0.87608  0.27791  0.90710  Biso   1.000  H
  N71      1.0000 0.98239  0.20068  0.70988  Biso   1.000  N
  H423     1.0000 0.95141  0.24602  0.65420  Biso   1.000  H
  N72      1.0000 0.98239  0.29932  0.79012  Biso   1.000  N
  H424     1.0000 0.95141  0.25398  0.84580  Biso   1.000  H
  C392     1.0000 0.02640  0.24012  0.72049  Biso   1.000  C
  C393     1.0000 0.02640  0.25988  0.77951  Biso   1.000  C
  H425     1.0000 0.02178  0.27188  0.69590  Biso   1.000  H
  C394     1.0000 0.08312  0.21690  0.71310  Biso   1.000  C
  H426     1.0000 0.02178  0.22812  0.80410  Biso   1.000  H
  C395     1.0000 0.08312  0.28310  0.78690  Biso   1.000  C
  H427     1.0000 0.08399  0.17829  0.72341  Biso   1.000  H
  H428     1.0000 0.09492  0.22032  0.67490  Biso   1.000  H
  C396     1.0000 0.11971  0.25002  0.74998  Biso   1.000  C
  H429     1.0000 0.08399  0.32171  0.77659  Biso   1.000  H
  H430     1.0000 0.09492  0.27968  0.82510  Biso   1.000  H
  H431     1.0000 0.14310  0.22581  0.77172  Biso   1.000  H
  H432     1.0000 0.14310  0.27419  0.72828  Biso   1.000  H
  C397     1.0000 0.28310  0.71310  0.41688  Biso   1.000  C
  C398     1.0000 0.25988  0.72049  0.47360  Biso   1.000  C
  H433     1.0000 0.32171  0.72341  0.41601  Biso   1.000  H
  H434     1.0000 0.27968  0.67490  0.40508  Biso   1.000  H
  C399     1.0000 0.25002  0.74998  0.38029  Biso   1.000  C
  N73      1.0000 0.29932  0.70988  0.51761  Biso   1.000  N
  C400     1.0000 0.24012  0.77951  0.47360  Biso   1.000  C
  H435     1.0000 0.22812  0.69590  0.47822  Biso   1.000  H
  C401     1.0000 0.21690  0.78690  0.41688  Biso   1.000  C
  H436     1.0000 0.27419  0.77172  0.35690  Biso   1.000  H
  H437     1.0000 0.22581  0.72828  0.35690  Biso   1.000  H
  C402     1.0000 0.28690  0.67329  0.55309  Biso   1.000  C
  N74      1.0000 0.20068  0.79012  0.51761  Biso   1.000  N
  H438     1.0000 0.27188  0.80410  0.47822  Biso   1.000  H
  H439     1.0000 0.17829  0.77659  0.41601  Biso   1.000  H
  H440     1.0000 0.22032  0.82510  0.40508  Biso   1.000  H
  C403     1.0000 0.32159  0.65960  0.60061  Biso   1.000  C
  H441     1.0000 0.25398  0.65420  0.54859  Biso   1.000  H
  C404     1.0000 0.21310  0.82671  0.55309  Biso   1.000  C
  C405     1.0000 0.36721  0.69149  0.61439  Biso   1.000  C
  C406     1.0000 0.30851  0.61439  0.63279  Biso   1.000  C
  C407     1.0000 0.17841  0.84040  0.60061  Biso   1.000  C
  H442     1.0000 0.24602  0.84580  0.54859  Biso   1.000  H
  H443     1.0000 0.37608  0.72209  0.59290  Biso   1.000  H
  C408     1.0000 0.39939  0.67841  0.65960  Biso   1.000  C
  H444     1.0000 0.27791  0.59290  0.62392  Biso   1.000  H
  C409     1.0000 0.34040  0.60061  0.67841  Biso   1.000  C
  C410     1.0000 0.13279  0.80851  0.61439  Biso   1.000  C
  C411     1.0000 0.19149  0.88561  0.63279  Biso   1.000  C
  C412     1.0000 0.38561  0.63279  0.69149  Biso   1.000  C
  C413     1.0000 0.44691  0.71310  0.67329  Biso   1.000  C
  C414     1.0000 0.32671  0.55309  0.71310  Biso   1.000  C
  H445     1.0000 0.12392  0.77791  0.59290  Biso   1.000  H
  C415     1.0000 0.10061  0.82159  0.65960  Biso   1.000  C
  H446     1.0000 0.22209  0.90710  0.62392  Biso   1.000  H
  C416     1.0000 0.15960  0.89939  0.67841  Biso   1.000  C
  H447     1.0000 0.40710  0.62392  0.72209  Biso   1.000  H
  N75      1.0000 0.48239  0.70068  0.70988  Biso   1.000  N
  H448     1.0000 0.45141  0.74602  0.65420  Biso   1.000  H
  N76      1.0000 0.29012  0.51761  0.70068  Biso   1.000  N
  H449     1.0000 0.34580  0.54859  0.74602  Biso   1.000  H
  C417     1.0000 0.11439  0.86721  0.69149  Biso   1.000  C
  C418     1.0000 0.05309  0.78690  0.67329  Biso   1.000  C
  C419     1.0000 0.17329  0.94691  0.71310  Biso   1.000  C
  C420     1.0000 0.52640  0.74012  0.72049  Biso   1.000  C
  C421     1.0000 0.27951  0.47360  0.74012  Biso   1.000  C
  H450     1.0000 0.09290  0.87608  0.72209  Biso   1.000  H
  N77      1.0000 0.01761  0.79932  0.70988  Biso   1.000  N
  H451     1.0000 0.04859  0.75398  0.65420  Biso   1.000  H
  N78      1.0000 0.20988  0.98239  0.70068  Biso   1.000  N
  H452     1.0000 0.15420  0.95141  0.74602  Biso   1.000  H
  C422     1.0000 0.52640  0.75988  0.77951  Biso   1.000  C
  H453     1.0000 0.52178  0.77188  0.69590  Biso   1.000  H
  C423     1.0000 0.58312  0.71690  0.71310  Biso   1.000  C
  C424     1.0000 0.22049  0.47360  0.75988  Biso   1.000  C
  H454     1.0000 0.30410  0.47822  0.77188  Biso   1.000  H
  C425     1.0000 0.28690  0.41688  0.71690  Biso   1.000  C
  C426     1.0000 0.97360  0.75988  0.72049  Biso   1.000  C
  C427     1.0000 0.22049  0.02640  0.74012  Biso   1.000  C
  N79      1.0000 0.48239  0.79932  0.79012  Biso   1.000  N
  H455     1.0000 0.52178  0.72812  0.80410  Biso   1.000  H
  C428     1.0000 0.58312  0.78310  0.78690  Biso   1.000  C
  H456     1.0000 0.58399  0.67829  0.72341  Biso   1.000  H
  H457     1.0000 0.59492  0.72032  0.67490  Biso   1.000  H
  C429     1.0000 0.61971  0.74998  0.74998  Biso   1.000  C
  N80      1.0000 0.20988  0.51761  0.79932  Biso   1.000  N
  H458     1.0000 0.19590  0.47822  0.72812  Biso   1.000  H
  C430     1.0000 0.21310  0.41688  0.78310  Biso   1.000  C
  H459     1.0000 0.27659  0.41601  0.67829  Biso   1.000  H
  H460     1.0000 0.32510  0.40508  0.72032  Biso   1.000  H
  C431     1.0000 0.25002  0.38029  0.74998  Biso   1.000  C
  C432     1.0000 0.97360  0.74012  0.77951  Biso   1.000  C
  H461     1.0000 0.97822  0.72812  0.69590  Biso   1.000  H
  C433     1.0000 0.91688  0.78310  0.71310  Biso   1.000  C
  C434     1.0000 0.27951  0.02640  0.75988  Biso   1.000  C
  H462     1.0000 0.19590  0.02178  0.77188  Biso   1.000  H
  C435     1.0000 0.21310  0.08312  0.71690  Biso   1.000  C
  C436     1.0000 0.44691  0.78690  0.82671  Biso   1.000  C
  H463     1.0000 0.58399  0.82171  0.77659  Biso   1.000  H
  H464     1.0000 0.59492  0.77968  0.82510  Biso   1.000  H
  H465     1.0000 0.64310  0.72581  0.77172  Biso   1.000  H
  H466     1.0000 0.64310  0.77419  0.72828  Biso   1.000  H
  C437     1.0000 0.17329  0.55309  0.78690  Biso   1.000  C
  H467     1.0000 0.22341  0.41601  0.82171  Biso   1.000  H
  H468     1.0000 0.17490  0.40508  0.77968  Biso   1.000  H
  H469     1.0000 0.27172  0.35690  0.77419  Biso   1.000  H
  H470     1.0000 0.22828  0.35690  0.72581  Biso   1.000  H
  N81      1.0000 0.01761  0.70068  0.79012  Biso   1.000  N
  H471     1.0000 0.97822  0.77188  0.80410  Biso   1.000  H
  C438     1.0000 0.91688  0.71690  0.78690  Biso   1.000  C
  H472     1.0000 0.91601  0.82171  0.72341  Biso   1.000  H
  H473     1.0000 0.90508  0.77968  0.67490  Biso   1.000  H
  C439     1.0000 0.88029  0.74998  0.74998  Biso   1.000  C
  N82      1.0000 0.29012  0.98239  0.79932  Biso   1.000  N
  H474     1.0000 0.30410  0.02178  0.72812  Biso   1.000  H
  C440     1.0000 0.28690  0.08312  0.78310  Biso   1.000  C
  H475     1.0000 0.22341  0.08399  0.67829  Biso   1.000  H
  H476     1.0000 0.17490  0.09492  0.72032  Biso   1.000  H
  C441     1.0000 0.25002  0.11971  0.74998  Biso   1.000  C
  C442     1.0000 0.39939  0.82159  0.84040  Biso   1.000  C
  H477     1.0000 0.45141  0.75398  0.84580  Biso   1.000  H
  C443     1.0000 0.15960  0.60061  0.82159  Biso   1.000  C
  H478     1.0000 0.15420  0.54859  0.75398  Biso   1.000  H
  C444     1.0000 0.05309  0.71310  0.82671  Biso   1.000  C
  H479     1.0000 0.91601  0.67829  0.77659  Biso   1.000  H
  H480     1.0000 0.90508  0.72032  0.82510  Biso   1.000  H
  H481     1.0000 0.85690  0.77419  0.77172  Biso   1.000  H
  H482     1.0000 0.85690  0.72581  0.72828  Biso   1.000  H
  C445     1.0000 0.32671  0.94691  0.78690  Biso   1.000  C
  H483     1.0000 0.27659  0.08399  0.82171  Biso   1.000  H
  H484     1.0000 0.32510  0.09492  0.77968  Biso   1.000  H
  H485     1.0000 0.27172  0.14310  0.72581  Biso   1.000  H
  H486     1.0000 0.22828  0.14310  0.77419  Biso   1.000  H
  C446     1.0000 0.36721  0.80851  0.88561  Biso   1.000  C
  C447     1.0000 0.38561  0.86721  0.80851  Biso   1.000  C
  C448     1.0000 0.19149  0.61439  0.86721  Biso   1.000  C
  C449     1.0000 0.11439  0.63279  0.80851  Biso   1.000  C
  C450     1.0000 0.10061  0.67841  0.84040  Biso   1.000  C
  H487     1.0000 0.04859  0.74602  0.84580  Biso   1.000  H
  C451     1.0000 0.34040  0.89939  0.82159  Biso   1.000  C
  H488     1.0000 0.34580  0.95141  0.75398  Biso   1.000  H
  H489     1.0000 0.37608  0.77791  0.90710  Biso   1.000  H
  C452     1.0000 0.32159  0.84040  0.89939  Biso   1.000  C
  H490     1.0000 0.40710  0.87608  0.77791  Biso   1.000  H
  H491     1.0000 0.22209  0.59290  0.87608  Biso   1.000  H
  C453     1.0000 0.17841  0.65960  0.89939  Biso   1.000  C
  H492     1.0000 0.09290  0.62392  0.77791  Biso   1.000  H
  C454     1.0000 0.13279  0.69149  0.88561  Biso   1.000  C
  C455     1.0000 0.30851  0.88561  0.86721  Biso   1.000  C
  C456     1.0000 0.28690  0.82671  0.94691  Biso   1.000  C
  C457     1.0000 0.21310  0.67329  0.94691  Biso   1.000  C
  H493     1.0000 0.12392  0.72209  0.90710  Biso   1.000  H
  H494     1.0000 0.27791  0.90710  0.87608  Biso   1.000  H
  N83      1.0000 0.29932  0.79012  0.98239  Biso   1.000  N
  H495     1.0000 0.25398  0.84580  0.95141  Biso   1.000  H
  N84      1.0000 0.20068  0.70988  0.98239  Biso   1.000  N
  H496     1.0000 0.24602  0.65420  0.95141  Biso   1.000  H
  C458     1.0000 0.25988  0.77951  0.02640  Biso   1.000  C
  C459     1.0000 0.24012  0.72049  0.02640  Biso   1.000  C
  H497     1.0000 0.22812  0.80410  0.02178  Biso   1.000  H
  C460     1.0000 0.28310  0.78690  0.08312  Biso   1.000  C
  H498     1.0000 0.27188  0.69590  0.02178  Biso   1.000  H
  C461     1.0000 0.21690  0.71310  0.08312  Biso   1.000  C
  H499     1.0000 0.32171  0.77659  0.08399  Biso   1.000  H
  H500     1.0000 0.27968  0.82510  0.09492  Biso   1.000  H
  C462     1.0000 0.25002  0.74998  0.11971  Biso   1.000  C
  H501     1.0000 0.17829  0.72341  0.08399  Biso   1.000  H
  H502     1.0000 0.22032  0.67490  0.09492  Biso   1.000  H
  H503     1.0000 0.27419  0.72828  0.14310  Biso   1.000  H
  H504     1.0000 0.22581  0.77172  0.14310  Biso   1.000  H
  C463     1.0000 0.27638  0.02949  0.99010  Biso   1.000  C
  C464     1.0000 0.33310  0.03692  0.96692  Biso   1.000  C
  C465     1.0000 0.27638  0.97051  0.00990  Biso   1.000  C
  H505     1.0000 0.27180  0.05408  0.02190  Biso   1.000  H
  N85      1.0000 0.23241  0.04010  0.95071  Biso   1.000  N
  C466     1.0000 0.36969  0.00000  0.00000  Biso   1.000  C
  H506     1.0000 0.33401  0.02661  0.92831  Biso   1.000  H
  H507     1.0000 0.34490  0.07512  0.97030  Biso   1.000  H
  C467     1.0000 0.33310  0.96308  0.03308  Biso   1.000  C
  H508     1.0000 0.27180  0.94592  0.97810  Biso   1.000  H
  N86      1.0000 0.23241  0.95990  0.04929  Biso   1.000  N
  C468     1.0000 0.19689  0.07669  0.96308  Biso   1.000  C
  H509     1.0000 0.39312  0.02170  0.02421  Biso   1.000  H
  H510     1.0000 0.39312  0.97830  0.97579  Biso   1.000  H
  H511     1.0000 0.33401  0.97339  0.07169  Biso   1.000  H
  H512     1.0000 0.34490  0.92488  0.02970  Biso   1.000  H
  C469     1.0000 0.19689  0.92331  0.03692  Biso   1.000  C
  C470     1.0000 0.14941  0.09038  0.92839  Biso   1.000  C
  H513     1.0000 0.20139  0.09578  0.99600  Biso   1.000  H
  C471     1.0000 0.14941  0.90962  0.07161  Biso   1.000  C
  H514     1.0000 0.20139  0.90422  0.00400  Biso   1.000  H
  C472     1.0000 0.11719  0.13559  0.94151  Biso   1.000  C
  C473     1.0000 0.13559  0.05849  0.88281  Biso   1.000  C
  C474     1.0000 0.11719  0.86441  0.05849  Biso   1.000  C
  C475     1.0000 0.13559  0.94151  0.11719  Biso   1.000  C
  H515     1.0000 0.12610  0.15708  0.97211  Biso   1.000  H
  C476     1.0000 0.07161  0.14941  0.90962  Biso   1.000  C
  H516     1.0000 0.15708  0.02789  0.87390  Biso   1.000  H
  C477     1.0000 0.09038  0.07161  0.85059  Biso   1.000  C
  H517     1.0000 0.12610  0.84292  0.02789  Biso   1.000  H
  C478     1.0000 0.07161  0.85059  0.09038  Biso   1.000  C
  H518     1.0000 0.15708  0.97211  0.12610  Biso   1.000  H
  C479     1.0000 0.09038  0.92839  0.14941  Biso   1.000  C
  C480     1.0000 0.05849  0.11719  0.86441  Biso   1.000  C
  C481     1.0000 0.03692  0.19689  0.92331  Biso   1.000  C
  C482     1.0000 0.07669  0.03692  0.80311  Biso   1.000  C
  C483     1.0000 0.05849  0.88281  0.13559  Biso   1.000  C
  C484     1.0000 0.03692  0.80311  0.07669  Biso   1.000  C
  C485     1.0000 0.07669  0.96308  0.19689  Biso   1.000  C
  H519     1.0000 0.02789  0.12610  0.84292  Biso   1.000  H
  N87      1.0000 0.04929  0.23241  0.95990  Biso   1.000  N
  H520     1.0000 0.00400  0.20139  0.90422  Biso   1.000  H
  N88      1.0000 0.04010  0.04929  0.76759  Biso   1.000  N
  H521     1.0000 0.09578  0.00400  0.79861  Biso   1.000  H
  H522     1.0000 0.02789  0.87390  0.15708  Biso   1.000  H
  N89      1.0000 0.04929  0.76759  0.04010  Biso   1.000  N
  H523     1.0000 0.00400  0.79861  0.09578  Biso   1.000  H
  N90      1.0000 0.04010  0.95071  0.23241  Biso   1.000  N
  H524     1.0000 0.09578  0.99600  0.20139  Biso   1.000  H
  C486     1.0000 0.00990  0.27638  0.97051  Biso   1.000  C
  C487     1.0000 0.02949  0.00990  0.72362  Biso   1.000  C
  C488     1.0000 0.00990  0.72362  0.02949  Biso   1.000  C
  C489     1.0000 0.02949  0.99010  0.27638  Biso   1.000  C
  H525     1.0000 0.97810  0.27180  0.94592  Biso   1.000  H
  C490     1.0000 0.99010  0.27638  0.02949  Biso   1.000  C
  C491     1.0000 0.03308  0.33310  0.96308  Biso   1.000  C
  C492     1.0000 0.97051  0.99010  0.72362  Biso   1.000  C
  H526     1.0000 0.05408  0.97810  0.72820  Biso   1.000  H
  C493     1.0000 0.03692  0.03308  0.66690  Biso   1.000  C
  C494     1.0000 0.99010  0.72362  0.97051  Biso   1.000  C
  H527     1.0000 0.97810  0.72820  0.05408  Biso   1.000  H
  C495     1.0000 0.03308  0.66690  0.03692  Biso   1.000  C
  H528     1.0000 0.05408  0.02190  0.27180  Biso   1.000  H
  C496     1.0000 0.97051  0.00990  0.27638  Biso   1.000  C
  C497     1.0000 0.03692  0.96692  0.33310  Biso   1.000  C
  H529     1.0000 0.02190  0.27180  0.05408  Biso   1.000  H
  N91      1.0000 0.95071  0.23241  0.04010  Biso   1.000  N
  C498     1.0000 0.96692  0.33310  0.03692  Biso   1.000  C
  C499     1.0000 0.00000  0.36969  0.00000  Biso   1.000  C
  H530     1.0000 0.07169  0.33401  0.97339  Biso   1.000  H
  H531     1.0000 0.02970  0.34490  0.92488  Biso   1.000  H
  N92      1.0000 0.95990  0.95071  0.76759  Biso   1.000  N
  C500     1.0000 0.96308  0.96692  0.66690  Biso   1.000  C
  H532     1.0000 0.94592  0.02190  0.72820  Biso   1.000  H
  H533     1.0000 0.02661  0.07169  0.66599  Biso   1.000  H
  H534     1.0000 0.07512  0.02970  0.65510  Biso   1.000  H
  C501     1.0000 0.00000  0.00000  0.63031  Biso   1.000  C
  N93      1.0000 0.95071  0.76759  0.95990  Biso   1.000  N
  C502     1.0000 0.96692  0.66690  0.96308  Biso   1.000  C
  H535     1.0000 0.02190  0.72820  0.94592  Biso   1.000  H
  H536     1.0000 0.07169  0.66599  0.02661  Biso   1.000  H
  H537     1.0000 0.02970  0.65510  0.07512  Biso   1.000  H
  C503     1.0000 0.00000  0.63031  0.00000  Biso   1.000  C
  H538     1.0000 0.94592  0.97810  0.27180  Biso   1.000  H
  N94      1.0000 0.95990  0.04929  0.23241  Biso   1.000  N
  C504     1.0000 0.96308  0.03308  0.33310  Biso   1.000  C
  C505     1.0000 0.00000  0.00000  0.36969  Biso   1.000  C
  H539     1.0000 0.02661  0.92831  0.33401  Biso   1.000  H
  H540     1.0000 0.07512  0.97030  0.34490  Biso   1.000  H
  C506     1.0000 0.96308  0.19689  0.07669  Biso   1.000  C
  H541     1.0000 0.92831  0.33401  0.02661  Biso   1.000  H
  H542     1.0000 0.97030  0.34490  0.07512  Biso   1.000  H
  H543     1.0000 0.02421  0.39312  0.02170  Biso   1.000  H
  H544     1.0000 0.97579  0.39312  0.97830  Biso   1.000  H
  C507     1.0000 0.92331  0.96308  0.80311  Biso   1.000  C
  H545     1.0000 0.97339  0.92831  0.66599  Biso   1.000  H
  H546     1.0000 0.92488  0.97030  0.65510  Biso   1.000  H
  H547     1.0000 0.97830  0.02421  0.60688  Biso   1.000  H
  H548     1.0000 0.02170  0.97579  0.60688  Biso   1.000  H
  C508     1.0000 0.96308  0.80311  0.92331  Biso   1.000  C
  H549     1.0000 0.92831  0.66599  0.97339  Biso   1.000  H
  H550     1.0000 0.97030  0.65510  0.92488  Biso   1.000  H
  H551     1.0000 0.97579  0.60688  0.02170  Biso   1.000  H
  H552     1.0000 0.02421  0.60688  0.97830  Biso   1.000  H
  C509     1.0000 0.92331  0.03692  0.19689  Biso   1.000  C
  H553     1.0000 0.97339  0.07169  0.33401  Biso   1.000  H
  H554     1.0000 0.92488  0.02970  0.34490  Biso   1.000  H
  H555     1.0000 0.02170  0.02421  0.39312  Biso   1.000  H
  H556     1.0000 0.97830  0.97579  0.39312  Biso   1.000  H
  C510     1.0000 0.92839  0.14941  0.09038  Biso   1.000  C
  H557     1.0000 0.99600  0.20139  0.09578  Biso   1.000  H
  C511     1.0000 0.90962  0.92839  0.85059  Biso   1.000  C
  H558     1.0000 0.90422  0.99600  0.79861  Biso   1.000  H
  C512     1.0000 0.92839  0.85059  0.90962  Biso   1.000  C
  H559     1.0000 0.99600  0.79861  0.90422  Biso   1.000  H
  C513     1.0000 0.90962  0.07161  0.14941  Biso   1.000  C
  H560     1.0000 0.90422  0.00400  0.20139  Biso   1.000  H
  C514     1.0000 0.94151  0.11719  0.13559  Biso   1.000  C
  C515     1.0000 0.88281  0.13559  0.05849  Biso   1.000  C
  C516     1.0000 0.94151  0.88281  0.86441  Biso   1.000  C
  C517     1.0000 0.86441  0.94151  0.88281  Biso   1.000  C
  C518     1.0000 0.88281  0.86441  0.94151  Biso   1.000  C
  C519     1.0000 0.86441  0.05849  0.11719  Biso   1.000  C
  H561     1.0000 0.97211  0.12610  0.15708  Biso   1.000  H
  C520     1.0000 0.85059  0.09038  0.07161  Biso   1.000  C
  H562     1.0000 0.87390  0.15708  0.02789  Biso   1.000  H
  H563     1.0000 0.97211  0.87390  0.84292  Biso   1.000  H
  C521     1.0000 0.85059  0.90962  0.92839  Biso   1.000  C
  H564     1.0000 0.84292  0.97211  0.87390  Biso   1.000  H
  H565     1.0000 0.87390  0.84292  0.97211  Biso   1.000  H
  H566     1.0000 0.84292  0.02789  0.12610  Biso   1.000  H
  C522     1.0000 0.80311  0.07669  0.03692  Biso   1.000  C
  C523     1.0000 0.80311  0.92331  0.96308  Biso   1.000  C
  N95      1.0000 0.76759  0.04010  0.04929  Biso   1.000  N
  H567     1.0000 0.79861  0.09578  0.00400  Biso   1.000  H
  N96      1.0000 0.76759  0.95990  0.95071  Biso   1.000  N
  H568     1.0000 0.79861  0.90422  0.99600  Biso   1.000  H
  C524     1.0000 0.72362  0.02949  0.00990  Biso   1.000  C
  C525     1.0000 0.72362  0.97051  0.99010  Biso   1.000  C
  H569     1.0000 0.72820  0.05408  0.97810  Biso   1.000  H
  C526     1.0000 0.66690  0.03692  0.03308  Biso   1.000  C
  C527     1.0000 0.66690  0.96308  0.96692  Biso   1.000  C
  H570     1.0000 0.72820  0.94592  0.02190  Biso   1.000  H
  C528     1.0000 0.63031  0.00000  0.00000  Biso   1.000  C
  H571     1.0000 0.66599  0.02661  0.07169  Biso   1.000  H
  H572     1.0000 0.65510  0.07512  0.02970  Biso   1.000  H
  H573     1.0000 0.66599  0.97339  0.92831  Biso   1.000  H
  H574     1.0000 0.65510  0.92488  0.97030  Biso   1.000  H
  H575     1.0000 0.60688  0.97830  0.02421  Biso   1.000  H
  H576     1.0000 0.60688  0.02170  0.97579  Biso   1.000  H
  Ne1      1.0000 0.25000  0.25000  0.25000  Biso   1.000  Ne
  He1      1.0000 0.18189  0.31811  0.31811  Biso   1.000  He
  He2      1.0000 0.31668  0.18332  0.31668  Biso   1.000  He
  He3      1.0000 0.32057  0.32057  0.17943  Biso   1.000  He
  He4      1.0000 0.18177  0.18177  0.18176  Biso   1.000  He
  Ar1      1.0000 0.25000  0.25000  0.25000  Biso   1.000  Ar
  Ne2      1.0000 0.50000  0.00000  0.50000  Biso   1.000  Ne
  He5      1.0000 0.43101  0.93101  0.56899  Biso   1.000  He
  He6      1.0000 0.56910  0.06910  0.56910  Biso   1.000  He
  He7      1.0000 0.56599  0.93401  0.43401  Biso   1.000  He
  He8      1.0000 0.43284  0.06716  0.43284  Biso   1.000  He
  Ar2      1.0000 0.50000  0.00000  0.50000  Biso   1.000  Ar
  Ne3      1.0000 0.50000  0.50000  0.00000  Biso   1.000  Ne
  He9      1.0000 0.43101  0.43101  0.06899  Biso   1.000  He
  He10     1.0000 0.56910  0.56910  0.06910  Biso   1.000  He
  He11     1.0000 0.56599  0.43401  0.93401  Biso   1.000  He
  He12     1.0000 0.43284  0.56716  0.93284  Biso   1.000  He
  Ar3      1.0000 0.50000  0.50000  0.00000  Biso   1.000  Ar
  Ne4      1.0000 0.00000  0.50000  0.50000  Biso   1.000  Ne
  He13     1.0000 0.93101  0.43101  0.56899  Biso   1.000  He
  He14     1.0000 0.06910  0.56910  0.56910  Biso   1.000  He
  He15     1.0000 0.06599  0.43401  0.43401  Biso   1.000  He
  He16     1.0000 0.93284  0.56716  0.43284  Biso   1.000  He
  Ar4      1.0000 0.00000  0.50000  0.50000  Biso   1.000  Ar
  Ne5      1.0000 0.00000  0.00000  0.00000  Biso   1.000  Ne
  He17     1.0000 0.93101  0.93101  0.06899  Biso   1.000  He
  He18     1.0000 0.06910  0.06910  0.06910  Biso   1.000  He
  He19     1.0000 0.06599  0.93401  0.93401  Biso   1.000  He
  He20     1.0000 0.93284  0.06716  0.93284  Biso   1.000  He
  Ar5      1.0000 0.00000  0.00000  0.00000  Biso   1.000  Ar
  Ne6      1.0000 0.75000  0.75000  0.25000  Biso   1.000  Ne
  He21     1.0000 0.68189  0.81811  0.31811  Biso   1.000  He
  He22     1.0000 0.81668  0.68332  0.31668  Biso   1.000  He
  He23     1.0000 0.82057  0.82057  0.17943  Biso   1.000  He
  He24     1.0000 0.68177  0.68177  0.18176  Biso   1.000  He
  Ar6      1.0000 0.75000  0.75000  0.25000  Biso   1.000  Ar
  Ne7      1.0000 0.75000  0.25000  0.75000  Biso   1.000  Ne
  He25     1.0000 0.68189  0.31811  0.81811  Biso   1.000  He
  He26     1.0000 0.81668  0.18332  0.81668  Biso   1.000  He
  He27     1.0000 0.82057  0.32057  0.67943  Biso   1.000  He
  He28     1.0000 0.68177  0.18177  0.68176  Biso   1.000  He
  Ar7      1.0000 0.75000  0.25000  0.75000  Biso   1.000  Ar
  Ne8      1.0000 0.25000  0.75000  0.75000  Biso   1.000  Ne
  He29     1.0000 0.18189  0.81811  0.81811  Biso   1.000  He
  He30     1.0000 0.31668  0.68332  0.81668  Biso   1.000  He
  He31     1.0000 0.32057  0.82057  0.67943  Biso   1.000  He
  He32     1.0000 0.18177  0.68177  0.68176  Biso   1.000  He
  Ar8      1.0000 0.25000  0.75000  0.75000  Biso   1.000  Ar
