data_image0
_cell_length_a       26
_cell_length_b       12.092
_cell_length_c       26.205
_cell_angle_alpha    90
_cell_angle_beta     90
_cell_angle_gamma    90

_symmetry_space_group_name_H-M    "P 1"
_symmetry_int_tables_number       1

loop_
  _symmetry_equiv_pos_as_xyz
  'x, y, z'

loop_
  _atom_site_label
  _atom_site_occupancy
  _atom_site_fract_x
  _atom_site_fract_y
  _atom_site_fract_z
  _atom_site_thermal_displace_type
  _atom_site_B_iso_or_equiv
  _atom_site_type_symbol
  C1       1.0000 0.74708  0.51861  0.50571  Biso   1.000  C
  C2       1.0000 0.75331  0.37612  0.50292  Biso   1.000  C
  H1       1.0000 0.74758  0.54846  0.47182  Biso   1.000  H
  H2       1.0000 0.77519  0.54912  0.52501  Biso   1.000  H
  H3       1.0000 0.71519  0.53730  0.52200  Biso   1.000  H
  C3       1.0000 0.79331  0.34543  0.47312  Biso   1.000  C
  H4       1.0000 0.75838  0.34734  0.53711  Biso   1.000  H
  H5       1.0000 0.72188  0.34436  0.48949  Biso   1.000  H
  C4       1.0000 0.83581  0.35577  0.50712  Biso   1.000  C
  H6       1.0000 0.79700  0.39406  0.44388  Biso   1.000  H
  H7       1.0000 0.78938  0.26977  0.46129  Biso   1.000  H
  C5       1.0000 0.84388  0.29036  0.55352  Biso   1.000  C
  H8       1.0000 0.83619  0.43252  0.51792  Biso   1.000  H
  H9       1.0000 0.86631  0.34519  0.48651  Biso   1.000  H
  C6       1.0000 0.89819  0.30657  0.57741  Biso   1.000  C
  H10      1.0000 0.83919  0.21270  0.54551  Biso   1.000  H
  H11      1.0000 0.81808  0.31078  0.57859  Biso   1.000  H
  C7       1.0000 0.90350  0.28308  0.63400  Biso   1.000  C
  H12      1.0000 0.92208  0.25918  0.55921  Biso   1.000  H
  H13      1.0000 0.90869  0.38240  0.57142  Biso   1.000  H
  C8       1.0000 0.90181  0.15713  0.64900  Biso   1.000  C
  C9       1.0000 0.95250  0.32584  0.65621  Biso   1.000  C
  H14      1.0000 0.87500  0.32013  0.65159  Biso   1.000  H
  C10      1.0000 0.90631  0.12554  0.69922  Biso   1.000  C
  C11      1.0000 0.89819  0.07344  0.61110  Biso   1.000  C
  C12      1.0000 0.95488  0.39671  0.69792  Biso   1.000  C
  C13      1.0000 0.00000  0.29623  0.63709  Biso   1.000  C
  O1       1.0000 0.91927  0.19740  0.73719  Biso   1.000  O
  C14      1.0000 0.90458  0.01042  0.71189  Biso   1.000  C
  H15      1.0000 0.89469  0.09519  0.57729  Biso   1.000  H
  C15      1.0000 0.89958  0.96262  0.62148  Biso   1.000  C
  O2       1.0000 0.90862  0.43806  0.72002  Biso   1.000  O
  C16      1.0000 0.00000  0.43558  0.71979  Biso   1.000  C
  C17      1.0000 0.04750  0.32584  0.65621  Biso   1.000  C
  H16      1.0000 0.00000  0.25141  0.60832  Biso   1.000  H
  C18      1.0000 0.88058  0.26282  0.75799  Biso   1.000  C
  C19      1.0000 0.90238  0.93227  0.67560  Biso   1.000  C
  H17      1.0000 0.90519  0.98933  0.74612  Biso   1.000  H
  C20      1.0000 0.90381  0.86867  0.58161  Biso   1.000  C
  C21      1.0000 0.87900  0.37413  0.74990  Biso   1.000  C
  C22      1.0000 0.04512  0.39671  0.69792  Biso   1.000  C
  H18      1.0000 0.00000  0.48429  0.74730  Biso   1.000  H
  C23      1.0000 0.09650  0.28308  0.63400  Biso   1.000  C
  C24      1.0000 0.84808  0.21477  0.79889  Biso   1.000  C
  O3       1.0000 0.90608  0.82261  0.69029  Biso   1.000  O
  C25      1.0000 0.95258  0.80872  0.59191  Biso   1.000  C
  C26      1.0000 0.90050  0.91457  0.52681  Biso   1.000  C
  H19      1.0000 0.87508  0.81740  0.58691  Biso   1.000  H
  C27      1.0000 0.83719  0.44534  0.77500  Biso   1.000  C
  O4       1.0000 0.09135  0.43806  0.72002  Biso   1.000  O
  C28      1.0000 0.09819  0.15713  0.64900  Biso   1.000  C
  C29      1.0000 0.10181  0.30657  0.57741  Biso   1.000  C
  H20      1.0000 0.12500  0.32013  0.65159  Biso   1.000  H
  O5       1.0000 0.85950  0.11619  0.81191  Biso   1.000  O
  C30      1.0000 0.80708  0.27911  0.82412  Biso   1.000  C
  C31      1.0000 0.86400  0.75728  0.67960  Biso   1.000  C
  C32      1.0000 0.95388  0.69988  0.61172  Biso   1.000  C
  C33      1.0000 0.00000  0.86239  0.58229  Biso   1.000  C
  C34      1.0000 0.90131  0.81980  0.48720  Biso   1.000  C
  H21      1.0000 0.86908  0.95691  0.52292  Biso   1.000  H
  H22      1.0000 0.92931  0.96378  0.52059  Biso   1.000  H
  O6       1.0000 0.83508  0.54408  0.76661  Biso   1.000  O
  C35      1.0000 0.80258  0.39282  0.81049  Biso   1.000  C
  C36      1.0000 0.12100  0.37413  0.74990  Biso   1.000  C
  C37      1.0000 0.09369  0.12554  0.69922  Biso   1.000  C
  C38      1.0000 0.10181  0.07344  0.61110  Biso   1.000  C
  C39      1.0000 0.15612  0.29036  0.55352  Biso   1.000  C
  H23      1.0000 0.07788  0.25918  0.55921  Biso   1.000  H
  H24      1.0000 0.09131  0.38240  0.57142  Biso   1.000  H
  C40      1.0000 0.77508  0.22717  0.85812  Biso   1.000  C
  C41      1.0000 0.81650  0.77572  0.70872  Biso   1.000  C
  C42      1.0000 0.86988  0.67061  0.65010  Biso   1.000  C
  O7       1.0000 0.90919  0.63612  0.61992  Biso   1.000  O
  C43      1.0000 0.00000  0.64208  0.62160  Biso   1.000  C
  C44      1.0000 0.04738  0.80872  0.59191  Biso   1.000  C
  H25      1.0000 0.00000  0.93417  0.56951  Biso   1.000  H
  C45      1.0000 0.87650  0.73578  0.48712  Biso   1.000  C
  H26      1.0000 0.89400  0.85478  0.45468  Biso   1.000  H
  H27      1.0000 0.93688  0.79606  0.48552  Biso   1.000  H
  C46      1.0000 0.76258  0.45129  0.83301  Biso   1.000  C
  C47      1.0000 0.16281  0.44534  0.77500  Biso   1.000  C
  C48      1.0000 0.11938  0.26282  0.75799  Biso   1.000  C
  O8       1.0000 0.08069  0.19740  0.73719  Biso   1.000  O
  C49      1.0000 0.09538  0.01042  0.71189  Biso   1.000  C
  C50      1.0000 0.10038  0.96262  0.62148  Biso   1.000  C
  H28      1.0000 0.10531  0.09519  0.57729  Biso   1.000  H
  C51      1.0000 0.16419  0.35577  0.50712  Biso   1.000  C
  H29      1.0000 0.16081  0.21270  0.54551  Biso   1.000  H
  H30      1.0000 0.18188  0.31078  0.57859  Biso   1.000  H
  C52      1.0000 0.73658  0.28986  0.88121  Biso   1.000  C
  H31      1.0000 0.77900  0.15241  0.86560  Biso   1.000  H
  O9       1.0000 0.81438  0.84866  0.74001  Biso   1.000  O
  C53      1.0000 0.77150  0.70667  0.70021  Biso   1.000  C
  C54      1.0000 0.82569  0.58609  0.64121  Biso   1.000  C
  C55      1.0000 0.04612  0.69988  0.61172  Biso   1.000  C
  H32      1.0000 0.00000  0.57013  0.63412  Biso   1.000  H
  C56      1.0000 0.09619  0.86867  0.58161  Biso   1.000  C
  C57      1.0000 0.87258  0.65581  0.44270  Biso   1.000  C
  H33      1.0000 0.84150  0.75736  0.49521  Biso   1.000  H
  H34      1.0000 0.88869  0.69277  0.51589  Biso   1.000  H
  C58      1.0000 0.72981  0.39886  0.86861  Biso   1.000  C
  H35      1.0000 0.75738  0.52522  0.82469  Biso   1.000  H
  O10      1.0000 0.16488  0.54408  0.76661  Biso   1.000  O
  C59      1.0000 0.19738  0.39282  0.81049  Biso   1.000  C
  C60      1.0000 0.15188  0.21477  0.79889  Biso   1.000  C
  C61      1.0000 0.09762  0.93227  0.67560  Biso   1.000  C
  H36      1.0000 0.09481  0.98933  0.74612  Biso   1.000  H
  C62      1.0000 0.20669  0.34543  0.47312  Biso   1.000  C
  H37      1.0000 0.16381  0.43252  0.51792  Biso   1.000  H
  H38      1.0000 0.13369  0.34519  0.48651  Biso   1.000  H
  H39      1.0000 0.71519  0.25736  0.90540  Biso   1.000  H
  C63      1.0000 0.72288  0.72610  0.72250  Biso   1.000  C
  C64      1.0000 0.77458  0.61272  0.66629  Biso   1.000  C
  O11      1.0000 0.83019  0.50240  0.61519  Biso   1.000  O
  O12      1.0000 0.09081  0.63612  0.61992  Biso   1.000  O
  C65      1.0000 0.09950  0.91457  0.52681  Biso   1.000  C
  H40      1.0000 0.12488  0.81740  0.58691  Biso   1.000  H
  C66      1.0000 0.91831  0.58278  0.44190  Biso   1.000  C
  H41      1.0000 0.84169  0.61148  0.44610  Biso   1.000  H
  H42      1.0000 0.87050  0.69666  0.41091  Biso   1.000  H
  H43      1.0000 0.70331  0.43889  0.88369  Biso   1.000  H
  C67      1.0000 0.23738  0.45129  0.83301  Biso   1.000  C
  C68      1.0000 0.19288  0.27911  0.82412  Biso   1.000  C
  O13      1.0000 0.14050  0.11619  0.81191  Biso   1.000  O
  O14      1.0000 0.09388  0.82261  0.69029  Biso   1.000  O
  C69      1.0000 0.24669  0.37612  0.50292  Biso   1.000  C
  H44      1.0000 0.20300  0.39406  0.44388  Biso   1.000  H
  H45      1.0000 0.21062  0.26977  0.46129  Biso   1.000  H
  C70      1.0000 0.68119  0.65936  0.71299  Biso   1.000  C
  H46      1.0000 0.71900  0.78606  0.74440  Biso   1.000  H
  C71      1.0000 0.73258  0.55061  0.65522  Biso   1.000  C
  C72      1.0000 0.13012  0.67061  0.65010  Biso   1.000  C
  C73      1.0000 0.09869  0.81980  0.48720  Biso   1.000  C
  H47      1.0000 0.13088  0.95691  0.52292  Biso   1.000  H
  H48      1.0000 0.07069  0.96378  0.52059  Biso   1.000  H
  C74      1.0000 0.91800  0.49942  0.39741  Biso   1.000  C
  H49      1.0000 0.92000  0.54242  0.47380  Biso   1.000  H
  H50      1.0000 0.94900  0.62818  0.43942  Biso   1.000  H
  C75      1.0000 0.27019  0.39886  0.86861  Biso   1.000  C
  H51      1.0000 0.24262  0.52522  0.82469  Biso   1.000  H
  C76      1.0000 0.22488  0.22717  0.85812  Biso   1.000  C
  C77      1.0000 0.13600  0.75728  0.67960  Biso   1.000  C
  C78      1.0000 0.25288  0.51861  0.50571  Biso   1.000  C
  H52      1.0000 0.24162  0.34734  0.53711  Biso   1.000  H
  H53      1.0000 0.27812  0.34436  0.48949  Biso   1.000  H
  C79      1.0000 0.68750  0.56938  0.67991  Biso   1.000  C
  H54      1.0000 0.64950  0.67367  0.72822  Biso   1.000  H
  H55      1.0000 0.73469  0.49520  0.63072  Biso   1.000  H
  C80      1.0000 0.17431  0.58609  0.64121  Biso   1.000  C
  C81      1.0000 0.12350  0.73578  0.48712  Biso   1.000  C
  H56      1.0000 0.10600  0.85478  0.45468  Biso   1.000  H
  H57      1.0000 0.06312  0.79606  0.48552  Biso   1.000  H
  H58      1.0000 0.91558  0.53862  0.36562  Biso   1.000  H
  H59      1.0000 0.88900  0.45079  0.40080  Biso   1.000  H
  H60      1.0000 0.94919  0.45691  0.39790  Biso   1.000  H
  C82      1.0000 0.26338  0.28986  0.88121  Biso   1.000  C
  H61      1.0000 0.29669  0.43889  0.88369  Biso   1.000  H
  H62      1.0000 0.22100  0.15241  0.86560  Biso   1.000  H
  C83      1.0000 0.18350  0.77572  0.70872  Biso   1.000  C
  H63      1.0000 0.25238  0.54846  0.47182  Biso   1.000  H
  H64      1.0000 0.22481  0.54912  0.52501  Biso   1.000  H
  H65      1.0000 0.28481  0.53730  0.52200  Biso   1.000  H
  H66      1.0000 0.66008  0.52117  0.67472  Biso   1.000  H
  O15      1.0000 0.16981  0.50240  0.61519  Biso   1.000  O
  C84      1.0000 0.22538  0.61272  0.66629  Biso   1.000  C
  C85      1.0000 0.12738  0.65581  0.44270  Biso   1.000  C
  H67      1.0000 0.15850  0.75736  0.49521  Biso   1.000  H
  H68      1.0000 0.11131  0.69277  0.51589  Biso   1.000  H
  H69      1.0000 0.28481  0.25736  0.90540  Biso   1.000  H
  O16      1.0000 0.18562  0.84866  0.74001  Biso   1.000  O
  C86      1.0000 0.22850  0.70667  0.70021  Biso   1.000  C
  C87      1.0000 0.26738  0.55061  0.65522  Biso   1.000  C
  C88      1.0000 0.08169  0.58278  0.44190  Biso   1.000  C
  H70      1.0000 0.15831  0.61148  0.44610  Biso   1.000  H
  H71      1.0000 0.12950  0.69666  0.41091  Biso   1.000  H
  C89      1.0000 0.27712  0.72610  0.72250  Biso   1.000  C
  C90      1.0000 0.31250  0.56938  0.67991  Biso   1.000  C
  H72      1.0000 0.26531  0.49520  0.63072  Biso   1.000  H
  C91      1.0000 0.08200  0.49942  0.39741  Biso   1.000  C
  H73      1.0000 0.08000  0.54242  0.47380  Biso   1.000  H
  H74      1.0000 0.05100  0.62818  0.43942  Biso   1.000  H
  C92      1.0000 0.31881  0.65936  0.71299  Biso   1.000  C
  H75      1.0000 0.28100  0.78606  0.74440  Biso   1.000  H
  H76      1.0000 0.33988  0.52117  0.67472  Biso   1.000  H
  H77      1.0000 0.08438  0.53862  0.36562  Biso   1.000  H
  H78      1.0000 0.11100  0.45079  0.40080  Biso   1.000  H
  H79      1.0000 0.05081  0.45691  0.39790  Biso   1.000  H
  H80      1.0000 0.35050  0.67367  0.72822  Biso   1.000  H
  C93      1.0000 0.59931  0.40523  0.54959  Biso   1.000  C
  C94      1.0000 0.59781  0.36809  0.49502  Biso   1.000  C
  C95      1.0000 0.59031  0.32509  0.59038  Biso   1.000  C
  H81      1.0000 0.57408  0.46370  0.55352  Biso   1.000  H
  H82      1.0000 0.63281  0.43806  0.55562  Biso   1.000  H
  C96      1.0000 0.54708  0.29879  0.48422  Biso   1.000  C
  C97      1.0000 0.60181  0.45592  0.45381  Biso   1.000  C
  H83      1.0000 0.62688  0.31773  0.49010  Biso   1.000  H
  C98      1.0000 0.63338  0.23561  0.59099  Biso   1.000  C
  H84      1.0000 0.58950  0.36297  0.62301  Biso   1.000  H
  H85      1.0000 0.55708  0.28978  0.58531  Biso   1.000  H
  C99      1.0000 0.50000  0.35122  0.49269  Biso   1.000  C
  C100     1.0000 0.54581  0.19567  0.46472  Biso   1.000  C
  C101     1.0000 0.60231  0.56881  0.46529  Biso   1.000  C
  C102     1.0000 0.59908  0.42896  0.40340  Biso   1.000  C
  C103     1.0000 0.62188  0.14952  0.63629  Biso   1.000  C
  H86      1.0000 0.63419  0.19707  0.55852  Biso   1.000  H
  H87      1.0000 0.66658  0.27043  0.59630  Biso   1.000  H
  C104     1.0000 0.45288  0.29879  0.48422  Biso   1.000  C
  H88      1.0000 0.50000  0.42383  0.50441  Biso   1.000  H
  C105     1.0000 0.50000  0.14390  0.45591  Biso   1.000  C
  O17      1.0000 0.58988  0.12851  0.45861  Biso   1.000  O
  C106     1.0000 0.59919  0.65184  0.43041  Biso   1.000  C
  H89      1.0000 0.60500  0.58874  0.49948  Biso   1.000  H
  O18      1.0000 0.59558  0.31542  0.38790  Biso   1.000  O
  C107     1.0000 0.59238  0.50910  0.36409  Biso   1.000  C
  C108     1.0000 0.58008  0.07377  0.63331  Biso   1.000  C
  H90      1.0000 0.61708  0.19252  0.66709  Biso   1.000  H
  H91      1.0000 0.65281  0.10602  0.64110  Biso   1.000  H
  C109     1.0000 0.45419  0.19567  0.46472  Biso   1.000  C
  C110     1.0000 0.40219  0.36809  0.49502  Biso   1.000  C
  H92      1.0000 0.50000  0.07178  0.44362  Biso   1.000  H
  C111     1.0000 0.63338  0.15779  0.43122  Biso   1.000  C
  C112     1.0000 0.59731  0.76819  0.44171  Biso   1.000  C
  C113     1.0000 0.59281  0.61189  0.37840  Biso   1.000  C
  C114     1.0000 0.63650  0.24471  0.39882  Biso   1.000  C
  H93      1.0000 0.58808  0.48892  0.33009  Biso   1.000  H
  H94      1.0000 0.54800  0.11470  0.63141  Biso   1.000  H
  H95      1.0000 0.58331  0.03002  0.60252  Biso   1.000  H
  C115     1.0000 0.57858  0.99727  0.67922  Biso   1.000  C
  O19      1.0000 0.41012  0.12851  0.45861  Biso   1.000  O
  C116     1.0000 0.39819  0.45592  0.45381  Biso   1.000  C
  C117     1.0000 0.40069  0.40523  0.54959  Biso   1.000  C
  H96      1.0000 0.37312  0.31773  0.49010  Biso   1.000  H
  C118     1.0000 0.67550  0.08278  0.43599  Biso   1.000  C
  C119     1.0000 0.54600  0.82162  0.42271  Biso   1.000  C
  C120     1.0000 0.60369  0.80218  0.50082  Biso   1.000  C
  H97      1.0000 0.62550  0.80342  0.42290  Biso   1.000  H
  O20      1.0000 0.58008  0.69666  0.34001  Biso   1.000  O
  C121     1.0000 0.68419  0.26761  0.36859  Biso   1.000  C
  H98      1.0000 0.57088  0.03953  0.70929  Biso   1.000  H
  H99      1.0000 0.55250  0.94219  0.67418  Biso   1.000  H
  H100     1.0000 0.61138  0.96196  0.68311  Biso   1.000  H
  C122     1.0000 0.36662  0.15779  0.43122  Biso   1.000  C
  C123     1.0000 0.40088  0.42896  0.40340  Biso   1.000  C
  C124     1.0000 0.39769  0.56881  0.46529  Biso   1.000  C
  C125     1.0000 0.40969  0.32509  0.59038  Biso   1.000  C
  H101     1.0000 0.42588  0.46370  0.55352  Biso   1.000  H
  H102     1.0000 0.36719  0.43806  0.55562  Biso   1.000  H
  C126     1.0000 0.72469  0.10916  0.41172  Biso   1.000  C
  O21      1.0000 0.66908  0.99992  0.46121  Biso   1.000  O
  C127     1.0000 0.50000  0.78713  0.44331  Biso   1.000  C
  C128     1.0000 0.54600  0.88869  0.38019  Biso   1.000  C
  C129     1.0000 0.65588  0.78498  0.52169  Biso   1.000  C
  H103     1.0000 0.57950  0.75951  0.52089  Biso   1.000  H
  H104     1.0000 0.59469  0.87959  0.50460  Biso   1.000  H
  C130     1.0000 0.61681  0.76166  0.31891  Biso   1.000  C
  O22      1.0000 0.68408  0.34601  0.33791  Biso   1.000  O
  C131     1.0000 0.72938  0.19641  0.37970  Biso   1.000  C
  C132     1.0000 0.36350  0.24471  0.39882  Biso   1.000  C
  C133     1.0000 0.32450  0.08278  0.43599  Biso   1.000  C
  O23      1.0000 0.40438  0.31542  0.38790  Biso   1.000  O
  C134     1.0000 0.40762  0.50910  0.36409  Biso   1.000  C
  C135     1.0000 0.40081  0.65184  0.43041  Biso   1.000  C
  H105     1.0000 0.39500  0.58874  0.49948  Biso   1.000  H
  C136     1.0000 0.36662  0.23561  0.59099  Biso   1.000  C
  H106     1.0000 0.41050  0.36297  0.62301  Biso   1.000  H
  H107     1.0000 0.44288  0.28978  0.58531  Biso   1.000  H
  C137     1.0000 0.76831  0.03779  0.42171  Biso   1.000  C
  C138     1.0000 0.45400  0.82162  0.42271  Biso   1.000  C
  H108     1.0000 0.50000  0.74008  0.47140  Biso   1.000  H
  C139     1.0000 0.50000  0.92359  0.35902  Biso   1.000  C
  O24      1.0000 0.59181  0.93028  0.35951  Biso   1.000  O
  C140     1.0000 0.66388  0.85379  0.57081  Biso   1.000  C
  H109     1.0000 0.66081  0.70716  0.52929  Biso   1.000  H
  H110     1.0000 0.68119  0.80640  0.49639  Biso   1.000  H
  C141     1.0000 0.62188  0.86776  0.32730  Biso   1.000  C
  C142     1.0000 0.64888  0.69707  0.27861  Biso   1.000  C
  C143     1.0000 0.77419  0.21700  0.35379  Biso   1.000  C
  C144     1.0000 0.31581  0.26761  0.36859  Biso   1.000  C
  C145     1.0000 0.27531  0.10916  0.41172  Biso   1.000  C
  O25      1.0000 0.33088  0.99992  0.46121  Biso   1.000  O
  C146     1.0000 0.40719  0.61189  0.37840  Biso   1.000  C
  H111     1.0000 0.41188  0.48892  0.33009  Biso   1.000  H
  C147     1.0000 0.40269  0.76819  0.44171  Biso   1.000  C
  C148     1.0000 0.37812  0.14952  0.63629  Biso   1.000  C
  H112     1.0000 0.36581  0.19707  0.55852  Biso   1.000  H
  H113     1.0000 0.33338  0.27043  0.59630  Biso   1.000  H
  C149     1.0000 0.81569  0.06583  0.39870  Biso   1.000  C
  H114     1.0000 0.76519  0.97577  0.44251  Biso   1.000  H
  C150     1.0000 0.45400  0.88869  0.38019  Biso   1.000  C
  H115     1.0000 0.50000  0.97006  0.33070  Biso   1.000  H
  C151     1.0000 0.72800  0.84659  0.58061  Biso   1.000  C
  H116     1.0000 0.65288  0.92971  0.56600  Biso   1.000  H
  H117     1.0000 0.64519  0.82211  0.59931  Biso   1.000  H
  C152     1.0000 0.66169  0.93425  0.30300  Biso   1.000  C
  C153     1.0000 0.69031  0.76720  0.25529  Biso   1.000  C
  O26      1.0000 0.64108  0.60710  0.26690  Biso   1.000  O
  C154     1.0000 0.81800  0.15117  0.36489  Biso   1.000  C
  H118     1.0000 0.77581  0.27291  0.32952  Biso   1.000  H
  C155     1.0000 0.27062  0.19641  0.37970  Biso   1.000  C
  O27      1.0000 0.31588  0.34601  0.33791  Biso   1.000  O
  C156     1.0000 0.23169  0.03779  0.42171  Biso   1.000  C
  O28      1.0000 0.41988  0.69666  0.34001  Biso   1.000  O
  C157     1.0000 0.39631  0.80218  0.50082  Biso   1.000  C
  H119     1.0000 0.37450  0.80342  0.42290  Biso   1.000  H
  C158     1.0000 0.41988  0.07377  0.63331  Biso   1.000  C
  H120     1.0000 0.38288  0.19252  0.66709  Biso   1.000  H
  H121     1.0000 0.34719  0.10602  0.64110  Biso   1.000  H
  H122     1.0000 0.84531  0.02597  0.40660  Biso   1.000  H
  O29      1.0000 0.40819  0.93028  0.35951  Biso   1.000  O
  C159     1.0000 0.75600  0.91589  0.59611  Biso   1.000  C
  H123     1.0000 0.74238  0.82451  0.54799  Biso   1.000  H
  H124     1.0000 0.73288  0.78399  0.60321  Biso   1.000  H
  C160     1.0000 0.69758  0.87488  0.26621  Biso   1.000  C
  O30      1.0000 0.66546  0.03366  0.31380  Biso   1.000  O
  C161     1.0000 0.72258  0.71692  0.21889  Biso   1.000  C
  H125     1.0000 0.84888  0.16680  0.34871  Biso   1.000  H
  C162     1.0000 0.22581  0.21700  0.35379  Biso   1.000  C
  C163     1.0000 0.18431  0.06583  0.39870  Biso   1.000  C
  H126     1.0000 0.23481  0.97577  0.44251  Biso   1.000  H
  C164     1.0000 0.38319  0.76166  0.31891  Biso   1.000  C
  C165     1.0000 0.34412  0.78498  0.52169  Biso   1.000  C
  H127     1.0000 0.42050  0.75951  0.52089  Biso   1.000  H
  H128     1.0000 0.40531  0.87959  0.50460  Biso   1.000  H
  H129     1.0000 0.45200  0.11470  0.63141  Biso   1.000  H
  H130     1.0000 0.41669  0.03002  0.60252  Biso   1.000  H
  C166     1.0000 0.42138  0.99727  0.67922  Biso   1.000  C
  C167     1.0000 0.37812  0.86776  0.32730  Biso   1.000  C
  H131     1.0000 0.74850  0.92656  0.63209  Biso   1.000  H
  H132     1.0000 0.79088  0.88778  0.59382  Biso   1.000  H
  C168     1.0000 0.75481  0.03052  0.57001  Biso   1.000  C
  C169     1.0000 0.73700  0.94021  0.24308  Biso   1.000  C
  C170     1.0000 0.76219  0.77746  0.19649  Biso   1.000  C
  H133     1.0000 0.71750  0.64340  0.20981  Biso   1.000  H
  C171     1.0000 0.18200  0.15117  0.36489  Biso   1.000  C
  H134     1.0000 0.22419  0.27291  0.32952  Biso   1.000  H
  H135     1.0000 0.15469  0.02597  0.40660  Biso   1.000  H
  C172     1.0000 0.35112  0.69707  0.27861  Biso   1.000  C
  C173     1.0000 0.33612  0.85379  0.57081  Biso   1.000  C
  H136     1.0000 0.33919  0.70716  0.52929  Biso   1.000  H
  H137     1.0000 0.31881  0.80640  0.49639  Biso   1.000  H
  H138     1.0000 0.42912  0.03953  0.70929  Biso   1.000  H
  H139     1.0000 0.44750  0.94219  0.67418  Biso   1.000  H
  H140     1.0000 0.38862  0.96196  0.68311  Biso   1.000  H
  C174     1.0000 0.33831  0.93425  0.30300  Biso   1.000  C
  H141     1.0000 0.77988  0.03258  0.54310  Biso   1.000  H
  H142     1.0000 0.72119  0.04333  0.55589  Biso   1.000  H
  H143     1.0000 0.76250  0.08692  0.59462  Biso   1.000  H
  C175     1.0000 0.76869  0.88670  0.20840  Biso   1.000  C
  H144     1.0000 0.74131  0.01464  0.25098  Biso   1.000  H
  H145     1.0000 0.78419  0.74347  0.17340  Biso   1.000  H
  H146     1.0000 0.15112  0.16680  0.34871  Biso   1.000  H
  O31      1.0000 0.35888  0.60710  0.26690  Biso   1.000  O
  C176     1.0000 0.30969  0.76720  0.25529  Biso   1.000  C
  C177     1.0000 0.27200  0.84659  0.58061  Biso   1.000  C
  H147     1.0000 0.34712  0.92971  0.56600  Biso   1.000  H
  H148     1.0000 0.35481  0.82211  0.59931  Biso   1.000  H
  C178     1.0000 0.30238  0.87488  0.26621  Biso   1.000  C
  O32      1.0000 0.33450  0.03366  0.31380  Biso   1.000  O
  H149     1.0000 0.79500  0.92623  0.19271  Biso   1.000  H
  C179     1.0000 0.27738  0.71692  0.21889  Biso   1.000  C
  C180     1.0000 0.24400  0.91589  0.59611  Biso   1.000  C
  H150     1.0000 0.25762  0.82451  0.54799  Biso   1.000  H
  H151     1.0000 0.26712  0.78399  0.60321  Biso   1.000  H
  C181     1.0000 0.26300  0.94021  0.24308  Biso   1.000  C
  C182     1.0000 0.23781  0.77746  0.19649  Biso   1.000  C
  H152     1.0000 0.28250  0.64340  0.20981  Biso   1.000  H
  H153     1.0000 0.25150  0.92656  0.63209  Biso   1.000  H
  H154     1.0000 0.20912  0.88778  0.59382  Biso   1.000  H
  C183     1.0000 0.24519  0.03052  0.57001  Biso   1.000  C
  C184     1.0000 0.23131  0.88670  0.20840  Biso   1.000  C
  H155     1.0000 0.25869  0.01464  0.25098  Biso   1.000  H
  H156     1.0000 0.21581  0.74347  0.17340  Biso   1.000  H
  H157     1.0000 0.22012  0.03258  0.54310  Biso   1.000  H
  H158     1.0000 0.27881  0.04333  0.55589  Biso   1.000  H
  H159     1.0000 0.23750  0.08692  0.59462  Biso   1.000  H
  H160     1.0000 0.20500  0.92623  0.19271  Biso   1.000  H
  C185     1.0000 0.72981  0.60106  0.36859  Biso   1.000  C
  C186     1.0000 0.76258  0.54871  0.33299  Biso   1.000  C
  C187     1.0000 0.73658  0.71006  0.38119  Biso   1.000  C
  H161     1.0000 0.70331  0.56111  0.38371  Biso   1.000  H
  C188     1.0000 0.80258  0.60718  0.31051  Biso   1.000  C
  H162     1.0000 0.75738  0.47478  0.32471  Biso   1.000  H
  C189     1.0000 0.77508  0.77283  0.35810  Biso   1.000  C
  H163     1.0000 0.71519  0.74256  0.40542  Biso   1.000  H
  C190     1.0000 0.83719  0.55466  0.27499  Biso   1.000  C
  C191     1.0000 0.80708  0.72089  0.32410  Biso   1.000  C
  H164     1.0000 0.77900  0.84759  0.36562  Biso   1.000  H
  O33      1.0000 0.83508  0.45592  0.26659  Biso   1.000  O
  C192     1.0000 0.87900  0.62587  0.24991  Biso   1.000  C
  C193     1.0000 0.84808  0.78523  0.29891  Biso   1.000  C
  O34      1.0000 0.90862  0.56186  0.22000  Biso   1.000  O
  C194     1.0000 0.88058  0.73718  0.25800  Biso   1.000  C
  O35      1.0000 0.85950  0.88381  0.31189  Biso   1.000  O
  C195     1.0000 0.95488  0.60329  0.19790  Biso   1.000  C
  O36      1.0000 0.91927  0.80260  0.23721  Biso   1.000  O
  C196     1.0000 0.95250  0.67416  0.15619  Biso   1.000  C
  C197     1.0000 0.00000  0.56442  0.21981  Biso   1.000  C
  C198     1.0000 0.90631  0.87446  0.19920  Biso   1.000  C
  C199     1.0000 0.90350  0.71692  0.13398  Biso   1.000  C
  C200     1.0000 0.00000  0.70377  0.13711  Biso   1.000  C
  C201     1.0000 0.04512  0.60329  0.19790  Biso   1.000  C
  H165     1.0000 0.00000  0.51571  0.24732  Biso   1.000  H
  C202     1.0000 0.90458  0.98958  0.21191  Biso   1.000  C
  C203     1.0000 0.90181  0.84287  0.14902  Biso   1.000  C
  C204     1.0000 0.89819  0.69343  0.07739  Biso   1.000  C
  H166     1.0000 0.87500  0.67987  0.15161  Biso   1.000  H
  C205     1.0000 0.04750  0.67416  0.15619  Biso   1.000  C
  H167     1.0000 0.00000  0.74859  0.10830  Biso   1.000  H
  O37      1.0000 0.09135  0.56186  0.22000  Biso   1.000  O
  C206     1.0000 0.90238  0.06773  0.17562  Biso   1.000  C
  H168     1.0000 0.90519  0.01067  0.24610  Biso   1.000  H
  C207     1.0000 0.89819  0.92656  0.11109  Biso   1.000  C
  C208     1.0000 0.84388  0.70956  0.05350  Biso   1.000  C
  H169     1.0000 0.92208  0.74082  0.05919  Biso   1.000  H
  H170     1.0000 0.90869  0.61760  0.07140  Biso   1.000  H
  C209     1.0000 0.09650  0.71692  0.13398  Biso   1.000  C
  C210     1.0000 0.12100  0.62587  0.24991  Biso   1.000  C
  O38      1.0000 0.90608  0.17739  0.19031  Biso   1.000  O
  C211     1.0000 0.89958  0.03738  0.12150  Biso   1.000  C
  H171     1.0000 0.89469  0.90481  0.07731  Biso   1.000  H
  C212     1.0000 0.83581  0.64423  0.00710  Biso   1.000  C
  H172     1.0000 0.83919  0.78730  0.04549  Biso   1.000  H
  H173     1.0000 0.81808  0.68922  0.07861  Biso   1.000  H
  C213     1.0000 0.09819  0.84287  0.14902  Biso   1.000  C
  C214     1.0000 0.10181  0.69343  0.07739  Biso   1.000  C
  H174     1.0000 0.12500  0.67987  0.15161  Biso   1.000  H
  C215     1.0000 0.16281  0.55466  0.27499  Biso   1.000  C
  C216     1.0000 0.11938  0.73718  0.25800  Biso   1.000  C
  C217     1.0000 0.86400  0.24272  0.17958  Biso   1.000  C
  C218     1.0000 0.90381  0.13133  0.08159  Biso   1.000  C
  H175     1.0000 0.83619  0.56748  0.01790  Biso   1.000  H
  C219     1.0000 0.79331  0.65457  0.97310  Biso   1.000  C
  H176     1.0000 0.86631  0.65481  0.98649  Biso   1.000  H
  C220     1.0000 0.09369  0.87446  0.19920  Biso   1.000  C
  C221     1.0000 0.10181  0.92656  0.11109  Biso   1.000  C
  C222     1.0000 0.15612  0.70956  0.05350  Biso   1.000  C
  H177     1.0000 0.07788  0.74082  0.05919  Biso   1.000  H
  H178     1.0000 0.09131  0.61760  0.07140  Biso   1.000  H
  O39      1.0000 0.16488  0.45592  0.26659  Biso   1.000  O
  C223     1.0000 0.19738  0.60718  0.31051  Biso   1.000  C
  O40      1.0000 0.08069  0.80260  0.23721  Biso   1.000  O
  C224     1.0000 0.15188  0.78523  0.29891  Biso   1.000  C
  C225     1.0000 0.81650  0.22428  0.20870  Biso   1.000  C
  C226     1.0000 0.86988  0.32939  0.15009  Biso   1.000  C
  C227     1.0000 0.95258  0.19128  0.09189  Biso   1.000  C
  C228     1.0000 0.90050  0.08543  0.02679  Biso   1.000  C
  H179     1.0000 0.87508  0.18260  0.08689  Biso   1.000  H
  C229     1.0000 0.75331  0.62388  0.00290  Biso   1.000  C
  H180     1.0000 0.79700  0.60586  0.94390  Biso   1.000  H
  H181     1.0000 0.78938  0.73023  0.96131  Biso   1.000  H
  C230     1.0000 0.09538  0.98958  0.21191  Biso   1.000  C
  H182     1.0000 0.10531  0.90481  0.07731  Biso   1.000  H
  C231     1.0000 0.10038  0.03738  0.12150  Biso   1.000  C
  C232     1.0000 0.16419  0.64423  0.00710  Biso   1.000  C
  H183     1.0000 0.16081  0.78730  0.04549  Biso   1.000  H
  H184     1.0000 0.18188  0.68922  0.07861  Biso   1.000  H
  C233     1.0000 0.23738  0.54871  0.33299  Biso   1.000  C
  C234     1.0000 0.19288  0.72089  0.32410  Biso   1.000  C
  O41      1.0000 0.14050  0.88381  0.31189  Biso   1.000  O
  O42      1.0000 0.81438  0.15134  0.23999  Biso   1.000  O
  C235     1.0000 0.77150  0.29333  0.20019  Biso   1.000  C
  O43      1.0000 0.90919  0.36388  0.11990  Biso   1.000  O
  C236     1.0000 0.82569  0.41391  0.14119  Biso   1.000  C
  C237     1.0000 0.95388  0.30012  0.11170  Biso   1.000  C
  C238     1.0000 0.00000  0.13761  0.08231  Biso   1.000  C
  C239     1.0000 0.90131  0.18020  0.98722  Biso   1.000  C
  H185     1.0000 0.86908  0.04309  0.02290  Biso   1.000  H
  H186     1.0000 0.92931  0.03622  0.02061  Biso   1.000  H
  C240     1.0000 0.74708  0.48139  0.00569  Biso   1.000  C
  H187     1.0000 0.75838  0.65266  0.03709  Biso   1.000  H
  H188     1.0000 0.72188  0.65556  0.98951  Biso   1.000  H
  C241     1.0000 0.09762  0.06773  0.17562  Biso   1.000  C
  H189     1.0000 0.09481  0.01067  0.24610  Biso   1.000  H
  C242     1.0000 0.09619  0.13133  0.08159  Biso   1.000  C
  C243     1.0000 0.20669  0.65457  0.97310  Biso   1.000  C
  H190     1.0000 0.13369  0.65481  0.98649  Biso   1.000  H
  H191     1.0000 0.16381  0.56748  0.01790  Biso   1.000  H
  C244     1.0000 0.27019  0.60106  0.36859  Biso   1.000  C
  H192     1.0000 0.24262  0.47478  0.32471  Biso   1.000  H
  C245     1.0000 0.22488  0.77283  0.35810  Biso   1.000  C
  C246     1.0000 0.72288  0.27390  0.22251  Biso   1.000  C
  C247     1.0000 0.77458  0.38728  0.16630  Biso   1.000  C
  O44      1.0000 0.83019  0.49760  0.11521  Biso   1.000  O
  C248     1.0000 0.00000  0.35792  0.12162  Biso   1.000  C
  C249     1.0000 0.04738  0.19128  0.09189  Biso   1.000  C
  H193     1.0000 0.00000  0.06583  0.06949  Biso   1.000  H
  C250     1.0000 0.87650  0.26422  0.98710  Biso   1.000  C
  H194     1.0000 0.89400  0.14522  0.95470  Biso   1.000  H
  H195     1.0000 0.93688  0.20394  0.98550  Biso   1.000  H
  H196     1.0000 0.77519  0.45088  0.02500  Biso   1.000  H
  H197     1.0000 0.71519  0.46270  0.02202  Biso   1.000  H
  H198     1.0000 0.74758  0.45146  0.97180  Biso   1.000  H
  O45      1.0000 0.09388  0.17739  0.19031  Biso   1.000  O
  C251     1.0000 0.09950  0.08543  0.02679  Biso   1.000  C
  H199     1.0000 0.12488  0.18260  0.08689  Biso   1.000  H
  H200     1.0000 0.20300  0.60586  0.94390  Biso   1.000  H
  H201     1.0000 0.21062  0.73023  0.96131  Biso   1.000  H
  C252     1.0000 0.24669  0.62388  0.00290  Biso   1.000  C
  C253     1.0000 0.26338  0.71006  0.38119  Biso   1.000  C
  H202     1.0000 0.29669  0.56111  0.38371  Biso   1.000  H
  H203     1.0000 0.22100  0.84759  0.36562  Biso   1.000  H
  C254     1.0000 0.68119  0.34064  0.21301  Biso   1.000  C
  H204     1.0000 0.71900  0.21386  0.24442  Biso   1.000  H
  C255     1.0000 0.73258  0.44939  0.15520  Biso   1.000  C
  C256     1.0000 0.04612  0.30012  0.11170  Biso   1.000  C
  H205     1.0000 0.00000  0.42987  0.13410  Biso   1.000  H
  C257     1.0000 0.87258  0.34419  0.94272  Biso   1.000  C
  H206     1.0000 0.84150  0.24256  0.99519  Biso   1.000  H
  H207     1.0000 0.88869  0.30723  0.01591  Biso   1.000  H
  C258     1.0000 0.13600  0.24272  0.17958  Biso   1.000  C
  C259     1.0000 0.09869  0.18020  0.98722  Biso   1.000  C
  H208     1.0000 0.13088  0.04309  0.02290  Biso   1.000  H
  H209     1.0000 0.07069  0.03622  0.02061  Biso   1.000  H
  H210     1.0000 0.27812  0.65556  0.98951  Biso   1.000  H
  C260     1.0000 0.25288  0.48139  0.00569  Biso   1.000  C
  H211     1.0000 0.24162  0.65266  0.03709  Biso   1.000  H
  H212     1.0000 0.28481  0.74256  0.40542  Biso   1.000  H
  C261     1.0000 0.68750  0.43062  0.17989  Biso   1.000  C
  H213     1.0000 0.64950  0.32633  0.22820  Biso   1.000  H
  H214     1.0000 0.73469  0.50480  0.13070  Biso   1.000  H
  O46      1.0000 0.09081  0.36388  0.11990  Biso   1.000  O
  C262     1.0000 0.91831  0.41722  0.94192  Biso   1.000  C
  H215     1.0000 0.84169  0.38852  0.94612  Biso   1.000  H
  H216     1.0000 0.87050  0.30326  0.91089  Biso   1.000  H
  C263     1.0000 0.18350  0.22428  0.20870  Biso   1.000  C
  C264     1.0000 0.13012  0.32939  0.15009  Biso   1.000  C
  C265     1.0000 0.12350  0.26422  0.98710  Biso   1.000  C
  H217     1.0000 0.10600  0.14522  0.95470  Biso   1.000  H
  H218     1.0000 0.06312  0.20394  0.98550  Biso   1.000  H
  H219     1.0000 0.25238  0.45146  0.97180  Biso   1.000  H
  H220     1.0000 0.22481  0.45088  0.02500  Biso   1.000  H
  H221     1.0000 0.28481  0.46270  0.02202  Biso   1.000  H
  H222     1.0000 0.66008  0.47883  0.17470  Biso   1.000  H
  C266     1.0000 0.91800  0.50058  0.89739  Biso   1.000  C
  H223     1.0000 0.92000  0.45758  0.97382  Biso   1.000  H
  H224     1.0000 0.94900  0.37182  0.93940  Biso   1.000  H
  O47      1.0000 0.18562  0.15134  0.23999  Biso   1.000  O
  C267     1.0000 0.22850  0.29333  0.20019  Biso   1.000  C
  C268     1.0000 0.17431  0.41391  0.14119  Biso   1.000  C
  C269     1.0000 0.12738  0.34419  0.94272  Biso   1.000  C
  H225     1.0000 0.15850  0.24256  0.99519  Biso   1.000  H
  H226     1.0000 0.11131  0.30723  0.01591  Biso   1.000  H
  H227     1.0000 0.91558  0.46138  0.86560  Biso   1.000  H
  H228     1.0000 0.88900  0.54921  0.90082  Biso   1.000  H
  H229     1.0000 0.94919  0.54309  0.89792  Biso   1.000  H
  C270     1.0000 0.27712  0.27390  0.22251  Biso   1.000  C
  C271     1.0000 0.22538  0.38728  0.16630  Biso   1.000  C
  O48      1.0000 0.16981  0.49760  0.11521  Biso   1.000  O
  C272     1.0000 0.08169  0.41722  0.94192  Biso   1.000  C
  H230     1.0000 0.15831  0.38852  0.94612  Biso   1.000  H
  H231     1.0000 0.12950  0.30326  0.91089  Biso   1.000  H
  C273     1.0000 0.31881  0.34064  0.21301  Biso   1.000  C
  H232     1.0000 0.28100  0.21386  0.24442  Biso   1.000  H
  C274     1.0000 0.26738  0.44939  0.15520  Biso   1.000  C
  C275     1.0000 0.08200  0.50058  0.89739  Biso   1.000  C
  H233     1.0000 0.08000  0.45758  0.97382  Biso   1.000  H
  H234     1.0000 0.05100  0.37182  0.93940  Biso   1.000  H
  C276     1.0000 0.31250  0.43062  0.17989  Biso   1.000  C
  H235     1.0000 0.35050  0.32633  0.22820  Biso   1.000  H
  H236     1.0000 0.26531  0.50480  0.13070  Biso   1.000  H
  H237     1.0000 0.08438  0.46138  0.86560  Biso   1.000  H
  H238     1.0000 0.11100  0.54921  0.90082  Biso   1.000  H
  H239     1.0000 0.05081  0.54309  0.89792  Biso   1.000  H
  H240     1.0000 0.33988  0.47883  0.17470  Biso   1.000  H
  C277     1.0000 0.76219  0.22246  0.69651  Biso   1.000  C
  C278     1.0000 0.76869  0.11330  0.70841  Biso   1.000  C
  C279     1.0000 0.72258  0.28308  0.71891  Biso   1.000  C
  H241     1.0000 0.78419  0.25653  0.67342  Biso   1.000  H
  C280     1.0000 0.73700  0.05979  0.74310  Biso   1.000  C
  H242     1.0000 0.79500  0.07377  0.69269  Biso   1.000  H
  C281     1.0000 0.69031  0.23280  0.75531  Biso   1.000  C
  H243     1.0000 0.71750  0.35660  0.70979  Biso   1.000  H
  C282     1.0000 0.69758  0.12512  0.76619  Biso   1.000  C
  H244     1.0000 0.74131  0.98536  0.75100  Biso   1.000  H
  C283     1.0000 0.64888  0.30293  0.77859  Biso   1.000  C
  C284     1.0000 0.66169  0.06566  0.80301  Biso   1.000  C
  C285     1.0000 0.61681  0.23826  0.81889  Biso   1.000  C
  O49      1.0000 0.64108  0.39290  0.76691  Biso   1.000  O
  C286     1.0000 0.62188  0.13224  0.82728  Biso   1.000  C
  O50      1.0000 0.66546  0.96626  0.81381  Biso   1.000  O
  O51      1.0000 0.58008  0.30326  0.83999  Biso   1.000  O
  O52      1.0000 0.59181  0.06972  0.85949  Biso   1.000  O
  C287     1.0000 0.59281  0.38811  0.87842  Biso   1.000  C
  C288     1.0000 0.54600  0.11131  0.88021  Biso   1.000  C
  C289     1.0000 0.59919  0.34816  0.93039  Biso   1.000  C
  C290     1.0000 0.59238  0.49090  0.86411  Biso   1.000  C
  C291     1.0000 0.50000  0.07641  0.85900  Biso   1.000  C
  C292     1.0000 0.54600  0.17838  0.92269  Biso   1.000  C
  C293     1.0000 0.59731  0.23181  0.94169  Biso   1.000  C
  C294     1.0000 0.60231  0.43119  0.96531  Biso   1.000  C
  C295     1.0000 0.59908  0.57096  0.90342  Biso   1.000  C
  H245     1.0000 0.58808  0.51108  0.83011  Biso   1.000  H
  C296     1.0000 0.45400  0.11131  0.88021  Biso   1.000  C
  H246     1.0000 0.50000  0.02994  0.83072  Biso   1.000  H
  C297     1.0000 0.50000  0.21287  0.94329  Biso   1.000  C
  H247     1.0000 0.62550  0.19658  0.92292  Biso   1.000  H
  C298     1.0000 0.60369  0.19782  0.00080  Biso   1.000  C
  C299     1.0000 0.60181  0.54408  0.95379  Biso   1.000  C
  H248     1.0000 0.60500  0.41126  0.99950  Biso   1.000  H
  O53      1.0000 0.59558  0.68458  0.88792  Biso   1.000  O
  O54      1.0000 0.40819  0.06972  0.85949  Biso   1.000  O
  C300     1.0000 0.45400  0.17838  0.92269  Biso   1.000  C
  H249     1.0000 0.50000  0.25992  0.97142  Biso   1.000  H
  C301     1.0000 0.65588  0.21502  0.02171  Biso   1.000  C
  H250     1.0000 0.57950  0.24049  0.02091  Biso   1.000  H
  H251     1.0000 0.59469  0.12041  0.00462  Biso   1.000  H
  C302     1.0000 0.59781  0.63191  0.99500  Biso   1.000  C
  C303     1.0000 0.63650  0.75529  0.89880  Biso   1.000  C
  C304     1.0000 0.37812  0.13224  0.82728  Biso   1.000  C
  C305     1.0000 0.40269  0.23181  0.94169  Biso   1.000  C
  H252     1.0000 0.68119  0.19360  0.99641  Biso   1.000  H
  C306     1.0000 0.66388  0.14621  0.07079  Biso   1.000  C
  H253     1.0000 0.66081  0.29284  0.02931  Biso   1.000  H
  C307     1.0000 0.54708  0.70121  0.98420  Biso   1.000  C
  H254     1.0000 0.62688  0.68227  0.99012  Biso   1.000  H
  C308     1.0000 0.59931  0.59477  0.04961  Biso   1.000  C
  C309     1.0000 0.63338  0.84221  0.93120  Biso   1.000  C
  C310     1.0000 0.68419  0.73239  0.86861  Biso   1.000  C
  C311     1.0000 0.33831  0.06566  0.80301  Biso   1.000  C
  C312     1.0000 0.38319  0.23826  0.81889  Biso   1.000  C
  C313     1.0000 0.40081  0.34816  0.93039  Biso   1.000  C
  H255     1.0000 0.37450  0.19658  0.92292  Biso   1.000  H
  C314     1.0000 0.39631  0.19782  0.00080  Biso   1.000  C
  C315     1.0000 0.72800  0.15341  0.08060  Biso   1.000  C
  H256     1.0000 0.65288  0.07029  0.06602  Biso   1.000  H
  H257     1.0000 0.64519  0.17789  0.09929  Biso   1.000  H
  C316     1.0000 0.50000  0.64878  0.99271  Biso   1.000  C
  C317     1.0000 0.54581  0.80433  0.96470  Biso   1.000  C
  C318     1.0000 0.59031  0.67491  0.09040  Biso   1.000  C
  H258     1.0000 0.57408  0.53630  0.05350  Biso   1.000  H
  H259     1.0000 0.63281  0.56186  0.05560  Biso   1.000  H
  O55      1.0000 0.58988  0.87149  0.95860  Biso   1.000  O
  C319     1.0000 0.67550  0.91722  0.93600  Biso   1.000  C
  O56      1.0000 0.68408  0.65399  0.83789  Biso   1.000  O
  C320     1.0000 0.72938  0.80359  0.87972  Biso   1.000  C
  C321     1.0000 0.30238  0.12512  0.76619  Biso   1.000  C
  O57      1.0000 0.33450  0.96626  0.81381  Biso   1.000  O
  C322     1.0000 0.35112  0.30293  0.77859  Biso   1.000  C
  O58      1.0000 0.41988  0.30326  0.83999  Biso   1.000  O
  C323     1.0000 0.40719  0.38811  0.87842  Biso   1.000  C
  C324     1.0000 0.39769  0.43119  0.96531  Biso   1.000  C
  C325     1.0000 0.34412  0.21502  0.02171  Biso   1.000  C
  H260     1.0000 0.42050  0.24049  0.02091  Biso   1.000  H
  H261     1.0000 0.40531  0.12041  0.00462  Biso   1.000  H
  C326     1.0000 0.75600  0.08411  0.09609  Biso   1.000  C
  H262     1.0000 0.74238  0.17549  0.04801  Biso   1.000  H
  H263     1.0000 0.73288  0.21601  0.10319  Biso   1.000  H
  C327     1.0000 0.45288  0.70121  0.98420  Biso   1.000  C
  H264     1.0000 0.50000  0.57617  0.00439  Biso   1.000  H
  C328     1.0000 0.50000  0.85610  0.95589  Biso   1.000  C
  C329     1.0000 0.63338  0.76439  0.09101  Biso   1.000  C
  H265     1.0000 0.58950  0.63703  0.12299  Biso   1.000  H
  H266     1.0000 0.55708  0.71022  0.08529  Biso   1.000  H
  C330     1.0000 0.72469  0.89075  0.91170  Biso   1.000  C
  O59      1.0000 0.66908  0.00008  0.96119  Biso   1.000  O
  C331     1.0000 0.77419  0.78300  0.85381  Biso   1.000  C
  C332     1.0000 0.26300  0.05979  0.74310  Biso   1.000  C
  C333     1.0000 0.30969  0.23280  0.75531  Biso   1.000  C
  O60      1.0000 0.35888  0.39290  0.76691  Biso   1.000  O
  C334     1.0000 0.40762  0.49090  0.86411  Biso   1.000  C
  C335     1.0000 0.39819  0.54408  0.95379  Biso   1.000  C
  H267     1.0000 0.39500  0.41126  0.99950  Biso   1.000  H
  H268     1.0000 0.31881  0.19360  0.99641  Biso   1.000  H
  C336     1.0000 0.33612  0.14621  0.07079  Biso   1.000  C
  H269     1.0000 0.33919  0.29284  0.02931  Biso   1.000  H
  C337     1.0000 0.75481  0.96948  0.06999  Biso   1.000  C
  H270     1.0000 0.74850  0.07344  0.13211  Biso   1.000  H
  H271     1.0000 0.79088  0.11222  0.09380  Biso   1.000  H
  C338     1.0000 0.40219  0.63191  0.99500  Biso   1.000  C
  C339     1.0000 0.45419  0.80433  0.96470  Biso   1.000  C
  H272     1.0000 0.50000  0.92822  0.94360  Biso   1.000  H
  C340     1.0000 0.62188  0.85048  0.13631  Biso   1.000  C
  H273     1.0000 0.63419  0.80293  0.05850  Biso   1.000  H
  H274     1.0000 0.66658  0.72957  0.09632  Biso   1.000  H
  C341     1.0000 0.76831  0.96221  0.92169  Biso   1.000  C
  C342     1.0000 0.81800  0.84883  0.86491  Biso   1.000  C
  H275     1.0000 0.77581  0.72709  0.82950  Biso   1.000  H
  C343     1.0000 0.23131  0.11330  0.70841  Biso   1.000  C
  H276     1.0000 0.25869  0.98536  0.75100  Biso   1.000  H
  C344     1.0000 0.27738  0.28308  0.71891  Biso   1.000  C
  C345     1.0000 0.40088  0.57096  0.90342  Biso   1.000  C
  H277     1.0000 0.41188  0.51108  0.83011  Biso   1.000  H
  C346     1.0000 0.27200  0.15341  0.08060  Biso   1.000  C
  H278     1.0000 0.34712  0.07029  0.06602  Biso   1.000  H
  H279     1.0000 0.35481  0.17789  0.09929  Biso   1.000  H
  H280     1.0000 0.77988  0.96742  0.04308  Biso   1.000  H
  H281     1.0000 0.72119  0.95667  0.05591  Biso   1.000  H
  H282     1.0000 0.76250  0.91308  0.09460  Biso   1.000  H
  H283     1.0000 0.37312  0.68227  0.99012  Biso   1.000  H
  C347     1.0000 0.40069  0.59477  0.04961  Biso   1.000  C
  O61      1.0000 0.41012  0.87149  0.95860  Biso   1.000  O
  C348     1.0000 0.58008  0.92623  0.13330  Biso   1.000  C
  H284     1.0000 0.61708  0.80748  0.16711  Biso   1.000  H
  H285     1.0000 0.65281  0.89398  0.14112  Biso   1.000  H
  C349     1.0000 0.81569  0.93417  0.89872  Biso   1.000  C
  H286     1.0000 0.76519  0.02423  0.94249  Biso   1.000  H
  H287     1.0000 0.84888  0.83320  0.84869  Biso   1.000  H
  C350     1.0000 0.23781  0.22246  0.69651  Biso   1.000  C
  H288     1.0000 0.20500  0.07377  0.69269  Biso   1.000  H
  H289     1.0000 0.28250  0.35660  0.70979  Biso   1.000  H
  O62      1.0000 0.40438  0.68458  0.88792  Biso   1.000  O
  C351     1.0000 0.24400  0.08411  0.09609  Biso   1.000  C
  H290     1.0000 0.25762  0.17549  0.04801  Biso   1.000  H
  H291     1.0000 0.26712  0.21601  0.10319  Biso   1.000  H
  C352     1.0000 0.40969  0.67491  0.09040  Biso   1.000  C
  H292     1.0000 0.42588  0.53630  0.05350  Biso   1.000  H
  H293     1.0000 0.36719  0.56186  0.05560  Biso   1.000  H
  C353     1.0000 0.36662  0.84221  0.93120  Biso   1.000  C
  H294     1.0000 0.54800  0.88530  0.13139  Biso   1.000  H
  H295     1.0000 0.58331  0.96998  0.10250  Biso   1.000  H
  C354     1.0000 0.57858  0.00273  0.17920  Biso   1.000  C
  H296     1.0000 0.84531  0.97403  0.90662  Biso   1.000  H
  H297     1.0000 0.21581  0.25653  0.67342  Biso   1.000  H
  C355     1.0000 0.36350  0.75529  0.89880  Biso   1.000  C
  C356     1.0000 0.24519  0.96948  0.06999  Biso   1.000  C
  H298     1.0000 0.25150  0.07344  0.13211  Biso   1.000  H
  H299     1.0000 0.20912  0.11222  0.09380  Biso   1.000  H
  C357     1.0000 0.36662  0.76439  0.09101  Biso   1.000  C
  H300     1.0000 0.41050  0.63703  0.12299  Biso   1.000  H
  H301     1.0000 0.44288  0.71022  0.08529  Biso   1.000  H
  C358     1.0000 0.32450  0.91722  0.93600  Biso   1.000  C
  H302     1.0000 0.57088  0.96047  0.20931  Biso   1.000  H
  H303     1.0000 0.55250  0.05781  0.17420  Biso   1.000  H
  H304     1.0000 0.61138  0.03796  0.18309  Biso   1.000  H
  C359     1.0000 0.31581  0.73239  0.86861  Biso   1.000  C
  H305     1.0000 0.22012  0.96742  0.04308  Biso   1.000  H
  H306     1.0000 0.27881  0.95667  0.05591  Biso   1.000  H
  H307     1.0000 0.23750  0.91308  0.09460  Biso   1.000  H
  C360     1.0000 0.37812  0.85048  0.13631  Biso   1.000  C
  H308     1.0000 0.36581  0.80293  0.05850  Biso   1.000  H
  H309     1.0000 0.33338  0.72957  0.09632  Biso   1.000  H
  C361     1.0000 0.27531  0.89075  0.91170  Biso   1.000  C
  O63      1.0000 0.33088  0.00008  0.96119  Biso   1.000  O
  O64      1.0000 0.31588  0.65399  0.83789  Biso   1.000  O
  C362     1.0000 0.27062  0.80359  0.87972  Biso   1.000  C
  C363     1.0000 0.41988  0.92623  0.13330  Biso   1.000  C
  H310     1.0000 0.38288  0.80748  0.16711  Biso   1.000  H
  H311     1.0000 0.34719  0.89398  0.14112  Biso   1.000  H
  C364     1.0000 0.23169  0.96221  0.92169  Biso   1.000  C
  C365     1.0000 0.22581  0.78300  0.85381  Biso   1.000  C
  H312     1.0000 0.45200  0.88530  0.13139  Biso   1.000  H
  H313     1.0000 0.41669  0.96998  0.10250  Biso   1.000  H
  C366     1.0000 0.42138  0.00273  0.17920  Biso   1.000  C
  C367     1.0000 0.18431  0.93417  0.89872  Biso   1.000  C
  H314     1.0000 0.23481  0.02423  0.94249  Biso   1.000  H
  C368     1.0000 0.18200  0.84883  0.86491  Biso   1.000  C
  H315     1.0000 0.22419  0.72709  0.82950  Biso   1.000  H
  H316     1.0000 0.42912  0.96047  0.20931  Biso   1.000  H
  H317     1.0000 0.44750  0.05781  0.17420  Biso   1.000  H
  H318     1.0000 0.38862  0.03796  0.18309  Biso   1.000  H
  H319     1.0000 0.15469  0.97403  0.90662  Biso   1.000  H
  H320     1.0000 0.15112  0.83320  0.84869  Biso   1.000  H
