data_image0
_cell_length_a       19.767
_cell_length_b       19.767
_cell_length_c       37.422
_cell_angle_alpha    90
_cell_angle_beta     90
_cell_angle_gamma    120

_symmetry_space_group_name_H-M    "P 1"
_symmetry_int_tables_number       1

loop_
  _symmetry_equiv_pos_as_xyz
  'x, y, z'

loop_
  _atom_site_label
  _atom_site_occupancy
  _atom_site_fract_x
  _atom_site_fract_y
  _atom_site_fract_z
  _atom_site_thermal_displace_type
  _atom_site_B_iso_or_equiv
  _atom_site_type_symbol
  C1       1.0000 0.52381  0.42830  0.49121  Biso   1.000  C
  C2       1.0000 0.46897  0.41808  0.46633  Biso   1.000  C
  C3       1.0000 0.53591  0.47679  0.52082  Biso   1.000  C
  H1       1.0000 0.55349  0.40278  0.48859  Biso   1.000  H
  C4       1.0000 0.42319  0.45360  0.46927  Biso   1.000  C
  H2       1.0000 0.46158  0.38560  0.44629  Biso   1.000  H
  C5       1.0000 0.49292  0.51049  0.52424  Biso   1.000  C
  C6       1.0000 0.59388  0.48689  0.54893  Biso   1.000  C
  C7       1.0000 0.36382  0.44372  0.44132  Biso   1.000  C
  C8       1.0000 0.43818  0.50179  0.49992  Biso   1.000  C
  H3       1.0000 0.50063  0.54221  0.54460  Biso   1.000  H
  N1       1.0000 0.63238  0.45068  0.54842  Biso   1.000  N
  H4       1.0000 0.60257  0.52188  0.56809  Biso   1.000  H
  C9       1.0000 0.38649  0.47328  0.40770  Biso   1.000  C
  C10      1.0000 0.28400  0.40500  0.45179  Biso   1.000  C
  H5       1.0000 0.40959  0.52819  0.50339  Biso   1.000  H
  C11      1.0000 0.68678  0.46528  0.57736  Biso   1.000  C
  C12      1.0000 0.32850  0.46738  0.38256  Biso   1.000  C
  C13      1.0000 0.47120  0.51178  0.39501  Biso   1.000  C
  C14      1.0000 0.22672  0.39921  0.42745  Biso   1.000  C
  C15      1.0000 0.25843  0.36732  0.48923  Biso   1.000  C
  H6       1.0000 0.67601  0.41510  0.58800  Biso   1.000  H
  H7       1.0000 0.67997  0.49659  0.59620  Biso   1.000  H
  C16      1.0000 0.77061  0.50909  0.56344  Biso   1.000  C
  C17      1.0000 0.35191  0.50570  0.34720  Biso   1.000  C
  C18      1.0000 0.24890  0.43081  0.39282  Biso   1.000  C
  C19      1.0000 0.48971  0.46271  0.37189  Biso   1.000  C
  H8       1.0000 0.48361  0.55997  0.38181  Biso   1.000  H
  H9       1.0000 0.50561  0.52738  0.41620  Biso   1.000  H
  C20      1.0000 0.14257  0.36638  0.43905  Biso   1.000  C
  H10      1.0000 0.29912  0.39933  0.50700  Biso   1.000  H
  H11      1.0000 0.20941  0.36580  0.49631  Biso   1.000  H
  C21      1.0000 0.24569  0.28548  0.48899  Biso   1.000  C
  N2       1.0000 0.79900  0.59157  0.55761  Biso   1.000  N
  H12      1.0000 0.80510  0.50331  0.58081  Biso   1.000  H
  H13      1.0000 0.77327  0.48508  0.54070  Biso   1.000  H
  C22      1.0000 0.34159  0.46008  0.31620  Biso   1.000  C
  C23      1.0000 0.38493  0.58632  0.34357  Biso   1.000  C
  C24      1.0000 0.18620  0.42340  0.36743  Biso   1.000  C
  H14      1.0000 0.54602  0.48981  0.36719  Biso   1.000  H
  H15      1.0000 0.46130  0.45272  0.34931  Biso   1.000  H
  H16      1.0000 0.47402  0.41300  0.38400  Biso   1.000  H
  C25      1.0000 0.11372  0.41230  0.44912  Biso   1.000  C
  C26      1.0000 0.09211  0.28571  0.43985  Biso   1.000  C
  H17      1.0000 0.29459  0.28717  0.48260  Biso   1.000  H
  H18      1.0000 0.20522  0.25382  0.47159  Biso   1.000  H
  H19      1.0000 0.22919  0.26240  0.51291  Biso   1.000  H
  C27      1.0000 0.86010  0.62353  0.52889  Biso   1.000  C
  C28      1.0000 0.83010  0.63638  0.59013  Biso   1.000  C
  C29      1.0000 0.36470  0.49618  0.28272  Biso   1.000  C
  H20      1.0000 0.31900  0.40500  0.31821  Biso   1.000  H
  H21      1.0000 0.39222  0.61810  0.36390  Biso   1.000  H
  C30      1.0000 0.40707  0.61938  0.30984  Biso   1.000  C
  H22      1.0000 0.21041  0.46382  0.34859  Biso   1.000  H
  H23      1.0000 0.14850  0.43309  0.38071  Biso   1.000  H
  C31      1.0000 0.14190  0.34237  0.34966  Biso   1.000  C
  H24      1.0000 0.14728  0.46738  0.44891  Biso   1.000  H
  C32      1.0000 0.03669  0.38239  0.45981  Biso   1.000  C
  C33      1.0000 0.01242  0.25300  0.45113  Biso   1.000  C
  H25      1.0000 0.11082  0.25189  0.43279  Biso   1.000  H
  C34      1.0000 0.82081  0.60180  0.49102  Biso   1.000  C
  H26      1.0000 0.89537  0.60180  0.53169  Biso   1.000  H
  H27      1.0000 0.89194  0.68113  0.53121  Biso   1.000  H
  H28      1.0000 0.88429  0.64742  0.59361  Biso   1.000  H
  H29      1.0000 0.79849  0.60472  0.61071  Biso   1.000  H
  C35      1.0000 0.82971  0.71279  0.58957  Biso   1.000  C
  C36      1.0000 0.39568  0.57767  0.27925  Biso   1.000  C
  H30      1.0000 0.35958  0.46581  0.26220  Biso   1.000  H
  H31      1.0000 0.43190  0.67470  0.30800  Biso   1.000  H
  H32      1.0000 0.17732  0.33571  0.33360  Biso   1.000  H
  H33      1.0000 0.09781  0.33828  0.33590  Biso   1.000  H
  H34      1.0000 0.12251  0.30189  0.36810  Biso   1.000  H
  H35      1.0000 0.01849  0.41720  0.46601  Biso   1.000  H
  C37      1.0000 0.98678  0.30341  0.46147  Biso   1.000  C
  H36      1.0000 0.97808  0.19809  0.45150  Biso   1.000  H
  N3       1.0000 0.79792  0.65823  0.48036  Biso   1.000  N
  H37      1.0000 0.85800  0.60162  0.47341  Biso   1.000  H
  H38      1.0000 0.77433  0.54881  0.49169  Biso   1.000  H
  N4       1.0000 0.75196  0.70128  0.59714  Biso   1.000  N
  H39      1.0000 0.86720  0.74871  0.60761  Biso   1.000  H
  H40      1.0000 0.84722  0.73750  0.56579  Biso   1.000  H
  C38      1.0000 0.41689  0.61482  0.24486  Biso   1.000  C
  C39      1.0000 0.90560  0.27268  0.47472  Biso   1.000  C
  C40      1.0000 0.72727  0.63287  0.47472  Biso   1.000  C
  C41      1.0000 0.71810  0.71723  0.57271  Biso   1.000  C
  N5       1.0000 0.40101  0.57791  0.21501  Biso   1.000  N
  H41      1.0000 0.44453  0.67032  0.24411  Biso   1.000  H
  N6       1.0000 0.86030  0.20212  0.48036  Biso   1.000  N
  H42      1.0000 0.88769  0.30849  0.47900  Biso   1.000  H
  C42      1.0000 0.69659  0.68340  0.46147  Biso   1.000  C
  H43      1.0000 0.69148  0.57919  0.47900  Biso   1.000  H
  H44      1.0000 0.74447  0.73668  0.55061  Biso   1.000  H
  C43      1.0000 0.63863  0.70671  0.57728  Biso   1.000  C
  C44      1.0000 0.42962  0.62440  0.18142  Biso   1.000  C
  C45      1.0000 0.78101  0.17922  0.49102  Biso   1.000  C
  C46      1.0000 0.61759  0.65431  0.45981  Biso   1.000  C
  C47      1.0000 0.74698  0.75940  0.45113  Biso   1.000  C
  C48      1.0000 0.60300  0.68878  0.60873  Biso   1.000  C
  C49      1.0000 0.60054  0.71653  0.54850  Biso   1.000  C
  H45      1.0000 0.46419  0.68019  0.18740  Biso   1.000  H
  H46      1.0000 0.46058  0.60670  0.16760  Biso   1.000  H
  C50      1.0000 0.36339  0.61599  0.15913  Biso   1.000  C
  H47      1.0000 0.74359  0.14201  0.47341  Biso   1.000  H
  H48      1.0000 0.77452  0.22572  0.49169  Biso   1.000  H
  C51      1.0000 0.76338  0.13991  0.52889  Biso   1.000  C
  C52      1.0000 0.58771  0.70140  0.44912  Biso   1.000  C
  H49      1.0000 0.58277  0.60127  0.46601  Biso   1.000  H
  H50      1.0000 0.80191  0.78002  0.45150  Biso   1.000  H
  C53      1.0000 0.71434  0.80643  0.43985  Biso   1.000  C
  H51      1.0000 0.62960  0.68440  0.62891  Biso   1.000  H
  C54      1.0000 0.52669  0.67598  0.61293  Biso   1.000  C
  H52      1.0000 0.62559  0.73031  0.52589  Biso   1.000  H
  C55      1.0000 0.52839  0.70700  0.55189  Biso   1.000  C
  N7       1.0000 0.33330  0.66670  0.17241  Biso   1.000  N
  H53      1.0000 0.38113  0.63013  0.13409  Biso   1.000  H
  H54      1.0000 0.32082  0.56079  0.15951  Biso   1.000  H
  N8       1.0000 0.79262  0.20101  0.55761  Biso   1.000  N
  H55      1.0000 0.70643  0.10462  0.53169  Biso   1.000  H
  H56      1.0000 0.78923  0.10813  0.53121  Biso   1.000  H
  C56      1.0000 0.63362  0.77623  0.43905  Biso   1.000  C
  H57      1.0000 0.53259  0.67990  0.44891  Biso   1.000  H
  H58      1.0000 0.74810  0.85888  0.43279  Biso   1.000  H
  C57      1.0000 0.48850  0.68732  0.58530  Biso   1.000  C
  H59      1.0000 0.50141  0.65922  0.63540  Biso   1.000  H
  H60      1.0000 0.50350  0.71349  0.53151  Biso   1.000  H
  C58      1.0000 0.25259  0.63661  0.15913  Biso   1.000  C
  C59      1.0000 0.38403  0.74743  0.15913  Biso   1.000  C
  C60      1.0000 0.80629  0.16987  0.59013  Biso   1.000  C
  C61      1.0000 0.73852  0.22940  0.56344  Biso   1.000  C
  C62      1.0000 0.60079  0.82751  0.42745  Biso   1.000  C
  C63      1.0000 0.40947  0.67669  0.58816  Biso   1.000  C
  C64      1.0000 0.19481  0.57043  0.18142  Biso   1.000  C
  H61      1.0000 0.24900  0.61891  0.13409  Biso   1.000  H
  H62      1.0000 0.23999  0.67920  0.15951  Biso   1.000  H
  C65      1.0000 0.37559  0.80520  0.18142  Biso   1.000  C
  H63      1.0000 0.36988  0.75099  0.13409  Biso   1.000  H
  H64      1.0000 0.43918  0.75999  0.15951  Biso   1.000  H
  H65      1.0000 0.76313  0.11572  0.59361  Biso   1.000  H
  H66      1.0000 0.80621  0.20148  0.61071  Biso   1.000  H
  C66      1.0000 0.88309  0.17028  0.58957  Biso   1.000  C
  C67      1.0000 0.77851  0.31322  0.57736  Biso   1.000  C
  H67      1.0000 0.69819  0.19487  0.58081  Biso   1.000  H
  H68      1.0000 0.71183  0.22671  0.54070  Biso   1.000  H
  C68      1.0000 0.56922  0.81811  0.39282  Biso   1.000  C
  C69      1.0000 0.59500  0.87898  0.45179  Biso   1.000  C
  C70      1.0000 0.34270  0.60051  0.58810  Biso   1.000  C
  C71      1.0000 0.39949  0.74223  0.58810  Biso   1.000  C
  N9       1.0000 0.17692  0.59899  0.21501  Biso   1.000  N
  H69      1.0000 0.21599  0.53579  0.18740  Biso   1.000  H
  H70      1.0000 0.14611  0.53941  0.16760  Biso   1.000  H
  N10      1.0000 0.42211  0.82308  0.21501  Biso   1.000  N
  H71      1.0000 0.31981  0.78400  0.18740  Biso   1.000  H
  H72      1.0000 0.39332  0.85392  0.16760  Biso   1.000  H
  N11      1.0000 0.94930  0.24797  0.59714  Biso   1.000  N
  H73      1.0000 0.88149  0.13278  0.60761  Biso   1.000  H
  H74      1.0000 0.89029  0.15282  0.56579  Biso   1.000  H
  N12      1.0000 0.81830  0.36761  0.54842  Biso   1.000  N
  H75      1.0000 0.73911  0.32397  0.58800  Biso   1.000  H
  H76      1.0000 0.81660  0.32000  0.59620  Biso   1.000  H
  C72      1.0000 0.53259  0.86110  0.38256  Biso   1.000  C
  C73      1.0000 0.57662  0.76279  0.36743  Biso   1.000  C
  C74      1.0000 0.55632  0.92010  0.44132  Biso   1.000  C
  C75      1.0000 0.63267  0.89107  0.48923  Biso   1.000  C
  C76      1.0000 0.26723  0.59052  0.58816  Biso   1.000  C
  C77      1.0000 0.35263  0.52971  0.58869  Biso   1.000  C
  C78      1.0000 0.32331  0.73282  0.58816  Biso   1.000  C
  C79      1.0000 0.47029  0.82290  0.58869  Biso   1.000  C
  C80      1.0000 0.19791  0.58310  0.24486  Biso   1.000  C
  C81      1.0000 0.38522  0.80210  0.24486  Biso   1.000  C
  C82      1.0000 0.99910  0.28191  0.57271  Biso   1.000  C
  C83      1.0000 0.89299  0.40611  0.54893  Biso   1.000  C
  C84      1.0000 0.49428  0.84621  0.34720  Biso   1.000  C
  C85      1.0000 0.52672  0.91321  0.40770  Biso   1.000  C
  H77      1.0000 0.53620  0.74661  0.34859  Biso   1.000  H
  H78      1.0000 0.56689  0.71542  0.38071  Biso   1.000  H
  C86      1.0000 0.65759  0.79948  0.34966  Biso   1.000  C
  C87      1.0000 0.54641  0.96958  0.46927  Biso   1.000  C
  H79      1.0000 0.60069  0.89977  0.50700  Biso   1.000  H
  H80      1.0000 0.63421  0.84358  0.49631  Biso   1.000  H
  C88      1.0000 0.71447  0.96018  0.48899  Biso   1.000  C
  C89      1.0000 0.19878  0.51149  0.58530  Biso   1.000  C
  C90      1.0000 0.25782  0.65729  0.58810  Biso   1.000  C
  H81      1.0000 0.40610  0.54519  0.58070  Biso   1.000  H
  H82      1.0000 0.31551  0.49069  0.57159  Biso   1.000  H
  C91      1.0000 0.33890  0.49092  0.62661  Biso   1.000  C
  C92      1.0000 0.31269  0.80123  0.58530  Biso   1.000  C
  H83      1.0000 0.45480  0.86093  0.58070  Biso   1.000  H
  H84      1.0000 0.50929  0.82483  0.57159  Biso   1.000  H
  C93      1.0000 0.50910  0.84802  0.62661  Biso   1.000  C
  C94      1.0000 0.18200  0.60431  0.27925  Biso   1.000  C
  H85      1.0000 0.22578  0.55547  0.24411  Biso   1.000  H
  C95      1.0000 0.42230  0.81799  0.27925  Biso   1.000  C
  H86      1.0000 0.32967  0.77418  0.24411  Biso   1.000  H
  C96      1.0000 0.06810  0.36142  0.57728  Biso   1.000  C
  H87      1.0000 0.99223  0.25551  0.55061  Biso   1.000  H
  C97      1.0000 0.94091  0.46411  0.52082  Biso   1.000  C
  H88      1.0000 0.91930  0.39740  0.56809  Biso   1.000  H
  C98      1.0000 0.41372  0.79860  0.34357  Biso   1.000  C
  C99      1.0000 0.53990  0.88149  0.31620  Biso   1.000  C
  C100     1.0000 0.48821  0.95942  0.39501  Biso   1.000  C
  H89      1.0000 0.66428  0.84159  0.33360  Biso   1.000  H
  H90      1.0000 0.66169  0.75952  0.33590  Biso   1.000  H
  H91      1.0000 0.69811  0.82062  0.36810  Biso   1.000  H
  C101     1.0000 0.49820  0.93640  0.49992  Biso   1.000  C
  C102     1.0000 0.58186  0.05090  0.46633  Biso   1.000  C
  H92      1.0000 0.74621  0.95141  0.47159  Biso   1.000  H
  H93      1.0000 0.73760  0.96678  0.51291  Biso   1.000  H
  H94      1.0000 0.71280  0.00743  0.48260  Biso   1.000  H
  C103     1.0000 0.14927  0.47328  0.61293  Biso   1.000  C
  C104     1.0000 0.17858  0.47159  0.55189  Biso   1.000  C
  C105     1.0000 0.17710  0.64742  0.58869  Biso   1.000  C
  H95      1.0000 0.33812  0.44110  0.62461  Biso   1.000  H
  H96      1.0000 0.28872  0.48152  0.63620  Biso   1.000  H
  H97      1.0000 0.38107  0.52568  0.64270  Biso   1.000  H
  C106     1.0000 0.29297  0.82138  0.55189  Biso   1.000  C
  C107     1.0000 0.32402  0.85071  0.61293  Biso   1.000  C
  H98      1.0000 0.55887  0.89697  0.62461  Biso   1.000  H
  H99      1.0000 0.51848  0.80719  0.63620  Biso   1.000  H
  H100     1.0000 0.47428  0.85538  0.64270  Biso   1.000  H
  C108     1.0000 0.21233  0.59292  0.30984  Biso   1.000  C
  C109     1.0000 0.13149  0.63533  0.28272  Biso   1.000  C
  C110     1.0000 0.38058  0.78768  0.30984  Biso   1.000  C
  C111     1.0000 0.50382  0.86852  0.28272  Biso   1.000  C
  C112     1.0000 0.08578  0.39699  0.60873  Biso   1.000  C
  C113     1.0000 0.11603  0.39950  0.54850  Biso   1.000  C
  C114     1.0000 0.01760  0.50711  0.52424  Biso   1.000  C
  C115     1.0000 0.90452  0.47620  0.49121  Biso   1.000  C
  H101     1.0000 0.38190  0.77412  0.36390  Biso   1.000  H
  H102     1.0000 0.59502  0.91403  0.31821  Biso   1.000  H
  H103     1.0000 0.44000  0.92361  0.38181  Biso   1.000  H
  H104     1.0000 0.47262  0.97823  0.41620  Biso   1.000  H
  C116     1.0000 0.53728  0.02700  0.37189  Biso   1.000  C
  H105     1.0000 0.47180  0.88137  0.50339  Biso   1.000  H
  C117     1.0000 0.48947  0.98237  0.52424  Biso   1.000  C
  C118     1.0000 0.57169  0.09553  0.49121  Biso   1.000  C
  H106     1.0000 0.61440  0.07601  0.44629  Biso   1.000  H
  H107     1.0000 0.15777  0.49858  0.63540  Biso   1.000  H
  H108     1.0000 0.20999  0.49647  0.53151  Biso   1.000  H
  H109     1.0000 0.13912  0.59391  0.58070  Biso   1.000  H
  H110     1.0000 0.17521  0.68451  0.57159  Biso   1.000  H
  C119     1.0000 0.15201  0.66109  0.62661  Biso   1.000  C
  C120     1.0000 0.28350  0.88400  0.54850  Biso   1.000  C
  H111     1.0000 0.28649  0.79001  0.53151  Biso   1.000  H
  C121     1.0000 0.31120  0.91420  0.60873  Biso   1.000  C
  H112     1.0000 0.34080  0.84218  0.63540  Biso   1.000  H
  C122     1.0000 0.20142  0.61512  0.34357  Biso   1.000  C
  H113     1.0000 0.24282  0.56809  0.30800  Biso   1.000  H
  H114     1.0000 0.10621  0.64041  0.26220  Biso   1.000  H
  C123     1.0000 0.11850  0.65840  0.31620  Biso   1.000  C
  H115     1.0000 0.32527  0.75718  0.30800  Biso   1.000  H
  H116     1.0000 0.53423  0.89382  0.26220  Biso   1.000  H
  H117     1.0000 0.05479  0.37041  0.62891  Biso   1.000  H
  H118     1.0000 0.10468  0.37439  0.52589  Biso   1.000  H
  C124     1.0000 0.06361  0.56178  0.49992  Biso   1.000  C
  H119     1.0000 0.04157  0.49939  0.54460  Biso   1.000  H
  H120     1.0000 0.84931  0.44653  0.48859  Biso   1.000  H
  C125     1.0000 0.94911  0.53100  0.46633  Biso   1.000  C
  H121     1.0000 0.51025  0.05621  0.36719  Biso   1.000  H
  H122     1.0000 0.54730  0.00860  0.34931  Biso   1.000  H
  H123     1.0000 0.58701  0.06100  0.38400  Biso   1.000  H
  H124     1.0000 0.45781  0.95842  0.54460  Biso   1.000  H
  C126     1.0000 0.52319  0.05913  0.52082  Biso   1.000  C
  H125     1.0000 0.59717  0.15073  0.48859  Biso   1.000  H
  H126     1.0000 0.10300  0.66191  0.62461  Biso   1.000  H
  H127     1.0000 0.19282  0.71133  0.63620  Biso   1.000  H
  H128     1.0000 0.14459  0.61891  0.64270  Biso   1.000  H
  C127     1.0000 0.29329  0.93190  0.57728  Biso   1.000  C
  H129     1.0000 0.26967  0.89528  0.52589  Biso   1.000  H
  H130     1.0000 0.31563  0.94522  0.62891  Biso   1.000  H
  C128     1.0000 0.15383  0.64812  0.34720  Biso   1.000  C
  H131     1.0000 0.22590  0.60781  0.36390  Biso   1.000  H
  H132     1.0000 0.08599  0.68101  0.31821  Biso   1.000  H
  C129     1.0000 0.03039  0.57680  0.46927  Biso   1.000  C
  H133     1.0000 0.11860  0.59041  0.50339  Biso   1.000  H
  H134     1.0000 0.92399  0.53842  0.44629  Biso   1.000  H
  C130     1.0000 0.51315  0.10703  0.54893  Biso   1.000  C
  C131     1.0000 0.28276  0.00089  0.57271  Biso   1.000  C
  C132     1.0000 0.13890  0.67149  0.38256  Biso   1.000  C
  C133     1.0000 0.07993  0.63620  0.44132  Biso   1.000  C
  N13      1.0000 0.54926  0.18169  0.54842  Biso   1.000  N
  H135     1.0000 0.47812  0.08069  0.56809  Biso   1.000  H
  N14      1.0000 0.29867  0.05072  0.59714  Biso   1.000  N
  H136     1.0000 0.26337  0.00784  0.55061  Biso   1.000  H
  C134     1.0000 0.18190  0.75111  0.39282  Biso   1.000  C
  C135     1.0000 0.08678  0.61348  0.40770  Biso   1.000  C
  C136     1.0000 0.12099  0.71600  0.45179  Biso   1.000  C
  C137     1.0000 0.53468  0.22153  0.57736  Biso   1.000  C
  C138     1.0000 0.28719  0.11691  0.58957  Biso   1.000  C
  C139     1.0000 0.17251  0.77331  0.42745  Biso   1.000  C
  C140     1.0000 0.23722  0.81379  0.36743  Biso   1.000  C
  C141     1.0000 0.04058  0.52878  0.39501  Biso   1.000  C
  C142     1.0000 0.10889  0.74159  0.48923  Biso   1.000  C
  H137     1.0000 0.58492  0.26090  0.58800  Biso   1.000  H
  H138     1.0000 0.50339  0.18344  0.59620  Biso   1.000  H
  C143     1.0000 0.49094  0.26154  0.56344  Biso   1.000  C
  C144     1.0000 0.36359  0.19372  0.59013  Biso   1.000  C
  H139     1.0000 0.25128  0.11854  0.60761  Biso   1.000  H
  H140     1.0000 0.26250  0.10972  0.56579  Biso   1.000  H
  C145     1.0000 0.22382  0.85742  0.43905  Biso   1.000  C
  H141     1.0000 0.25340  0.78960  0.34859  Biso   1.000  H
  H142     1.0000 0.28462  0.85152  0.38071  Biso   1.000  H
  C146     1.0000 0.20050  0.85812  0.34966  Biso   1.000  C
  H143     1.0000 0.07638  0.51639  0.38181  Biso   1.000  H
  H144     1.0000 0.02181  0.49437  0.41620  Biso   1.000  H
  C147     1.0000 0.97302  0.51032  0.37189  Biso   1.000  C
  H145     1.0000 0.10020  0.70093  0.50700  Biso   1.000  H
  H146     1.0000 0.15642  0.79060  0.49631  Biso   1.000  H
  C148     1.0000 0.03983  0.75432  0.48899  Biso   1.000  C
  N15      1.0000 0.40837  0.20739  0.55761  Biso   1.000  N
  H147     1.0000 0.49665  0.30179  0.58081  Biso   1.000  H
  H148     1.0000 0.51491  0.28824  0.54070  Biso   1.000  H
  H149     1.0000 0.35260  0.23689  0.59361  Biso   1.000  H
  H150     1.0000 0.39527  0.19384  0.61071  Biso   1.000  H
  C149     1.0000 0.29861  0.88628  0.44912  Biso   1.000  C
  C150     1.0000 0.19361  0.90789  0.43985  Biso   1.000  C
  H151     1.0000 0.15842  0.82272  0.33360  Biso   1.000  H
  H152     1.0000 0.24051  0.90223  0.33590  Biso   1.000  H
  H153     1.0000 0.17939  0.87752  0.36810  Biso   1.000  H
  H154     1.0000 0.94380  0.45401  0.36719  Biso   1.000  H
  H155     1.0000 0.99142  0.53871  0.34931  Biso   1.000  H
  H156     1.0000 0.93896  0.52597  0.38400  Biso   1.000  H
  H157     1.0000 0.04859  0.79480  0.47159  Biso   1.000  H
  H158     1.0000 0.03319  0.77079  0.51291  Biso   1.000  H
  H159     1.0000 0.99262  0.70543  0.48260  Biso   1.000  H
  C151     1.0000 0.37653  0.23660  0.52889  Biso   1.000  C
  H160     1.0000 0.32011  0.85269  0.44891  Biso   1.000  H
  C152     1.0000 0.34570  0.96327  0.45981  Biso   1.000  C
  C153     1.0000 0.24059  0.98757  0.45113  Biso   1.000  C
  H161     1.0000 0.14112  0.88920  0.43279  Biso   1.000  H
  C154     1.0000 0.39825  0.21902  0.49102  Biso   1.000  C
  H162     1.0000 0.39816  0.29361  0.53169  Biso   1.000  H
  H163     1.0000 0.31893  0.21084  0.53121  Biso   1.000  H
  H164     1.0000 0.39868  0.98150  0.46601  Biso   1.000  H
  C155     1.0000 0.31660  0.01322  0.46147  Biso   1.000  C
  H165     1.0000 0.21997  0.02192  0.45150  Biso   1.000  H
  N16      1.0000 0.34179  0.13969  0.48036  Biso   1.000  N
  H166     1.0000 0.39837  0.25640  0.47341  Biso   1.000  H
  H167     1.0000 0.45122  0.22550  0.49169  Biso   1.000  H
  C156     1.0000 0.36706  0.09442  0.47472  Biso   1.000  C
  H168     1.0000 0.42082  0.11229  0.47900  Biso   1.000  H
  C157     1.0000 0.84244  0.51464  0.29328  Biso   1.000  C
  C158     1.0000 0.80365  0.48958  0.25536  Biso   1.000  C
  H169     1.0000 0.89224  0.56365  0.29127  Biso   1.000  H
  H170     1.0000 0.85185  0.47387  0.30287  Biso   1.000  H
  H171     1.0000 0.80765  0.52206  0.30936  Biso   1.000  H
  C159     1.0000 0.73283  0.40885  0.25477  Biso   1.000  C
  H172     1.0000 0.78813  0.52755  0.24737  Biso   1.000  H
  H173     1.0000 0.84263  0.49145  0.23826  Biso   1.000  H
  C160     1.0000 0.65665  0.39945  0.25482  Biso   1.000  C
  C161     1.0000 0.74284  0.34337  0.25482  Biso   1.000  C
  C162     1.0000 0.59114  0.32397  0.25477  Biso   1.000  C
  C163     1.0000 0.64603  0.46785  0.25196  Biso   1.000  C
  C164     1.0000 0.67607  0.26719  0.25477  Biso   1.000  C
  C165     1.0000 0.82183  0.35394  0.25196  Biso   1.000  C
  C166     1.0000 0.60052  0.25715  0.25482  Biso   1.000  C
  C167     1.0000 0.51044  0.31404  0.25536  Biso   1.000  C
  C168     1.0000 0.62633  0.48806  0.21856  Biso   1.000  C
  C169     1.0000 0.65734  0.51739  0.27959  Biso   1.000  C
  C170     1.0000 0.68594  0.19639  0.25536  Biso   1.000  C
  C171     1.0000 0.86175  0.37368  0.21856  Biso   1.000  C
  C172     1.0000 0.86006  0.34267  0.27959  Biso   1.000  C
  C173     1.0000 0.53215  0.17817  0.25196  Biso   1.000  C
  H174     1.0000 0.47243  0.26059  0.24737  Biso   1.000  H
  H175     1.0000 0.50853  0.35119  0.23826  Biso   1.000  H
  C174     1.0000 0.48533  0.32777  0.29328  Biso   1.000  C
  C175     1.0000 0.61682  0.55068  0.21517  Biso   1.000  C
  H176     1.0000 0.61986  0.45669  0.19817  Biso   1.000  H
  C176     1.0000 0.64452  0.58088  0.27540  Biso   1.000  C
  H177     1.0000 0.67412  0.50886  0.30207  Biso   1.000  H
  H178     1.0000 0.73942  0.21187  0.24737  Biso   1.000  H
  H179     1.0000 0.64883  0.15737  0.23826  Biso   1.000  H
  C177     1.0000 0.67224  0.15755  0.29328  Biso   1.000  C
  C178     1.0000 0.93382  0.38315  0.21517  Biso   1.000  C
  H180     1.0000 0.83682  0.38017  0.19817  Biso   1.000  H
  C179     1.0000 0.93632  0.35546  0.27540  Biso   1.000  C
  H181     1.0000 0.83470  0.32584  0.30207  Biso   1.000  H
  C180     1.0000 0.48264  0.13996  0.27959  Biso   1.000  C
  C181     1.0000 0.51194  0.13827  0.21856  Biso   1.000  C
  H182     1.0000 0.43636  0.32859  0.29127  Biso   1.000  H
  H183     1.0000 0.52610  0.37795  0.30287  Biso   1.000  H
  H184     1.0000 0.47795  0.28559  0.30936  Biso   1.000  H
  C182     1.0000 0.62666  0.59858  0.24395  Biso   1.000  C
  H185     1.0000 0.60303  0.56196  0.19256  Biso   1.000  H
  H186     1.0000 0.64892  0.61184  0.29557  Biso   1.000  H
  H187     1.0000 0.67143  0.10778  0.29127  Biso   1.000  H
  H188     1.0000 0.62200  0.14814  0.30287  Biso   1.000  H
  H189     1.0000 0.71443  0.19236  0.30936  Biso   1.000  H
  C183     1.0000 0.97194  0.37339  0.24395  Biso   1.000  C
  H190     1.0000 0.95896  0.39699  0.19256  Biso   1.000  H
  H191     1.0000 0.96296  0.35108  0.29557  Biso   1.000  H
  C184     1.0000 0.41915  0.06367  0.27540  Biso   1.000  C
  H192     1.0000 0.49114  0.16526  0.30207  Biso   1.000  H
  C185     1.0000 0.44934  0.06618  0.21517  Biso   1.000  C
  H193     1.0000 0.54331  0.16315  0.19817  Biso   1.000  H
  C186     1.0000 0.61613  0.66757  0.23938  Biso   1.000  C
  C187     1.0000 0.05144  0.38385  0.23938  Biso   1.000  C
  C188     1.0000 0.40143  0.02804  0.24395  Biso   1.000  C
  H194     1.0000 0.38815  0.03709  0.29557  Biso   1.000  H
  H195     1.0000 0.43805  0.04107  0.19256  Biso   1.000  H
  N17      1.0000 0.63201  0.71734  0.26380  Biso   1.000  N
  H196     1.0000 0.59666  0.67447  0.21728  Biso   1.000  H
  N18      1.0000 0.08533  0.36796  0.26380  Biso   1.000  N
  H197     1.0000 0.07784  0.40336  0.21728  Biso   1.000  H
  C189     1.0000 0.33244  0.94854  0.23938  Biso   1.000  C
  C190     1.0000 0.62056  0.78359  0.25624  Biso   1.000  C
  C191     1.0000 0.16302  0.37947  0.25624  Biso   1.000  C
  N19      1.0000 0.28267  0.91465  0.26380  Biso   1.000  N
  H198     1.0000 0.32556  0.92213  0.21728  Biso   1.000  H
  C192     1.0000 0.69693  0.86034  0.25680  Biso   1.000  C
  H199     1.0000 0.58462  0.78516  0.27428  Biso   1.000  H
  H200     1.0000 0.59584  0.77634  0.23246  Biso   1.000  H
  C193     1.0000 0.16342  0.30306  0.25680  Biso   1.000  C
  H201     1.0000 0.20056  0.41539  0.27428  Biso   1.000  H
  H202     1.0000 0.18054  0.40418  0.23246  Biso   1.000  H
  C194     1.0000 0.21640  0.83696  0.25624  Biso   1.000  C
  N20      1.0000 0.74174  0.87407  0.22428  Biso   1.000  N
  H203     1.0000 0.68591  0.90357  0.26027  Biso   1.000  H
  H204     1.0000 0.72861  0.86046  0.27738  Biso   1.000  H
  N21      1.0000 0.13231  0.25826  0.22428  Biso   1.000  N
  H205     1.0000 0.21763  0.31404  0.26027  Biso   1.000  H
  H206     1.0000 0.13183  0.27134  0.27738  Biso   1.000  H
  C195     1.0000 0.13961  0.83655  0.25680  Biso   1.000  C
  H207     1.0000 0.21485  0.79946  0.27428  Biso   1.000  H
  H208     1.0000 0.22363  0.81944  0.23246  Biso   1.000  H
  C196     1.0000 0.70985  0.90328  0.19555  Biso   1.000  C
  C197     1.0000 0.82423  0.92816  0.23011  Biso   1.000  C
  C198     1.0000 0.10392  0.17577  0.23011  Biso   1.000  C
  C199     1.0000 0.19344  0.29015  0.19555  Biso   1.000  C
  N22      1.0000 0.12590  0.86763  0.22428  Biso   1.000  N
  H209     1.0000 0.09646  0.78234  0.26027  Biso   1.000  H
  H210     1.0000 0.13952  0.86816  0.27738  Biso   1.000  H
  C200     1.0000 0.73153  0.88564  0.15769  Biso   1.000  C
  H211     1.0000 0.73153  0.96029  0.19836  Biso   1.000  H
  H212     1.0000 0.65222  0.87746  0.19788  Biso   1.000  H
  C201     1.0000 0.86801  0.88815  0.24403  Biso   1.000  C
  H213     1.0000 0.83001  0.96847  0.24747  Biso   1.000  H
  H214     1.0000 0.84825  0.95486  0.20736  Biso   1.000  H
  C202     1.0000 0.02015  0.13196  0.24403  Biso   1.000  C
  H215     1.0000 0.13847  0.16999  0.24747  Biso   1.000  H
  H216     1.0000 0.10664  0.15176  0.20736  Biso   1.000  H
  C203     1.0000 0.15412  0.26848  0.15769  Biso   1.000  C
  H217     1.0000 0.22874  0.26848  0.19836  Biso   1.000  H
  H218     1.0000 0.22522  0.34775  0.19788  Biso   1.000  H
  C204     1.0000 0.07183  0.89608  0.23011  Biso   1.000  C
  C205     1.0000 0.09672  0.80653  0.19555  Biso   1.000  C
  N23      1.0000 0.67515  0.80637  0.14703  Biso   1.000  N
  H219     1.0000 0.73174  0.92308  0.14008  Biso   1.000  H
  H220     1.0000 0.78453  0.89218  0.15836  Biso   1.000  H
  N24      1.0000 0.88263  0.84837  0.21509  Biso   1.000  N
  H221     1.0000 0.91823  0.92758  0.25466  Biso   1.000  H
  H222     1.0000 0.83673  0.85006  0.26287  Biso   1.000  H
  N25      1.0000 0.96575  0.11736  0.21509  Biso   1.000  N
  H223     1.0000 0.00932  0.08178  0.25466  Biso   1.000  H
  H224     1.0000 0.01334  0.16327  0.26287  Biso   1.000  H
  N26      1.0000 0.13121  0.32485  0.14703  Biso   1.000  N
  H225     1.0000 0.19134  0.26824  0.14008  Biso   1.000  H
  H226     1.0000 0.10765  0.21550  0.15836  Biso   1.000  H
  C206     1.0000 0.11179  0.97985  0.24403  Biso   1.000  C
  H227     1.0000 0.03155  0.86156  0.24747  Biso   1.000  H
  H228     1.0000 0.04511  0.89333  0.20736  Biso   1.000  H
  C207     1.0000 0.11435  0.84584  0.15769  Biso   1.000  C
  H229     1.0000 0.03972  0.77124  0.19836  Biso   1.000  H
  H230     1.0000 0.12256  0.77475  0.19788  Biso   1.000  H
  C208     1.0000 0.70040  0.76104  0.14139  Biso   1.000  C
  C209     1.0000 0.84643  0.77366  0.21560  Biso   1.000  C
  C210     1.0000 0.92725  0.15357  0.21560  Biso   1.000  C
  C211     1.0000 0.06064  0.29956  0.14139  Biso   1.000  C
  N27      1.0000 0.15166  0.03429  0.21509  Biso   1.000  N
  H231     1.0000 0.07242  0.99065  0.25466  Biso   1.000  H
  H232     1.0000 0.14989  0.98662  0.26287  Biso   1.000  H
  N28      1.0000 0.19364  0.86874  0.14703  Biso   1.000  N
  H233     1.0000 0.07693  0.80863  0.14008  Biso   1.000  H
  H234     1.0000 0.10785  0.89234  0.15836  Biso   1.000  H
  C212     1.0000 0.64993  0.67984  0.12813  Biso   1.000  C
  H235     1.0000 0.75413  0.77897  0.14566  Biso   1.000  H
  C213     1.0000 0.85653  0.72576  0.18748  Biso   1.000  C
  H236     1.0000 0.81143  0.74737  0.23475  Biso   1.000  H
  C214     1.0000 0.86923  0.14347  0.18748  Biso   1.000  C
  H237     1.0000 0.93594  0.18857  0.23475  Biso   1.000  H
  C215     1.0000 0.02995  0.35008  0.12813  Biso   1.000  C
  H238     1.0000 0.02484  0.24587  0.14566  Biso   1.000  H
  C216     1.0000 0.22636  0.07279  0.21560  Biso   1.000  C
  C217     1.0000 0.23892  0.93936  0.14139  Biso   1.000  C
  C218     1.0000 0.67902  0.62995  0.12648  Biso   1.000  C
  C219     1.0000 0.57390  0.65425  0.11779  Biso   1.000  C
  C220     1.0000 0.82283  0.64906  0.19090  Biso   1.000  C
  C221     1.0000 0.90503  0.76215  0.15788  Biso   1.000  C
  C222     1.0000 0.82623  0.17717  0.19090  Biso   1.000  C
  C223     1.0000 0.85712  0.09498  0.15788  Biso   1.000  C
  C224     1.0000 0.95096  0.32099  0.12648  Biso   1.000  C
  C225     1.0000 0.08035  0.42608  0.11779  Biso   1.000  C
  C226     1.0000 0.27423  0.13079  0.18748  Biso   1.000  C
  H239     1.0000 0.25266  0.06408  0.23475  Biso   1.000  H
  C227     1.0000 0.32007  0.97003  0.12813  Biso   1.000  C
  H240     1.0000 0.22101  0.97517  0.14566  Biso   1.000  H
  C228     1.0000 0.63192  0.55296  0.11579  Biso   1.000  C
  H241     1.0000 0.73204  0.64818  0.13268  Biso   1.000  H
  C229     1.0000 0.52693  0.57458  0.10651  Biso   1.000  C
  H242     1.0000 0.55331  0.68854  0.11817  Biso   1.000  H
  C230     1.0000 0.83157  0.60308  0.16659  Biso   1.000  C
  H243     1.0000 0.79110  0.62505  0.21127  Biso   1.000  H
  H244     1.0000 0.93050  0.81735  0.15526  Biso   1.000  H
  C231     1.0000 0.91522  0.71758  0.13300  Biso   1.000  C
  C232     1.0000 0.77154  0.16847  0.16659  Biso   1.000  C
  H245     1.0000 0.83395  0.20889  0.21127  Biso   1.000  H
  C233     1.0000 0.80233  0.08476  0.13300  Biso   1.000  C
  H246     1.0000 0.88680  0.06946  0.15526  Biso   1.000  H
  C234     1.0000 0.92102  0.36808  0.11579  Biso   1.000  C
  H247     1.0000 0.91614  0.26795  0.13268  Biso   1.000  H
  C235     1.0000 0.04762  0.47305  0.10651  Biso   1.000  C
  H248     1.0000 0.13525  0.44665  0.11817  Biso   1.000  H
  C236     1.0000 0.35092  0.17379  0.19090  Biso   1.000  C
  C237     1.0000 0.23783  0.14288  0.15788  Biso   1.000  C
  C238     1.0000 0.37001  0.04907  0.12648  Biso   1.000  C
  C239     1.0000 0.34573  0.91968  0.11779  Biso   1.000  C
  C240     1.0000 0.55711  0.52405  0.10571  Biso   1.000  C
  H249     1.0000 0.65342  0.51937  0.11557  Biso   1.000  H
  H250     1.0000 0.47443  0.55588  0.09946  Biso   1.000  H
  C241     1.0000 0.87972  0.63626  0.13594  Biso   1.000  C
  H251     1.0000 0.80511  0.54805  0.17006  Biso   1.000  H
  H252     1.0000 0.94776  0.74270  0.11295  Biso   1.000  H
  C242     1.0000 0.75655  0.12028  0.13594  Biso   1.000  C
  H253     1.0000 0.74296  0.19487  0.17006  Biso   1.000  H
  H254     1.0000 0.79495  0.05228  0.11295  Biso   1.000  H
  C243     1.0000 0.96691  0.44285  0.10571  Biso   1.000  C
  H255     1.0000 0.86596  0.34658  0.11557  Biso   1.000  H
  H256     1.0000 0.08142  0.52556  0.09946  Biso   1.000  H
  C244     1.0000 0.39693  0.22846  0.16659  Biso   1.000  C
  H257     1.0000 0.37494  0.16608  0.21127  Biso   1.000  H
  H258     1.0000 0.18264  0.11315  0.15526  Biso   1.000  H
  C245     1.0000 0.28243  0.19768  0.13300  Biso   1.000  C
  C246     1.0000 0.44704  0.07898  0.11579  Biso   1.000  C
  H259     1.0000 0.35185  0.08388  0.13268  Biso   1.000  H
  H260     1.0000 0.31140  0.86477  0.11817  Biso   1.000  H
  C247     1.0000 0.42540  0.95233  0.10651  Biso   1.000  C
  C248     1.0000 0.50582  0.43999  0.09412  Biso   1.000  C
  C249     1.0000 0.88964  0.58678  0.10798  Biso   1.000  C
  C250     1.0000 0.69710  0.11035  0.10798  Biso   1.000  C
  C251     1.0000 0.93415  0.49420  0.09412  Biso   1.000  C
  C252     1.0000 0.36376  0.24348  0.13594  Biso   1.000  C
  H261     1.0000 0.45196  0.25709  0.17006  Biso   1.000  H
  H262     1.0000 0.25732  0.20504  0.11295  Biso   1.000  H
  C253     1.0000 0.47593  0.03306  0.10571  Biso   1.000  C
  H263     1.0000 0.48065  0.13406  0.11557  Biso   1.000  H
  H264     1.0000 0.44418  0.91857  0.09946  Biso   1.000  H
  C254     1.0000 0.45435  0.38268  0.11846  Biso   1.000  C
  C255     1.0000 0.51526  0.41779  0.05948  Biso   1.000  C
  C256     1.0000 0.86004  0.57989  0.07437  Biso   1.000  C
  C257     1.0000 0.92832  0.54566  0.11846  Biso   1.000  C
  C258     1.0000 0.61736  0.07168  0.11846  Biso   1.000  C
  C259     1.0000 0.71985  0.13996  0.07437  Biso   1.000  C
  C260     1.0000 0.90254  0.48479  0.05948  Biso   1.000  C
  C261     1.0000 0.41324  0.30288  0.10798  Biso   1.000  C
  C262     1.0000 0.56004  0.06589  0.09412  Biso   1.000  C
  C263     1.0000 0.44226  0.40827  0.15590  Biso   1.000  C
  C264     1.0000 0.47222  0.33817  0.04922  Biso   1.000  C
  C265     1.0000 0.57053  0.48047  0.03410  Biso   1.000  C
  C266     1.0000 0.86596  0.52778  0.04922  Biso   1.000  C
  C267     1.0000 0.82154  0.62604  0.06167  Biso   1.000  C
  C268     1.0000 0.96603  0.55775  0.15590  Biso   1.000  C
  C269     1.0000 0.59172  0.03394  0.15590  Biso   1.000  C
  C270     1.0000 0.66181  0.13406  0.04922  Biso   1.000  C
  C271     1.0000 0.80451  0.17846  0.06167  Biso   1.000  C
  C272     1.0000 0.90993  0.42947  0.03410  Biso   1.000  C
  C273     1.0000 0.42014  0.28016  0.07437  Biso   1.000  C
  C274     1.0000 0.58226  0.09750  0.05948  Biso   1.000  C
  H265     1.0000 0.43354  0.36755  0.17367  Biso   1.000  H
  H266     1.0000 0.48973  0.45728  0.16298  Biso   1.000  H
  C275     1.0000 0.37312  0.42094  0.15566  Biso   1.000  C
  C276     1.0000 0.48711  0.31474  0.01387  Biso   1.000  C
  H267     1.0000 0.58672  0.45628  0.01526  Biso   1.000  H
  H268     1.0000 0.61790  0.51815  0.04738  Biso   1.000  H
  C277     1.0000 0.53384  0.52475  0.01633  Biso   1.000  C
  C278     1.0000 0.82765  0.51289  0.01387  Biso   1.000  C
  C279     1.0000 0.87064  0.69368  0.03856  Biso   1.000  C
  H269     1.0000 0.77337  0.59029  0.04847  Biso   1.000  H
  H270     1.0000 0.80591  0.64485  0.08287  Biso   1.000  H
  H271     1.0000 0.93401  0.56646  0.17367  Biso   1.000  H
  H272     1.0000 0.96753  0.51026  0.16298  Biso   1.000  H
  C280     1.0000 0.04783  0.62686  0.15566  Biso   1.000  C
  H273     1.0000 0.63241  0.06595  0.17367  Biso   1.000  H
  H274     1.0000 0.54272  0.03248  0.16298  Biso   1.000  H
  C281     1.0000 0.57900  0.95216  0.15566  Biso   1.000  C
  C282     1.0000 0.68522  0.17238  0.01387  Biso   1.000  C
  C283     1.0000 0.82303  0.12939  0.03856  Biso   1.000  C
  H275     1.0000 0.81692  0.22665  0.04847  Biso   1.000  H
  H276     1.0000 0.83892  0.19406  0.08287  Biso   1.000  H
  H277     1.0000 0.86957  0.41329  0.01526  Biso   1.000  H
  H278     1.0000 0.90023  0.38204  0.04738  Biso   1.000  H
  C284     1.0000 0.99091  0.46616  0.01633  Biso   1.000  C
  C285     1.0000 0.37395  0.19546  0.06167  Biso   1.000  C
  C286     1.0000 0.51952  0.09008  0.03410  Biso   1.000  C
  H279     1.0000 0.32590  0.37205  0.14927  Biso   1.000  H
  H280     1.0000 0.38195  0.46148  0.13826  Biso   1.000  H
  H281     1.0000 0.36656  0.43747  0.17957  Biso   1.000  H
  C287     1.0000 0.53471  0.28174  0.01023  Biso   1.000  C
  C288     1.0000 0.45186  0.32508  0.98287  Biso   1.000  C
  H282     1.0000 0.49170  0.48935  0.00027  Biso   1.000  H
  H283     1.0000 0.57385  0.56885  0.00257  Biso   1.000  H
  H284     1.0000 0.51272  0.54414  0.03477  Biso   1.000  H
  C289     1.0000 0.74703  0.46528  0.01023  Biso   1.000  C
  C290     1.0000 0.87322  0.54817  0.98287  Biso   1.000  C
  H285     1.0000 0.84356  0.72289  0.03386  Biso   1.000  H
  H286     1.0000 0.88062  0.67528  0.01598  Biso   1.000  H
  H287     1.0000 0.92032  0.72768  0.05067  Biso   1.000  H
  H288     1.0000 0.04614  0.67406  0.14927  Biso   1.000  H
  H289     1.0000 0.07952  0.61810  0.13826  Biso   1.000  H
  H290     1.0000 0.07092  0.63346  0.17957  Biso   1.000  H
  H291     1.0000 0.62791  0.95385  0.14927  Biso   1.000  H
  H292     1.0000 0.53851  0.92044  0.13826  Biso   1.000  H
  H293     1.0000 0.56248  0.92903  0.17957  Biso   1.000  H
  C291     1.0000 0.71821  0.25294  0.01023  Biso   1.000  C
  C292     1.0000 0.67496  0.12676  0.98287  Biso   1.000  C
  H294     1.0000 0.87933  0.15650  0.03386  Biso   1.000  H
  H295     1.0000 0.79463  0.11934  0.01598  Biso   1.000  H
  H296     1.0000 0.80733  0.07968  0.05067  Biso   1.000  H
  H297     1.0000 0.99765  0.50827  0.00027  Biso   1.000  H
  H298     1.0000 0.99503  0.42614  0.00257  Biso   1.000  H
  H299     1.0000 0.03140  0.48724  0.03477  Biso   1.000  H
  C293     1.0000 0.30631  0.17694  0.03856  Biso   1.000  C
  H300     1.0000 0.40974  0.18307  0.04847  Biso   1.000  H
  H301     1.0000 0.35512  0.16105  0.08287  Biso   1.000  H
  H302     1.0000 0.54375  0.13044  0.01526  Biso   1.000  H
  H303     1.0000 0.48182  0.09977  0.04738  Biso   1.000  H
  C294     1.0000 0.47521  0.00905  0.01633  Biso   1.000  C
  H304     1.0000 0.55926  0.27449  0.03057  Biso   1.000  H
  C295     1.0000 0.54561  0.25954  0.97651  Biso   1.000  C
  C296     1.0000 0.46483  0.30195  0.94939  Biso   1.000  C
  H305     1.0000 0.41935  0.34769  0.98488  Biso   1.000  H
  C297     1.0000 0.71395  0.45436  0.97651  Biso   1.000  C
  H306     1.0000 0.71524  0.44075  0.03057  Biso   1.000  H
  C298     1.0000 0.83711  0.53515  0.94939  Biso   1.000  C
  H307     1.0000 0.92831  0.58065  0.98488  Biso   1.000  H
  H308     1.0000 0.72553  0.28478  0.03057  Biso   1.000  H
  C299     1.0000 0.74044  0.28606  0.97651  Biso   1.000  C
  C300     1.0000 0.69801  0.16286  0.94939  Biso   1.000  C
  H309     1.0000 0.65232  0.07168  0.98488  Biso   1.000  H
  H310     1.0000 0.27712  0.12069  0.03386  Biso   1.000  H
  H311     1.0000 0.32473  0.20539  0.01598  Biso   1.000  H
  H312     1.0000 0.27233  0.19265  0.05067  Biso   1.000  H
  H313     1.0000 0.51063  0.00240  0.00027  Biso   1.000  H
  H314     1.0000 0.43113  0.00497  0.00257  Biso   1.000  H
  H315     1.0000 0.45588  0.96857  0.03477  Biso   1.000  H
  H316     1.0000 0.57613  0.23477  0.97467  Biso   1.000  H
  C301     1.0000 0.51532  0.27099  0.94591  Biso   1.000  C
  H317     1.0000 0.43953  0.30709  0.92887  Biso   1.000  H
  C302     1.0000 0.75562  0.48467  0.94591  Biso   1.000  C
  H318     1.0000 0.65864  0.42386  0.97467  Biso   1.000  H
  H319     1.0000 0.86751  0.56044  0.92887  Biso   1.000  H
  C303     1.0000 0.72905  0.24435  0.94591  Biso   1.000  C
  H320     1.0000 0.76522  0.34138  0.97467  Biso   1.000  H
  H321     1.0000 0.69294  0.13249  0.92887  Biso   1.000  H
  C304     1.0000 0.53123  0.24978  0.91152  Biso   1.000  C
  C305     1.0000 0.71853  0.46878  0.91152  Biso   1.000  C
  C306     1.0000 0.75022  0.28145  0.91152  Biso   1.000  C
  N29      1.0000 0.51023  0.26567  0.88167  Biso   1.000  N
  H322     1.0000 0.55915  0.22215  0.91077  Biso   1.000  H
  N30      1.0000 0.75543  0.48976  0.88167  Biso   1.000  N
  H323     1.0000 0.66304  0.44086  0.91077  Biso   1.000  H
  N31      1.0000 0.73432  0.24459  0.88167  Biso   1.000  N
  H324     1.0000 0.77782  0.33694  0.91077  Biso   1.000  H
  C307     1.0000 0.52815  0.23705  0.84808  Biso   1.000  C
  C308     1.0000 0.70895  0.47188  0.84808  Biso   1.000  C
  C309     1.0000 0.76294  0.29108  0.84808  Biso   1.000  C
  H325     1.0000 0.54935  0.20247  0.85407  Biso   1.000  H
  H326     1.0000 0.47943  0.20609  0.83427  Biso   1.000  H
  C310     1.0000 0.58596  0.30329  0.82580  Biso   1.000  C
  C311     1.0000 0.71732  0.41405  0.82580  Biso   1.000  C
  H327     1.0000 0.65312  0.45068  0.85407  Biso   1.000  H
  H328     1.0000 0.72660  0.52054  0.83427  Biso   1.000  H
  C312     1.0000 0.69676  0.28267  0.82580  Biso   1.000  C
  H329     1.0000 0.79756  0.34687  0.85407  Biso   1.000  H
  H330     1.0000 0.79395  0.27338  0.83427  Biso   1.000  H
  N32      1.0000 0.66666  0.33338  0.83908  Biso   1.000  N
  H331     1.0000 0.58237  0.28559  0.80076  Biso   1.000  H
  H332     1.0000 0.57335  0.34588  0.82617  Biso   1.000  H
  H333     1.0000 0.70325  0.41767  0.80076  Biso   1.000  H
  H334     1.0000 0.77255  0.42667  0.82617  Biso   1.000  H
  H335     1.0000 0.71442  0.29675  0.80076  Biso   1.000  H
  H336     1.0000 0.65413  0.22747  0.82617  Biso   1.000  H
  C313     1.0000 0.04227  0.13856  0.51475  Biso   1.000  C
  C314     1.0000 0.05069  0.08073  0.49246  Biso   1.000  C
  H337     1.0000 0.98649  0.11736  0.52074  Biso   1.000  H
  N33      1.0000 0.08879  0.15644  0.54834  Biso   1.000  N
  H338     1.0000 0.05997  0.18722  0.50094  Biso   1.000  H
  N34      1.0000 0.99998  0.00006  0.50575  Biso   1.000  N
  H339     1.0000 0.03656  0.08435  0.46743  Biso   1.000  H
  H340     1.0000 0.10586  0.09335  0.49284  Biso   1.000  H
  C315     1.0000 0.05187  0.13541  0.57819  Biso   1.000  C
  C316     1.0000 0.91924  0.96992  0.49246  Biso   1.000  C
  C317     1.0000 0.03009  0.94930  0.49246  Biso   1.000  C
  H341     1.0000 0.99635  0.10754  0.57744  Biso   1.000  H
  C318     1.0000 0.08898  0.15135  0.61258  Biso   1.000  C
  H342     1.0000 0.90667  0.01256  0.49284  Biso   1.000  H
  C319     1.0000 0.86146  0.90373  0.51475  Biso   1.000  C
  H343     1.0000 0.91570  0.95222  0.46743  Biso   1.000  H
  H344     1.0000 0.98747  0.89409  0.49284  Biso   1.000  H
  C320     1.0000 0.09622  0.95771  0.51475  Biso   1.000  C
  H345     1.0000 0.04779  0.96343  0.46743  Biso   1.000  H
  C321     1.0000 0.04726  0.12104  0.64318  Biso   1.000  C
  C322     1.0000 0.17047  0.20183  0.61605  Biso   1.000  C
  N35      1.0000 0.84352  0.93230  0.54834  Biso   1.000  N
  H346     1.0000 0.88264  0.86909  0.52074  Biso   1.000  H
  H347     1.0000 0.81272  0.87271  0.50094  Biso   1.000  H
  N36      1.0000 0.06766  0.91121  0.54834  Biso   1.000  N
  H348     1.0000 0.12724  0.94001  0.50094  Biso   1.000  H
  H349     1.0000 0.13087  0.01355  0.52074  Biso   1.000  H
  H350     1.0000 0.99195  0.09054  0.64133  Biso   1.000  H
  C323     1.0000 0.08040  0.13196  0.67690  Biso   1.000  C
  H351     1.0000 0.20088  0.22712  0.59553  Biso   1.000  H
  C324     1.0000 0.20658  0.21485  0.64954  Biso   1.000  C
  C325     1.0000 0.86456  0.91641  0.57819  Biso   1.000  C
  C326     1.0000 0.08354  0.94813  0.57819  Biso   1.000  C
  C327     1.0000 0.16093  0.17951  0.68054  Biso   1.000  C
  H352     1.0000 0.04855  0.10743  0.69724  Biso   1.000  H
  H353     1.0000 0.26167  0.24733  0.65154  Biso   1.000  H
  C328     1.0000 0.84866  0.93761  0.61258  Biso   1.000  C
  H354     1.0000 0.89251  0.88884  0.57744  Biso   1.000  H
  C329     1.0000 0.06241  0.91103  0.61258  Biso   1.000  C
  H355     1.0000 0.11119  0.00362  0.57744  Biso   1.000  H
  C330     1.0000 0.19924  0.19441  0.71589  Biso   1.000  C
  C331     1.0000 0.87898  0.92622  0.64318  Biso   1.000  C
  C332     1.0000 0.79815  0.96863  0.61605  Biso   1.000  C
  C333     1.0000 0.07376  0.95274  0.64318  Biso   1.000  C
  C334     1.0000 0.03138  0.82954  0.61605  Biso   1.000  C
  C335     1.0000 0.23587  0.15141  0.72615  Biso   1.000  C
  C336     1.0000 0.19337  0.24651  0.74103  Biso   1.000  C
  C337     1.0000 0.86807  0.94842  0.67690  Biso   1.000  C
  H356     1.0000 0.90942  0.90139  0.64133  Biso   1.000  H
  H357     1.0000 0.77286  0.97371  0.59553  Biso   1.000  H
  C338     1.0000 0.78515  0.99170  0.64954  Biso   1.000  C
  C339     1.0000 0.05158  0.91962  0.67690  Biso   1.000  C
  H358     1.0000 0.09858  0.00806  0.64133  Biso   1.000  H
  H359     1.0000 0.02623  0.79911  0.59553  Biso   1.000  H
  C340     1.0000 0.00832  0.79344  0.64954  Biso   1.000  C
  C341     1.0000 0.26744  0.16082  0.76078  Biso   1.000  C
  C342     1.0000 0.24330  0.09615  0.70076  Biso   1.000  C
  C343     1.0000 0.22297  0.25341  0.77465  Biso   1.000  C
  C344     1.0000 0.15486  0.29272  0.72834  Biso   1.000  C
  C345     1.0000 0.82043  0.98142  0.68054  Biso   1.000  C
  H360     1.0000 0.89260  0.94112  0.69724  Biso   1.000  H
  H361     1.0000 0.75264  0.01431  0.65154  Biso   1.000  H
  C346     1.0000 0.01851  0.83901  0.68054  Biso   1.000  C
  H362     1.0000 0.05882  0.95140  0.69724  Biso   1.000  H
  H363     1.0000 0.98566  0.73830  0.65154  Biso   1.000  H
  C347     1.0000 0.26168  0.21234  0.78513  Biso   1.000  C
  C348     1.0000 0.30027  0.10953  0.77238  Biso   1.000  C
  H364     1.0000 0.20285  0.07991  0.68193  Biso   1.000  H
  H365     1.0000 0.23355  0.04872  0.71405  Biso   1.000  H
  C349     1.0000 0.32427  0.13284  0.68299  Biso   1.000  C
  C350     1.0000 0.21309  0.30294  0.80260  Biso   1.000  C
  C351     1.0000 0.20393  0.36031  0.70523  Biso   1.000  C
  H366     1.0000 0.10665  0.25691  0.71514  Biso   1.000  H
  H367     1.0000 0.13927  0.31153  0.74953  Biso   1.000  H
  C352     1.0000 0.80558  0.00485  0.71589  Biso   1.000  C
  C353     1.0000 0.99513  0.80074  0.71589  Biso   1.000  C
  C354     1.0000 0.29935  0.22443  0.82256  Biso   1.000  C
  C355     1.0000 0.25439  0.03476  0.78245  Biso   1.000  C
  C356     1.0000 0.38099  0.13973  0.77318  Biso   1.000  C
  H368     1.0000 0.33096  0.17495  0.66693  Biso   1.000  H
  H369     1.0000 0.32835  0.09282  0.66923  Biso   1.000  H
  H370     1.0000 0.36477  0.15393  0.70143  Biso   1.000  H
  C357     1.0000 0.16485  0.26970  0.83325  Biso   1.000  C
  C358     1.0000 0.24859  0.38426  0.79966  Biso   1.000  C
  H371     1.0000 0.17685  0.38952  0.70052  Biso   1.000  H
  H372     1.0000 0.21395  0.34191  0.68265  Biso   1.000  H
  H373     1.0000 0.25366  0.39431  0.71733  Biso   1.000  H
  C359     1.0000 0.84855  0.08441  0.72615  Biso   1.000  C
  C360     1.0000 0.75346  0.94684  0.74103  Biso   1.000  C
  C361     1.0000 0.91560  0.76412  0.72615  Biso   1.000  C
  C362     1.0000 0.05322  0.80664  0.74103  Biso   1.000  C
  H374     1.0000 0.26738  0.23314  0.84033  Biso   1.000  H
  H375     1.0000 0.30090  0.17694  0.82965  Biso   1.000  H
  C363     1.0000 0.38115  0.29354  0.82232  Biso   1.000  C
  C364     1.0000 0.28429  0.98762  0.79314  Biso   1.000  C
  H376     1.0000 0.19927  0.01326  0.78224  Biso   1.000  H
  C365     1.0000 0.41363  0.09271  0.78446  Biso   1.000  C
  H377     1.0000 0.41479  0.19225  0.76613  Biso   1.000  H
  H378     1.0000 0.13848  0.21474  0.83673  Biso   1.000  H
  C366     1.0000 0.15615  0.31574  0.85757  Biso   1.000  C
  C367     1.0000 0.23834  0.42883  0.82454  Biso   1.000  C
  H379     1.0000 0.28105  0.40932  0.77962  Biso   1.000  H
  C368     1.0000 0.83916  0.10661  0.76078  Biso   1.000  C
  C369     1.0000 0.90390  0.14715  0.70076  Biso   1.000  C
  C370     1.0000 0.74658  0.96951  0.77465  Biso   1.000  C
  C371     1.0000 0.70731  0.86214  0.72834  Biso   1.000  C
  C372     1.0000 0.89332  0.73252  0.76078  Biso   1.000  C
  C373     1.0000 0.85280  0.75670  0.70076  Biso   1.000  C
  C374     1.0000 0.03047  0.77703  0.77465  Biso   1.000  C
  C375     1.0000 0.13788  0.84514  0.72834  Biso   1.000  C
  H380     1.0000 0.37945  0.34074  0.81594  Biso   1.000  H
  H381     1.0000 0.41286  0.28472  0.80493  Biso   1.000  H
  H382     1.0000 0.40428  0.30014  0.84624  Biso   1.000  H
  H383     1.0000 0.24950  0.93463  0.79934  Biso   1.000  H
  C376     1.0000 0.36324  0.01671  0.79480  Biso   1.000  C
  H384     1.0000 0.46856  0.11333  0.78483  Biso   1.000  H
  H385     1.0000 0.12446  0.29173  0.87793  Biso   1.000  H
  C377     1.0000 0.18984  0.39244  0.85415  Biso   1.000  C
  H386     1.0000 0.26387  0.48403  0.82192  Biso   1.000  H
  C378     1.0000 0.78767  0.04936  0.78513  Biso   1.000  C
  C379     1.0000 0.89048  0.19073  0.77238  Biso   1.000  C
  H387     1.0000 0.92006  0.12291  0.68193  Biso   1.000  H
  H388     1.0000 0.95127  0.18483  0.71405  Biso   1.000  H
  C380     1.0000 0.86715  0.19143  0.68299  Biso   1.000  C
  C381     1.0000 0.69709  0.91010  0.80260  Biso   1.000  C
  C382     1.0000 0.63967  0.84362  0.70523  Biso   1.000  C
  H389     1.0000 0.74308  0.84970  0.71514  Biso   1.000  H
  H390     1.0000 0.68849  0.82773  0.74953  Biso   1.000  H
  C383     1.0000 0.95065  0.73830  0.78513  Biso   1.000  C
  C384     1.0000 0.80930  0.69974  0.77238  Biso   1.000  C
  H391     1.0000 0.87711  0.79712  0.68193  Biso   1.000  H
  H392     1.0000 0.81516  0.76640  0.71405  Biso   1.000  H
  C385     1.0000 0.80858  0.67574  0.68299  Biso   1.000  C
  C386     1.0000 0.08984  0.78690  0.80260  Biso   1.000  C
  C387     1.0000 0.15632  0.79601  0.70523  Biso   1.000  C
  H393     1.0000 0.15024  0.89333  0.71514  Biso   1.000  H
  H394     1.0000 0.17229  0.86074  0.74953  Biso   1.000  H
  C388     1.0000 0.39400  0.96624  0.80805  Biso   1.000  C
  C389     1.0000 0.17975  0.44034  0.88226  Biso   1.000  C
  C390     1.0000 0.77557  0.07495  0.82256  Biso   1.000  C
  C391     1.0000 0.96529  0.21964  0.78245  Biso   1.000  C
  C392     1.0000 0.86030  0.24126  0.77318  Biso   1.000  C
  H395     1.0000 0.82507  0.15603  0.66693  Biso   1.000  H
  H396     1.0000 0.90716  0.23553  0.66923  Biso   1.000  H
  H397     1.0000 0.84604  0.21082  0.70143  Biso   1.000  H
  C393     1.0000 0.73029  0.89514  0.83325  Biso   1.000  C
  C394     1.0000 0.61571  0.86430  0.79966  Biso   1.000  C
  H398     1.0000 0.61040  0.78731  0.70052  Biso   1.000  H
  H399     1.0000 0.65807  0.87201  0.68265  Biso   1.000  H
  H400     1.0000 0.60569  0.85934  0.71733  Biso   1.000  H
  C395     1.0000 0.92503  0.70062  0.82256  Biso   1.000  C
  C396     1.0000 0.78032  0.74560  0.78245  Biso   1.000  C
  C397     1.0000 0.75877  0.61901  0.77318  Biso   1.000  C
  H401     1.0000 0.84392  0.66902  0.66693  Biso   1.000  H
  H402     1.0000 0.76449  0.67165  0.66923  Biso   1.000  H
  H403     1.0000 0.78912  0.63519  0.70143  Biso   1.000  H
  C398     1.0000 0.10488  0.83509  0.83325  Biso   1.000  C
  C399     1.0000 0.13565  0.75144  0.79966  Biso   1.000  C
  H404     1.0000 0.21262  0.82312  0.70052  Biso   1.000  H
  H405     1.0000 0.12800  0.78602  0.68265  Biso   1.000  H
  H406     1.0000 0.14067  0.74630  0.71733  Biso   1.000  H
  N37      1.0000 0.46458  0.99153  0.81369  Biso   1.000  N
  H407     1.0000 0.35818  0.91249  0.81233  Biso   1.000  H
  N38      1.0000 0.21599  0.51505  0.88175  Biso   1.000  N
  H408     1.0000 0.14480  0.41405  0.90142  Biso   1.000  H
  H409     1.0000 0.76685  0.03423  0.84033  Biso   1.000  H
  H410     1.0000 0.82310  0.12396  0.82965  Biso   1.000  H
  C400     1.0000 0.70648  0.08762  0.82232  Biso   1.000  C
  H411     1.0000 0.98679  0.18605  0.78224  Biso   1.000  H
  C401     1.0000 0.01238  0.29663  0.79314  Biso   1.000  C
  C402     1.0000 0.90727  0.32094  0.78446  Biso   1.000  C
  H412     1.0000 0.80777  0.22250  0.76613  Biso   1.000  H
  H413     1.0000 0.78525  0.92371  0.83673  Biso   1.000  H
  C403     1.0000 0.68420  0.84041  0.85757  Biso   1.000  C
  C404     1.0000 0.57112  0.80951  0.82454  Biso   1.000  C
  H414     1.0000 0.59069  0.87172  0.77962  Biso   1.000  H
  H415     1.0000 0.96577  0.73263  0.84033  Biso   1.000  H
  H416     1.0000 0.87606  0.69910  0.82965  Biso   1.000  H
  C405     1.0000 0.91237  0.61884  0.82232  Biso   1.000  C
  H417     1.0000 0.81397  0.80074  0.78224  Biso   1.000  H
  C406     1.0000 0.70330  0.71569  0.79314  Biso   1.000  C
  C407     1.0000 0.67907  0.58630  0.78446  Biso   1.000  C
  H418     1.0000 0.77747  0.58519  0.76613  Biso   1.000  H
  H419     1.0000 0.07624  0.86150  0.83673  Biso   1.000  H
  C408     1.0000 0.15957  0.84380  0.85757  Biso   1.000  C
  C409     1.0000 0.19041  0.76161  0.82454  Biso   1.000  C
  H420     1.0000 0.12828  0.71890  0.77962  Biso   1.000  H
  C410     1.0000 0.48746  0.93510  0.82435  Biso   1.000  C
  C411     1.0000 0.20138  0.55483  0.91069  Biso   1.000  C
  H421     1.0000 0.65927  0.03873  0.81594  Biso   1.000  H
  H422     1.0000 0.71524  0.12811  0.80493  Biso   1.000  H
  H423     1.0000 0.69987  0.10415  0.84624  Biso   1.000  H
  C412     1.0000 0.98325  0.34652  0.79480  Biso   1.000  C
  H424     1.0000 0.06536  0.31486  0.79934  Biso   1.000  H
  H425     1.0000 0.88667  0.35523  0.78483  Biso   1.000  H
  H426     1.0000 0.70822  0.83270  0.87793  Biso   1.000  H
  C413     1.0000 0.60752  0.79741  0.85415  Biso   1.000  C
  H427     1.0000 0.51601  0.77983  0.82192  Biso   1.000  H
  H428     1.0000 0.96128  0.62053  0.81594  Biso   1.000  H
  H429     1.0000 0.87182  0.58712  0.80493  Biso   1.000  H
  H430     1.0000 0.89584  0.59571  0.84624  Biso   1.000  H
  H431     1.0000 0.68514  0.75051  0.79934  Biso   1.000  H
  C414     1.0000 0.65349  0.63671  0.79480  Biso   1.000  C
  H432     1.0000 0.64479  0.53139  0.78483  Biso   1.000  H
  H433     1.0000 0.16723  0.87552  0.87793  Biso   1.000  H
  C415     1.0000 0.20256  0.81009  0.85415  Biso   1.000  C
  H434     1.0000 0.22017  0.73614  0.82192  Biso   1.000  H
  H435     1.0000 0.52470  0.93493  0.80674  Biso   1.000  H
  H436     1.0000 0.44093  0.88212  0.82502  Biso   1.000  H
  C416     1.0000 0.52680  0.95683  0.86222  Biso   1.000  C
  H437     1.0000 0.25160  0.59426  0.92133  Biso   1.000  H
  H438     1.0000 0.17009  0.51674  0.92953  Biso   1.000  H
  C417     1.0000 0.15759  0.59485  0.89677  Biso   1.000  C
  C418     1.0000 0.03376  0.42772  0.80805  Biso   1.000  C
  C419     1.0000 0.55969  0.73941  0.88226  Biso   1.000  C
  C420     1.0000 0.57228  0.60605  0.80805  Biso   1.000  C
  C421     1.0000 0.26058  0.82020  0.88226  Biso   1.000  C
  N39      1.0000 0.46563  0.92494  0.89095  Biso   1.000  N
  H439     1.0000 0.56203  0.93510  0.86503  Biso   1.000  H
  H440     1.0000 0.55859  0.01443  0.86454  Biso   1.000  H
  N40      1.0000 0.07510  0.54075  0.89095  Biso   1.000  N
  H441     1.0000 0.16338  0.63515  0.91414  Biso   1.000  H
  H442     1.0000 0.18157  0.62154  0.87403  Biso   1.000  H
  N41      1.0000 0.00847  0.47305  0.81369  Biso   1.000  N
  H443     1.0000 0.08750  0.44565  0.81233  Biso   1.000  H
  N42      1.0000 0.48500  0.70091  0.88175  Biso   1.000  N
  H444     1.0000 0.58600  0.73070  0.90142  Biso   1.000  H
  N43      1.0000 0.52696  0.53542  0.81369  Biso   1.000  N
  H445     1.0000 0.55434  0.64180  0.81233  Biso   1.000  H
  N44      1.0000 0.29911  0.78404  0.88175  Biso   1.000  N
  H446     1.0000 0.26925  0.85525  0.90142  Biso   1.000  H
  C422     1.0000 0.43726  0.84239  0.89677  Biso   1.000  C
  C423     1.0000 0.49678  0.96974  0.92347  Biso   1.000  C
  C424     1.0000 0.04316  0.56996  0.86222  Biso   1.000  C
  C425     1.0000 0.03025  0.52703  0.92347  Biso   1.000  C
  C426     1.0000 0.06485  0.55232  0.82435  Biso   1.000  C
  C427     1.0000 0.44516  0.64653  0.91069  Biso   1.000  C
  C428     1.0000 0.44762  0.51252  0.82435  Biso   1.000  C
  C429     1.0000 0.35346  0.79864  0.91069  Biso   1.000  C
  H447     1.0000 0.47175  0.83661  0.91414  Biso   1.000  H
  H448     1.0000 0.44001  0.81844  0.87403  Biso   1.000  H
  H449     1.0000 0.55099  0.98072  0.92694  Biso   1.000  H
  H450     1.0000 0.46519  0.93802  0.94404  Biso   1.000  H
  C430     1.0000 0.49639  0.04615  0.92291  Biso   1.000  C
  H451     1.0000 0.98558  0.54414  0.86454  Biso   1.000  H
  H452     1.0000 0.06486  0.62692  0.86503  Biso   1.000  H
  C431     1.0000 0.95384  0.45021  0.92291  Biso   1.000  C
  H453     1.0000 0.01928  0.57025  0.92694  Biso   1.000  H
  H454     1.0000 0.06197  0.52714  0.94404  Biso   1.000  H
  H455     1.0000 0.06508  0.58971  0.80674  Biso   1.000  H
  H456     1.0000 0.11790  0.55886  0.82502  Biso   1.000  H
  H457     1.0000 0.40579  0.65733  0.92133  Biso   1.000  H
  H458     1.0000 0.48325  0.65330  0.92953  Biso   1.000  H
  C432     1.0000 0.40517  0.56270  0.89677  Biso   1.000  C
  H459     1.0000 0.41029  0.47531  0.80674  Biso   1.000  H
  H460     1.0000 0.44117  0.55902  0.82502  Biso   1.000  H
  C433     1.0000 0.43003  0.47321  0.86222  Biso   1.000  C
  H461     1.0000 0.34261  0.74840  0.92133  Biso   1.000  H
  H462     1.0000 0.34663  0.82989  0.92953  Biso   1.000  H
  N45      1.0000 0.41865  0.03464  0.93047  Biso   1.000  N
  H463     1.0000 0.53385  0.08202  0.94094  Biso   1.000  H
  H464     1.0000 0.51390  0.07086  0.89912  Biso   1.000  H
  N46      1.0000 0.96537  0.38402  0.93047  Biso   1.000  N
  H465     1.0000 0.91798  0.45184  0.94094  Biso   1.000  H
  H466     1.0000 0.92916  0.44302  0.89912  Biso   1.000  H
  N47      1.0000 0.45927  0.53431  0.89095  Biso   1.000  N
  H467     1.0000 0.36492  0.52824  0.91414  Biso   1.000  H
  H468     1.0000 0.37843  0.56001  0.87403  Biso   1.000  H
  H469     1.0000 0.37308  0.43793  0.86503  Biso   1.000  H
  H470     1.0000 0.45583  0.44143  0.86454  Biso   1.000  H
  C434     1.0000 0.38475  0.05053  0.90604  Biso   1.000  C
  C435     1.0000 0.94949  0.33425  0.90604  Biso   1.000  C
  C436     1.0000 0.47292  0.50323  0.92347  Biso   1.000  C
  H471     1.0000 0.41115  0.07004  0.88395  Biso   1.000  H
  C437     1.0000 0.30528  0.04001  0.91061  Biso   1.000  C
  H472     1.0000 0.92997  0.34115  0.88395  Biso   1.000  H
  C438     1.0000 0.95994  0.26521  0.91061  Biso   1.000  C
  H473     1.0000 0.42978  0.44902  0.92694  Biso   1.000  H
  H474     1.0000 0.47284  0.53484  0.94404  Biso   1.000  H
  C439     1.0000 0.54982  0.50364  0.92291  Biso   1.000  C
  C440     1.0000 0.26968  0.02214  0.94207  Biso   1.000  C
  C441     1.0000 0.26719  0.04983  0.88183  Biso   1.000  C
  C442     1.0000 0.97785  0.24751  0.94207  Biso   1.000  C
  C443     1.0000 0.95016  0.21731  0.88183  Biso   1.000  C
  N48      1.0000 0.61598  0.58134  0.93047  Biso   1.000  N
  H475     1.0000 0.54822  0.46614  0.94094  Biso   1.000  H
  H476     1.0000 0.55694  0.48612  0.89912  Biso   1.000  H
  H477     1.0000 0.29628  0.01776  0.96224  Biso   1.000  H
  C444     1.0000 0.19337  0.00935  0.94626  Biso   1.000  C
  H478     1.0000 0.29224  0.06361  0.85923  Biso   1.000  H
  C445     1.0000 0.19504  0.04031  0.88523  Biso   1.000  C
  H479     1.0000 0.98228  0.27853  0.96224  Biso   1.000  H
  C446     1.0000 0.99067  0.18401  0.94626  Biso   1.000  C
  H480     1.0000 0.93635  0.22864  0.85923  Biso   1.000  H
  C447     1.0000 0.95965  0.15474  0.88523  Biso   1.000  C
  C448     1.0000 0.66576  0.61522  0.90604  Biso   1.000  C
  H481     1.0000 0.16806  0.99252  0.96873  Biso   1.000  H
  C449     1.0000 0.15515  0.02062  0.91863  Biso   1.000  C
  H482     1.0000 0.17018  0.04685  0.86484  Biso   1.000  H
  C450     1.0000 0.97934  0.13453  0.91863  Biso   1.000  C
  H483     1.0000 0.00748  0.17554  0.96873  Biso   1.000  H
  H484     1.0000 0.95314  0.12332  0.86484  Biso   1.000  H
  H485     1.0000 0.65883  0.58881  0.88395  Biso   1.000  H
  C451     1.0000 0.73475  0.69472  0.91061  Biso   1.000  C
  C452     1.0000 0.07615  0.01005  0.92149  Biso   1.000  C
  C453     1.0000 0.98996  0.06613  0.92149  Biso   1.000  C
  C454     1.0000 0.75249  0.73030  0.94207  Biso   1.000  C
  C455     1.0000 0.78263  0.73281  0.88183  Biso   1.000  C
  C456     1.0000 0.06615  0.07553  0.92144  Biso   1.000  C
  C457     1.0000 0.00940  0.93382  0.92144  Biso   1.000  C
  C458     1.0000 0.92442  0.99060  0.92144  Biso   1.000  C
  H486     1.0000 0.72144  0.70372  0.96224  Biso   1.000  H
  C459     1.0000 0.81600  0.80664  0.94626  Biso   1.000  C
  H487     1.0000 0.77138  0.70769  0.85923  Biso   1.000  H
  C460     1.0000 0.84528  0.80489  0.88523  Biso   1.000  C
  C461     1.0000 0.13697  0.15626  0.92202  Biso   1.000  C
  C462     1.0000 0.93384  0.92383  0.92149  Biso   1.000  C
  C463     1.0000 0.01928  0.86302  0.92202  Biso   1.000  C
  C464     1.0000 0.84375  0.98072  0.92202  Biso   1.000  C
  C465     1.0000 0.86548  0.84479  0.91863  Biso   1.000  C
  H488     1.0000 0.82450  0.83194  0.96873  Biso   1.000  H
  H489     1.0000 0.87667  0.82984  0.86484  Biso   1.000  H
  H490     1.0000 0.12145  0.19423  0.91403  Biso   1.000  H
  H491     1.0000 0.17594  0.15813  0.90492  Biso   1.000  H
  C466     1.0000 0.17575  0.18132  0.95994  Biso   1.000  C
  H492     1.0000 0.98216  0.82399  0.90492  Biso   1.000  H
  H493     1.0000 0.07270  0.87850  0.91403  Biso   1.000  H
  C467     1.0000 0.00555  0.82423  0.95994  Biso   1.000  C
  H494     1.0000 0.84186  0.01782  0.90492  Biso   1.000  H
  H495     1.0000 0.80572  0.92721  0.91403  Biso   1.000  H
  C468     1.0000 0.81867  0.99439  0.95994  Biso   1.000  C
  H496     1.0000 0.22555  0.23033  0.95794  Biso   1.000  H
  H497     1.0000 0.18516  0.14055  0.96954  Biso   1.000  H
  H498     1.0000 0.14096  0.18874  0.97603  Biso   1.000  H
  H499     1.0000 0.95537  0.81482  0.96954  Biso   1.000  H
  H500     1.0000 0.00472  0.77440  0.95794  Biso   1.000  H
  H501     1.0000 0.04780  0.85904  0.97603  Biso   1.000  H
  H502     1.0000 0.85947  0.04463  0.96954  Biso   1.000  H
  H503     1.0000 0.76965  0.99521  0.95794  Biso   1.000  H
  H504     1.0000 0.81129  0.95222  0.97603  Biso   1.000  H
  Ne1      1.0000 0.66667  0.33333  0.12663  Biso   1.000  Ne
  He1      1.0000 0.61674  0.13201  0.19588  Biso   1.000  He
  He2      1.0000 0.83578  0.47509  0.18713  Biso   1.000  He
  He3      1.0000 0.50143  0.40226  0.20583  Biso   1.000  He
  He4      1.0000 0.69507  0.52951  0.03177  Biso   1.000  He
  Ar1      1.0000 0.66668  0.33335  0.12663  Biso   1.000  Ar
  Ne2      1.0000 0.33333  0.66667  0.45996  Biso   1.000  Ne
  He5      1.0000 0.28337  0.46534  0.52922  Biso   1.000  He
  He6      1.0000 0.50242  0.80839  0.52049  Biso   1.000  He
  He7      1.0000 0.16805  0.73557  0.53917  Biso   1.000  He
  He8      1.0000 0.36173  0.86280  0.36510  Biso   1.000  He
  Ar2      1.0000 0.33332  0.66665  0.45996  Biso   1.000  Ar
  Ne3      1.0000 1.00000  0.99999  0.79329  Biso   1.000  Ne
  He9      1.0000 0.95006  0.79864  0.86256  Biso   1.000  He
  He10     1.0000 0.16910  0.14175  0.85382  Biso   1.000  He
  He11     1.0000 0.83473  0.06890  0.87250  Biso   1.000  He
  He12     1.0000 0.02839  0.19615  0.69843  Biso   1.000  He
  Ar3      1.0000 0.00000  0.00001  0.79329  Biso   1.000  Ar
