data_image0
_cell_length_a       33.688
_cell_length_b       33.545
_cell_length_c       33.801
_cell_angle_alpha    90
_cell_angle_beta     102.38
_cell_angle_gamma    90

_symmetry_space_group_name_H-M    "P 1"
_symmetry_int_tables_number       1

loop_
  _symmetry_equiv_pos_as_xyz
  'x, y, z'

loop_
  _atom_site_label
  _atom_site_occupancy
  _atom_site_fract_x
  _atom_site_fract_y
  _atom_site_fract_z
  _atom_site_thermal_displace_type
  _atom_site_B_iso_or_equiv
  _atom_site_type_symbol
  C1       1.0000 0.76524  0.47751  0.49587  Biso   1.000  C
  C2       1.0000 0.75596  0.44892  0.52228  Biso   1.000  C
  C3       1.0000 0.78455  0.51260  0.51098  Biso   1.000  C
  H1       1.0000 0.75845  0.47301  0.46748  Biso   1.000  H
  C4       1.0000 0.73945  0.41031  0.50680  Biso   1.000  C
  C5       1.0000 0.76584  0.45551  0.56380  Biso   1.000  C
  C6       1.0000 0.79445  0.51927  0.55260  Biso   1.000  C
  H2       1.0000 0.79086  0.53221  0.49299  Biso   1.000  H
  N1       1.0000 0.73104  0.38369  0.52870  Biso   1.000  N
  H3       1.0000 0.73505  0.40549  0.47848  Biso   1.000  H
  H4       1.0000 0.75955  0.43601  0.58189  Biso   1.000  H
  C7       1.0000 0.78514  0.49071  0.57898  Biso   1.000  C
  C8       1.0000 0.81635  0.55651  0.56980  Biso   1.000  C
  C9       1.0000 0.71666  0.34390  0.51040  Biso   1.000  C
  H5       1.0000 0.79193  0.49519  0.60739  Biso   1.000  H
  C10      1.0000 0.84845  0.57189  0.55469  Biso   1.000  C
  C11      1.0000 0.80695  0.57281  0.60448  Biso   1.000  C
  C12      1.0000 0.74474  0.31143  0.53058  Biso   1.000  C
  H6       1.0000 0.68866  0.33871  0.51410  Biso   1.000  H
  H7       1.0000 0.71606  0.34431  0.48099  Biso   1.000  H
  C13      1.0000 0.87105  0.60361  0.57419  Biso   1.000  C
  H8       1.0000 0.85485  0.56080  0.53100  Biso   1.000  H
  H9       1.0000 0.78503  0.56220  0.61478  Biso   1.000  H
  C14      1.0000 0.82955  0.60450  0.62399  Biso   1.000  C
  C15      1.0000 0.77704  0.29849  0.51431  Biso   1.000  C
  C16      1.0000 0.73634  0.29259  0.56450  Biso   1.000  C
  C17      1.0000 0.86165  0.61991  0.60887  Biso   1.000  C
  C18      1.0000 0.90646  0.62060  0.55968  Biso   1.000  C
  C19      1.0000 0.82016  0.61929  0.66270  Biso   1.000  C
  C20      1.0000 0.80106  0.26681  0.53200  Biso   1.000  C
  C21      1.0000 0.78737  0.32061  0.48090  Biso   1.000  C
  C22      1.0000 0.76036  0.26090  0.58219  Biso   1.000  C
  C23      1.0000 0.70374  0.30920  0.58310  Biso   1.000  C
  H10      1.0000 0.87715  0.64159  0.62229  Biso   1.000  H
  C24      1.0000 0.90724  0.62740  0.51928  Biso   1.000  C
  C25      1.0000 0.93975  0.63091  0.58997  Biso   1.000  C
  C26      1.0000 0.85284  0.63020  0.69347  Biso   1.000  C
  C27      1.0000 0.78065  0.62289  0.66839  Biso   1.000  C
  C28      1.0000 0.79265  0.24805  0.56589  Biso   1.000  C
  C29      1.0000 0.83506  0.25151  0.51380  Biso   1.000  C
  H11      1.0000 0.78577  0.30279  0.45758  Biso   1.000  H
  H12      1.0000 0.76827  0.34279  0.47339  Biso   1.000  H
  H13      1.0000 0.81505  0.33111  0.48908  Biso   1.000  H
  C30      1.0000 0.75263  0.23929  0.61790  Biso   1.000  C
  H14      1.0000 0.67725  0.30350  0.56550  Biso   1.000  H
  H15      1.0000 0.70525  0.29691  0.60960  Biso   1.000  H
  H16      1.0000 0.70733  0.33811  0.58628  Biso   1.000  H
  C31      1.0000 0.94134  0.64460  0.50919  Biso   1.000  C
  H17      1.0000 0.88455  0.62039  0.49868  Biso   1.000  H
  H18      1.0000 0.93925  0.62629  0.61760  Biso   1.000  H
  C32      1.0000 0.97386  0.64811  0.57989  Biso   1.000  C
  C33      1.0000 0.84594  0.64460  0.73000  Biso   1.000  C
  H19      1.0000 0.87973  0.62769  0.68959  Biso   1.000  H
  H20      1.0000 0.75836  0.61550  0.64740  Biso   1.000  H
  C34      1.0000 0.77384  0.63729  0.70489  Biso   1.000  C
  C35      1.0000 0.82136  0.21219  0.58619  Biso   1.000  C
  N2       1.0000 0.87276  0.27480  0.53548  Biso   1.000  N
  H21      1.0000 0.83886  0.22251  0.51849  Biso   1.000  H
  H22      1.0000 0.82937  0.25670  0.48420  Biso   1.000  H
  N3       1.0000 0.78334  0.25241  0.65658  Biso   1.000  N
  H23      1.0000 0.72464  0.24481  0.62108  Biso   1.000  H
  H24      1.0000 0.75525  0.21031  0.61378  Biso   1.000  H
  C36      1.0000 0.97466  0.65491  0.53948  Biso   1.000  C
  H25      1.0000 0.94185  0.64919  0.48160  Biso   1.000  H
  H26      1.0000 0.99653  0.65509  0.60057  Biso   1.000  H
  C37      1.0000 0.80644  0.64820  0.73570  Biso   1.000  C
  H27      1.0000 0.86824  0.65199  0.75099  Biso   1.000  H
  H28      1.0000 0.74684  0.63980  0.70880  Biso   1.000  H
  H29      1.0000 0.83284  0.21860  0.61460  Biso   1.000  H
  H30      1.0000 0.80534  0.18769  0.58470  Biso   1.000  H
  H31      1.0000 0.84335  0.20850  0.57168  Biso   1.000  H
  C38      1.0000 0.90457  0.25411  0.55060  Biso   1.000  C
  C39      1.0000 0.77413  0.26931  0.68360  Biso   1.000  C
  C40      1.0000 0.00914  0.67211  0.52809  Biso   1.000  C
  C41      1.0000 0.79743  0.66731  0.77068  Biso   1.000  C
  H32      1.0000 0.90384  0.22579  0.54848  Biso   1.000  H
  C42      1.0000 0.94265  0.27500  0.57129  Biso   1.000  C
  C43      1.0000 0.80202  0.28550  0.71888  Biso   1.000  C
  H33      1.0000 0.74594  0.27271  0.68239  Biso   1.000  H
  N4       1.0000 0.03735  0.68609  0.55447  Biso   1.000  N
  H34      1.0000 0.01054  0.67301  0.50038  Biso   1.000  H
  N5       1.0000 0.82393  0.68061  0.80000  Biso   1.000  N
  H35      1.0000 0.76963  0.67011  0.77198  Biso   1.000  H
  C44      1.0000 0.97803  0.25279  0.58289  Biso   1.000  C
  C45      1.0000 0.94336  0.31599  0.57789  Biso   1.000  C
  C46      1.0000 0.84363  0.27951  0.72379  Biso   1.000  C
  C47      1.0000 0.78705  0.30690  0.74778  Biso   1.000  C
  C48      1.0000 0.07556  0.70210  0.54169  Biso   1.000  C
  C49      1.0000 0.81043  0.70040  0.83429  Biso   1.000  C
  H36      1.0000 0.97755  0.22480  0.57840  Biso   1.000  H
  C50      1.0000 0.01415  0.27140  0.60118  Biso   1.000  C
  C51      1.0000 0.97956  0.33463  0.59618  Biso   1.000  C
  H37      1.0000 0.91924  0.33120  0.56998  Biso   1.000  H
  H38      1.0000 0.85393  0.26490  0.70407  Biso   1.000  H
  C52      1.0000 0.87022  0.29489  0.75759  Biso   1.000  C
  C53      1.0000 0.81362  0.32219  0.78149  Biso   1.000  C
  H39      1.0000 0.75862  0.31099  0.74439  Biso   1.000  H
  C54      1.0000 0.11446  0.68180  0.56729  Biso   1.000  C
  H40      1.0000 0.07375  0.69650  0.51258  Biso   1.000  H
  H41      1.0000 0.07734  0.73129  0.54569  Biso   1.000  H
  C55      1.0000 0.83062  0.68159  0.87378  Biso   1.000  C
  H42      1.0000 0.81733  0.72911  0.83477  Biso   1.000  H
  H43      1.0000 0.78052  0.69799  0.83059  Biso   1.000  H
  H44      1.0000 0.03835  0.25619  0.60909  Biso   1.000  H
  C56      1.0000 0.01494  0.31239  0.60778  Biso   1.000  C
  H45      1.0000 0.98005  0.36259  0.60070  Biso   1.000  H
  H46      1.0000 0.89863  0.29080  0.76090  Biso   1.000  H
  C57      1.0000 0.85523  0.31629  0.78640  Biso   1.000  C
  H47      1.0000 0.80333  0.33680  0.80127  Biso   1.000  H
  C58      1.0000 0.13424  0.69909  0.60348  Biso   1.000  C
  C59      1.0000 0.12964  0.64701  0.55369  Biso   1.000  C
  C60      1.0000 0.81541  0.64689  0.88738  Biso   1.000  C
  C61      1.0000 0.86560  0.69909  0.89647  Biso   1.000  C
  C62      1.0000 0.05309  0.33170  0.62699  Biso   1.000  C
  C63      1.0000 0.88392  0.33379  0.82305  Biso   1.000  C
  C64      1.0000 0.16926  0.68159  0.62620  Biso   1.000  C
  C65      1.0000 0.11495  0.73579  0.61908  Biso   1.000  C
  C66      1.0000 0.10696  0.62599  0.51489  Biso   1.000  C
  C67      1.0000 0.16465  0.62960  0.57637  Biso   1.000  C
  C68      1.0000 0.83522  0.62960  0.92358  Biso   1.000  C
  C69      1.0000 0.77604  0.62710  0.86470  Biso   1.000  C
  C70      1.0000 0.88542  0.68180  0.93270  Biso   1.000  C
  C71      1.0000 0.88493  0.73579  0.88087  Biso   1.000  C
  C72      1.0000 0.06214  0.36849  0.61218  Biso   1.000  C
  C73      1.0000 0.07995  0.31438  0.65940  Biso   1.000  C
  C74      1.0000 0.87488  0.37049  0.83789  Biso   1.000  C
  C75      1.0000 0.91993  0.31438  0.84059  Biso   1.000  C
  C76      1.0000 0.18444  0.64689  0.61260  Biso   1.000  C
  C77      1.0000 0.18945  0.70040  0.66570  Biso   1.000  C
  H48      1.0000 0.13375  0.75841  0.62147  Biso   1.000  H
  H49      1.0000 0.08956  0.74250  0.60000  Biso   1.000  H
  H50      1.0000 0.10915  0.72980  0.64568  Biso   1.000  H
  H51      1.0000 0.10746  0.59711  0.51928  Biso   1.000  H
  H52      1.0000 0.07876  0.63530  0.50798  Biso   1.000  H
  H53      1.0000 0.12025  0.63220  0.49250  Biso   1.000  H
  C78      1.0000 0.18164  0.59299  0.55999  Biso   1.000  C
  C79      1.0000 0.87021  0.64701  0.94630  Biso   1.000  C
  C80      1.0000 0.81821  0.59299  0.94000  Biso   1.000  C
  H54      1.0000 0.75321  0.63640  0.87599  Biso   1.000  H
  H55      1.0000 0.77124  0.63419  0.83589  Biso   1.000  H
  H56      1.0000 0.77853  0.59809  0.86757  Biso   1.000  H
  C81      1.0000 0.92432  0.70210  0.95829  Biso   1.000  C
  H57      1.0000 0.86613  0.75841  0.87848  Biso   1.000  H
  H58      1.0000 0.91032  0.74250  0.89998  Biso   1.000  H
  H59      1.0000 0.89072  0.72980  0.85428  Biso   1.000  H
  H60      1.0000 0.04386  0.38041  0.58997  Biso   1.000  H
  C82      1.0000 0.09814  0.38787  0.62968  Biso   1.000  C
  C83      1.0000 0.11593  0.33379  0.67693  Biso   1.000  C
  H61      1.0000 0.07374  0.28931  0.66957  Biso   1.000  H
  C84      1.0000 0.90170  0.38787  0.87027  Biso   1.000  C
  H62      1.0000 0.85032  0.38381  0.82599  Biso   1.000  H
  C85      1.0000 0.94676  0.33170  0.87300  Biso   1.000  C
  H63      1.0000 0.92613  0.28931  0.83038  Biso   1.000  H
  C86      1.0000 0.22384  0.62710  0.63529  Biso   1.000  C
  N6       1.0000 0.17593  0.68061  0.69998  Biso   1.000  N
  H64      1.0000 0.18254  0.72911  0.66518  Biso   1.000  H
  H65      1.0000 0.21933  0.69799  0.66939  Biso   1.000  H
  N7       1.0000 0.16915  0.55800  0.58167  Biso   1.000  N
  H66      1.0000 0.21164  0.59469  0.56489  Biso   1.000  H
  H67      1.0000 0.17075  0.59061  0.53049  Biso   1.000  H
  C87      1.0000 0.89292  0.62599  0.98507  Biso   1.000  C
  N8       1.0000 0.83073  0.55800  0.91828  Biso   1.000  N
  H68      1.0000 0.78821  0.59469  0.93509  Biso   1.000  H
  H69      1.0000 0.82912  0.59061  0.96947  Biso   1.000  H
  N9       1.0000 0.96253  0.68609  0.94548  Biso   1.000  N
  H70      1.0000 0.92612  0.69650  0.98737  Biso   1.000  H
  H71      1.0000 0.92251  0.73129  0.95429  Biso   1.000  H
  C88      1.0000 0.12500  0.37049  0.66209  Biso   1.000  C
  C89      1.0000 0.10983  0.42689  0.61269  Biso   1.000  C
  C90      1.0000 0.14463  0.31629  0.71358  Biso   1.000  C
  C91      1.0000 0.93771  0.36849  0.88778  Biso   1.000  C
  C92      1.0000 0.89002  0.42689  0.88729  Biso   1.000  C
  C93      1.0000 0.98493  0.31239  0.89217  Biso   1.000  C
  H72      1.0000 0.24664  0.63640  0.62399  Biso   1.000  H
  H73      1.0000 0.22864  0.63419  0.66409  Biso   1.000  H
  H74      1.0000 0.22135  0.59809  0.63238  Biso   1.000  H
  C94      1.0000 0.20244  0.66731  0.72927  Biso   1.000  C
  C95      1.0000 0.14635  0.53090  0.56068  Biso   1.000  C
  H75      1.0000 0.89242  0.59711  0.98067  Biso   1.000  H
  H76      1.0000 0.92112  0.63530  0.99197  Biso   1.000  H
  H77      1.0000 0.87970  0.63220  0.00751  Biso   1.000  H
  C96      1.0000 0.85353  0.53090  0.93927  Biso   1.000  C
  C97      1.0000 0.99071  0.67211  0.97189  Biso   1.000  C
  H78      1.0000 0.14953  0.38381  0.67400  Biso   1.000  H
  C98      1.0000 0.09946  0.43309  0.57110  Biso   1.000  C
  C99      1.0000 0.13194  0.45560  0.63789  Biso   1.000  C
  C100     1.0000 0.12963  0.29489  0.74239  Biso   1.000  C
  C101     1.0000 0.18623  0.32219  0.71849  Biso   1.000  C
  H79      1.0000 0.95602  0.38041  0.90998  Biso   1.000  H
  C102     1.0000 0.90042  0.43309  0.92888  Biso   1.000  C
  C103     1.0000 0.86792  0.45560  0.86209  Biso   1.000  C
  C104     1.0000 0.98573  0.27140  0.89877  Biso   1.000  C
  C105     1.0000 0.02032  0.33463  0.90377  Biso   1.000  C
  H80      1.0000 0.23024  0.67011  0.72797  Biso   1.000  H
  C106     1.0000 0.19344  0.64820  0.76429  Biso   1.000  C
  C107     1.0000 0.13335  0.49680  0.57989  Biso   1.000  C
  H81      1.0000 0.13826  0.53379  0.53218  Biso   1.000  H
  C108     1.0000 0.86653  0.49680  0.92010  Biso   1.000  C
  H82      1.0000 0.86162  0.53379  0.96777  Biso   1.000  H
  H83      1.0000 0.98930  0.67301  0.99958  Biso   1.000  H
  C109     1.0000 0.02521  0.65491  0.96047  Biso   1.000  C
  C110     1.0000 0.11125  0.46809  0.55469  Biso   1.000  C
  H84      1.0000 0.08435  0.41350  0.55399  Biso   1.000  H
  H85      1.0000 0.13905  0.45130  0.66627  Biso   1.000  H
  C111     1.0000 0.14363  0.49051  0.62147  Biso   1.000  C
  C112     1.0000 0.15622  0.27951  0.77619  Biso   1.000  C
  H86      1.0000 0.10122  0.29080  0.73909  Biso   1.000  H
  H87      1.0000 0.19654  0.33680  0.69868  Biso   1.000  H
  C113     1.0000 0.21283  0.30690  0.75217  Biso   1.000  C
  C114     1.0000 0.88860  0.46809  0.94530  Biso   1.000  C
  H88      1.0000 0.91553  0.41350  0.94599  Biso   1.000  H
  H89      1.0000 0.86082  0.45130  0.83368  Biso   1.000  H
  C115     1.0000 0.85621  0.49051  0.87848  Biso   1.000  C
  H90      1.0000 0.96153  0.25619  0.89090  Biso   1.000  H
  C116     1.0000 0.02182  0.25279  0.91710  Biso   1.000  C
  H91      1.0000 0.01983  0.36259  0.89929  Biso   1.000  H
  C117     1.0000 0.05652  0.31599  0.92210  Biso   1.000  C
  C118     1.0000 0.15394  0.64460  0.76998  Biso   1.000  C
  C119     1.0000 0.22604  0.63729  0.79509  Biso   1.000  C
  C120     1.0000 0.05851  0.64460  0.99079  Biso   1.000  C
  C121     1.0000 0.02602  0.64811  0.92010  Biso   1.000  C
  H92      1.0000 0.10416  0.47229  0.52628  Biso   1.000  H
  H93      1.0000 0.15873  0.51009  0.63868  Biso   1.000  H
  C122     1.0000 0.19783  0.28550  0.78110  Biso   1.000  C
  H94      1.0000 0.14591  0.26490  0.79588  Biso   1.000  H
  H95      1.0000 0.24123  0.31099  0.75560  Biso   1.000  H
  H96      1.0000 0.89572  0.47229  0.97368  Biso   1.000  H
  H97      1.0000 0.84111  0.51009  0.86127  Biso   1.000  H
  C123     1.0000 0.05723  0.27500  0.92867  Biso   1.000  C
  H98      1.0000 0.02231  0.22480  0.92158  Biso   1.000  H
  H99      1.0000 0.08060  0.33120  0.92997  Biso   1.000  H
  H100     1.0000 0.13164  0.65199  0.74899  Biso   1.000  H
  C124     1.0000 0.14704  0.63020  0.80648  Biso   1.000  C
  C125     1.0000 0.21923  0.62289  0.83159  Biso   1.000  C
  H101     1.0000 0.25304  0.63980  0.79119  Biso   1.000  H
  C126     1.0000 0.09261  0.62740  0.98067  Biso   1.000  C
  H102     1.0000 0.05809  0.64919  0.01838  Biso   1.000  H
  C127     1.0000 0.06012  0.63091  0.90998  Biso   1.000  C
  H103     1.0000 0.00331  0.65509  0.89938  Biso   1.000  H
  C128     1.0000 0.22572  0.26931  0.81639  Biso   1.000  C
  C129     1.0000 0.09531  0.25411  0.94939  Biso   1.000  C
  H104     1.0000 0.12012  0.62769  0.81039  Biso   1.000  H
  C130     1.0000 0.17973  0.61929  0.83729  Biso   1.000  C
  H105     1.0000 0.24152  0.61550  0.85258  Biso   1.000  H
  C131     1.0000 0.09341  0.62060  0.94027  Biso   1.000  C
  H106     1.0000 0.11539  0.62039  0.00130  Biso   1.000  H
  H107     1.0000 0.06063  0.62629  0.88239  Biso   1.000  H
  N10      1.0000 0.21651  0.25241  0.84337  Biso   1.000  N
  H108     1.0000 0.25392  0.27271  0.81760  Biso   1.000  H
  N11      1.0000 0.12712  0.27480  0.96447  Biso   1.000  N
  H109     1.0000 0.09600  0.22579  0.95148  Biso   1.000  H
  C132     1.0000 0.17033  0.60450  0.87599  Biso   1.000  C
  C133     1.0000 0.12883  0.60361  0.92579  Biso   1.000  C
  C134     1.0000 0.24722  0.23929  0.88208  Biso   1.000  C
  C135     1.0000 0.16483  0.25151  0.98619  Biso   1.000  C
  C136     1.0000 0.19292  0.57281  0.89547  Biso   1.000  C
  C137     1.0000 0.13822  0.61991  0.89108  Biso   1.000  C
  C138     1.0000 0.15143  0.57189  0.94530  Biso   1.000  C
  C139     1.0000 0.23952  0.26090  0.91776  Biso   1.000  C
  H110     1.0000 0.27523  0.24481  0.87887  Biso   1.000  H
  H111     1.0000 0.24462  0.21031  0.88617  Biso   1.000  H
  C140     1.0000 0.19882  0.26681  0.96798  Biso   1.000  C
  H112     1.0000 0.16103  0.22251  0.98149  Biso   1.000  H
  H113     1.0000 0.17060  0.25670  0.01581  Biso   1.000  H
  C141     1.0000 0.18353  0.55651  0.93018  Biso   1.000  C
  H114     1.0000 0.21481  0.56220  0.88517  Biso   1.000  H
  H115     1.0000 0.12273  0.64159  0.87769  Biso   1.000  H
  H116     1.0000 0.14501  0.56080  0.96898  Biso   1.000  H
  C142     1.0000 0.20723  0.24805  0.93409  Biso   1.000  C
  C143     1.0000 0.26351  0.29259  0.93548  Biso   1.000  C
  C144     1.0000 0.22281  0.29849  0.98567  Biso   1.000  C
  C145     1.0000 0.20543  0.51927  0.94739  Biso   1.000  C
  C146     1.0000 0.17852  0.21219  0.91380  Biso   1.000  C
  C147     1.0000 0.25510  0.31143  0.96938  Biso   1.000  C
  C148     1.0000 0.29611  0.30920  0.91689  Biso   1.000  C
  C149     1.0000 0.21261  0.32061  0.01911  Biso   1.000  C
  C150     1.0000 0.21471  0.49071  0.92100  Biso   1.000  C
  C151     1.0000 0.21532  0.51260  0.98897  Biso   1.000  C
  H117     1.0000 0.16701  0.21860  0.88538  Biso   1.000  H
  H118     1.0000 0.19451  0.18769  0.91528  Biso   1.000  H
  H119     1.0000 0.15652  0.20850  0.92827  Biso   1.000  H
  C152     1.0000 0.28322  0.34390  0.98958  Biso   1.000  C
  H120     1.0000 0.32261  0.30350  0.93448  Biso   1.000  H
  H121     1.0000 0.29463  0.29691  0.89038  Biso   1.000  H
  H122     1.0000 0.29251  0.33811  0.91367  Biso   1.000  H
  H123     1.0000 0.21420  0.30279  0.04240  Biso   1.000  H
  H124     1.0000 0.23170  0.34279  0.02659  Biso   1.000  H
  H125     1.0000 0.18490  0.33111  0.01090  Biso   1.000  H
  C153     1.0000 0.23401  0.45551  0.93618  Biso   1.000  C
  H126     1.0000 0.20792  0.49519  0.89259  Biso   1.000  H
  C154     1.0000 0.23470  0.47751  0.00412  Biso   1.000  C
  H127     1.0000 0.20908  0.53221  0.00700  Biso   1.000  H
  N12      1.0000 0.26881  0.38369  0.97128  Biso   1.000  N
  H128     1.0000 0.31122  0.33871  0.98588  Biso   1.000  H
  H129     1.0000 0.28388  0.34431  0.01899  Biso   1.000  H
  C155     1.0000 0.24391  0.44892  0.97768  Biso   1.000  C
  H130     1.0000 0.24033  0.43601  0.91810  Biso   1.000  H
  H131     1.0000 0.24149  0.47301  0.03250  Biso   1.000  H
  C156     1.0000 0.26040  0.41031  0.99318  Biso   1.000  C
  H132     1.0000 0.26489  0.40549  0.02150  Biso   1.000  H
  C157     1.0000 0.69707  0.55451  0.41478  Biso   1.000  C
  C158     1.0000 0.67905  0.51859  0.40030  Biso   1.000  C
  C159     1.0000 0.73755  0.56160  0.41421  Biso   1.000  C
  H133     1.0000 0.68165  0.57421  0.42508  Biso   1.000  H
  C160     1.0000 0.70158  0.48979  0.38510  Biso   1.000  C
  H134     1.0000 0.65135  0.51370  0.40070  Biso   1.000  H
  C161     1.0000 0.76007  0.53290  0.39909  Biso   1.000  C
  C162     1.0000 0.75916  0.59809  0.43380  Biso   1.000  C
  C163     1.0000 0.68027  0.45065  0.37228  Biso   1.000  C
  C164     1.0000 0.74205  0.49700  0.38449  Biso   1.000  C
  H135     1.0000 0.78777  0.53770  0.39870  Biso   1.000  H
  N13      1.0000 0.78567  0.60790  0.44980  Biso   1.000  N
  H136     1.0000 0.74065  0.61991  0.42929  Biso   1.000  H
  C165     1.0000 0.65645  0.43270  0.39612  Biso   1.000  C
  C166     1.0000 0.68387  0.43330  0.33591  Biso   1.000  C
  H137     1.0000 0.75735  0.47730  0.37419  Biso   1.000  H
  C167     1.0000 0.79896  0.64650  0.46618  Biso   1.000  C
  C168     1.0000 0.63616  0.39729  0.38349  Biso   1.000  C
  H138     1.0000 0.65406  0.44460  0.42099  Biso   1.000  H
  C169     1.0000 0.66356  0.39791  0.32334  Biso   1.000  C
  H139     1.0000 0.70018  0.44561  0.31970  Biso   1.000  H
  C170     1.0000 0.77267  0.68141  0.45189  Biso   1.000  C
  H140     1.0000 0.82605  0.65181  0.46018  Biso   1.000  H
  H141     1.0000 0.80267  0.64510  0.49599  Biso   1.000  H
  C171     1.0000 0.60815  0.38149  0.40878  Biso   1.000  C
  C172     1.0000 0.63976  0.37991  0.34708  Biso   1.000  C
  C173     1.0000 0.66729  0.37949  0.28323  Biso   1.000  C
  C174     1.0000 0.74326  0.69501  0.47179  Biso   1.000  C
  C175     1.0000 0.77897  0.70121  0.41769  Biso   1.000  C
  C176     1.0000 0.61846  0.38450  0.45079  Biso   1.000  C
  C177     1.0000 0.57005  0.36709  0.38982  Biso   1.000  C
  H142     1.0000 0.62586  0.35570  0.33848  Biso   1.000  H
  C178     1.0000 0.66737  0.33841  0.27839  Biso   1.000  C
  C179     1.0000 0.66689  0.40432  0.25019  Biso   1.000  C
  C180     1.0000 0.72006  0.72831  0.45749  Biso   1.000  C
  C181     1.0000 0.73356  0.67059  0.50550  Biso   1.000  C
  C182     1.0000 0.75587  0.73460  0.40330  Biso   1.000  C
  C183     1.0000 0.80945  0.68901  0.39119  Biso   1.000  C
  C184     1.0000 0.59066  0.37311  0.47375  Biso   1.000  C
  H143     1.0000 0.64435  0.39440  0.46379  Biso   1.000  H
  C185     1.0000 0.54237  0.35579  0.41278  Biso   1.000  C
  H144     1.0000 0.56307  0.36509  0.36108  Biso   1.000  H
  C186     1.0000 0.66709  0.32205  0.24050  Biso   1.000  C
  H145     1.0000 0.66758  0.32139  0.30089  Biso   1.000  H
  H146     1.0000 0.66678  0.43249  0.25358  Biso   1.000  H
  C187     1.0000 0.66659  0.38799  0.21239  Biso   1.000  C
  C188     1.0000 0.69105  0.74071  0.48039  Biso   1.000  C
  C189     1.0000 0.72636  0.74819  0.42329  Biso   1.000  C
  H147     1.0000 0.74764  0.64489  0.50680  Biso   1.000  H
  H148     1.0000 0.70417  0.66600  0.50050  Biso   1.000  H
  H149     1.0000 0.74244  0.68481  0.53118  Biso   1.000  H
  C190     1.0000 0.76017  0.75421  0.36550  Biso   1.000  C
  H150     1.0000 0.79466  0.67611  0.36629  Biso   1.000  H
  H151     1.0000 0.82947  0.67041  0.40630  Biso   1.000  H
  H152     1.0000 0.82336  0.71280  0.38410  Biso   1.000  H
  C191     1.0000 0.55265  0.35871  0.45479  Biso   1.000  C
  H153     1.0000 0.59776  0.37520  0.50250  Biso   1.000  H
  H154     1.0000 0.51645  0.34589  0.39979  Biso   1.000  H
  C192     1.0000 0.66679  0.34691  0.20751  Biso   1.000  C
  H155     1.0000 0.66718  0.29390  0.23719  Biso   1.000  H
  H156     1.0000 0.66639  0.40501  0.18979  Biso   1.000  H
  N14      1.0000 0.65077  0.71939  0.46200  Biso   1.000  N
  H157     1.0000 0.68735  0.77001  0.47860  Biso   1.000  H
  H158     1.0000 0.70046  0.73331  0.50919  Biso   1.000  H
  C193     1.0000 0.69965  0.78271  0.40830  Biso   1.000  C
  N15      1.0000 0.73537  0.73051  0.33339  Biso   1.000  N
  H159     1.0000 0.75028  0.78211  0.36450  Biso   1.000  H
  H160     1.0000 0.78887  0.75430  0.36299  Biso   1.000  H
  C194     1.0000 0.52467  0.34950  0.48160  Biso   1.000  C
  C195     1.0000 0.66790  0.33239  0.16671  Biso   1.000  C
  C196     1.0000 0.62146  0.74029  0.44928  Biso   1.000  C
  H161     1.0000 0.71637  0.80540  0.40379  Biso   1.000  H
  H162     1.0000 0.68387  0.78989  0.42850  Biso   1.000  H
  H163     1.0000 0.68107  0.77550  0.38280  Biso   1.000  H
  C197     1.0000 0.70967  0.74679  0.31080  Biso   1.000  C
  N16      1.0000 0.48965  0.33370  0.46509  Biso   1.000  N
  H164     1.0000 0.53186  0.35481  0.50980  Biso   1.000  H
  N17      1.0000 0.67618  0.35010  0.13621  Biso   1.000  N
  H165     1.0000 0.66118  0.30499  0.16241  Biso   1.000  H
  C198     1.0000 0.58096  0.72380  0.42799  Biso   1.000  C
  H166     1.0000 0.62405  0.76840  0.45288  Biso   1.000  H
  C199     1.0000 0.68089  0.72631  0.27690  Biso   1.000  C
  H167     1.0000 0.70668  0.77469  0.31401  Biso   1.000  H
  C200     1.0000 0.46184  0.32580  0.49408  Biso   1.000  C
  C201     1.0000 0.67599  0.33099  0.09850  Biso   1.000  C
  C202     1.0000 0.57816  0.68389  0.41660  Biso   1.000  C
  C203     1.0000 0.54656  0.74789  0.41969  Biso   1.000  C
  C204     1.0000 0.64777  0.74810  0.25640  Biso   1.000  C
  C205     1.0000 0.68688  0.68749  0.26491  Biso   1.000  C
  C206     1.0000 0.42027  0.34649  0.48021  Biso   1.000  C
  H168     1.0000 0.47496  0.33540  0.52140  Biso   1.000  H
  H169     1.0000 0.45757  0.29671  0.49590  Biso   1.000  H
  C207     1.0000 0.64560  0.34810  0.06470  Biso   1.000  C
  H170     1.0000 0.67009  0.30231  0.10089  Biso   1.000  H
  H171     1.0000 0.70330  0.33331  0.09229  Biso   1.000  H
  C208     1.0000 0.54098  0.66821  0.39679  Biso   1.000  C
  H172     1.0000 0.60156  0.66749  0.42229  Biso   1.000  H
  C209     1.0000 0.50946  0.73221  0.39988  Biso   1.000  C
  H173     1.0000 0.54847  0.77520  0.42750  Biso   1.000  H
  C210     1.0000 0.62059  0.73120  0.22390  Biso   1.000  C
  H174     1.0000 0.64366  0.77469  0.26449  Biso   1.000  H
  C211     1.0000 0.65979  0.67059  0.23250  Biso   1.000  C
  H175     1.0000 0.70957  0.67259  0.27890  Biso   1.000  H
  C212     1.0000 0.39155  0.32941  0.44910  Biso   1.000  C
  C213     1.0000 0.41185  0.38229  0.49738  Biso   1.000  C
  C214     1.0000 0.60840  0.32941  0.05089  Biso   1.000  C
  C215     1.0000 0.65410  0.38390  0.04749  Biso   1.000  C
  C216     1.0000 0.50666  0.69229  0.38849  Biso   1.000  C
  H176     1.0000 0.53906  0.64090  0.38900  Biso   1.000  H
  H177     1.0000 0.48598  0.74870  0.39418  Biso   1.000  H
  C217     1.0000 0.62658  0.69241  0.21199  Biso   1.000  C
  H178     1.0000 0.59799  0.74610  0.20990  Biso   1.000  H
  H179     1.0000 0.66387  0.64409  0.22429  Biso   1.000  H
  C218     1.0000 0.35435  0.34810  0.43529  Biso   1.000  C
  C219     1.0000 0.40096  0.29200  0.42868  Biso   1.000  C
  C220     1.0000 0.37466  0.40101  0.48360  Biso   1.000  C
  C221     1.0000 0.44496  0.40721  0.52670  Biso   1.000  C
  C222     1.0000 0.57969  0.34649  0.01981  Biso   1.000  C
  C223     1.0000 0.59899  0.29200  0.07130  Biso   1.000  C
  C224     1.0000 0.62529  0.40101  0.01639  Biso   1.000  C
  C225     1.0000 0.69420  0.40689  0.06391  Biso   1.000  C
  C226     1.0000 0.46477  0.67450  0.37219  Biso   1.000  C
  C227     1.0000 0.60050  0.67551  0.17380  Biso   1.000  C
  C228     1.0000 0.32396  0.33099  0.40148  Biso   1.000  C
  C229     1.0000 0.34585  0.38390  0.45249  Biso   1.000  C
  H180     1.0000 0.39235  0.26889  0.44250  Biso   1.000  H
  H181     1.0000 0.43027  0.29051  0.42999  Biso   1.000  H
  H182     1.0000 0.38636  0.29229  0.40039  Biso   1.000  H
  C230     1.0000 0.36576  0.43971  0.50419  Biso   1.000  C
  H183     1.0000 0.44386  0.43491  0.51758  Biso   1.000  H
  H184     1.0000 0.47185  0.39609  0.52679  Biso   1.000  H
  H185     1.0000 0.43986  0.40599  0.55420  Biso   1.000  H
  C231     1.0000 0.53811  0.32580  0.00591  Biso   1.000  C
  C232     1.0000 0.58810  0.38229  0.00260  Biso   1.000  C
  H186     1.0000 0.60759  0.26889  0.05749  Biso   1.000  H
  H187     1.0000 0.56971  0.29051  0.07000  Biso   1.000  H
  H188     1.0000 0.61359  0.29229  0.09959  Biso   1.000  H
  C233     1.0000 0.63413  0.43971  0.99579  Biso   1.000  C
  H189     1.0000 0.69829  0.42689  0.04401  Biso   1.000  H
  H190     1.0000 0.71701  0.38819  0.06879  Biso   1.000  H
  H191     1.0000 0.69259  0.42021  0.08929  Biso   1.000  H
  C234     1.0000 0.45226  0.64251  0.39270  Biso   1.000  C
  C235     1.0000 0.43837  0.69101  0.33891  Biso   1.000  C
  C236     1.0000 0.61303  0.64361  0.15329  Biso   1.000  C
  C237     1.0000 0.56158  0.69101  0.16111  Biso   1.000  C
  N18      1.0000 0.32378  0.35010  0.36380  Biso   1.000  N
  H192     1.0000 0.32985  0.30231  0.39909  Biso   1.000  H
  H193     1.0000 0.29668  0.33331  0.40769  Biso   1.000  H
  C238     1.0000 0.30576  0.40689  0.43610  Biso   1.000  C
  N19      1.0000 0.38255  0.47319  0.48660  Biso   1.000  N
  H194     1.0000 0.33606  0.44320  0.50068  Biso   1.000  H
  H195     1.0000 0.37785  0.43831  0.53348  Biso   1.000  H
  N20      1.0000 0.51030  0.33370  0.03489  Biso   1.000  N
  H196     1.0000 0.54241  0.29671  0.00409  Biso   1.000  H
  H197     1.0000 0.52493  0.33540  0.97859  Biso   1.000  H
  C239     1.0000 0.55493  0.40721  0.97328  Biso   1.000  C
  N21      1.0000 0.61740  0.47319  0.01339  Biso   1.000  N
  H198     1.0000 0.66382  0.44320  0.99927  Biso   1.000  H
  H199     1.0000 0.62203  0.43831  0.96647  Biso   1.000  H
  C240     1.0000 0.41335  0.62710  0.37989  Biso   1.000  C
  H200     1.0000 0.47035  0.63130  0.41539  Biso   1.000  H
  C241     1.0000 0.39948  0.67551  0.32618  Biso   1.000  C
  H201     1.0000 0.44688  0.71280  0.32488  Biso   1.000  H
  C242     1.0000 0.58660  0.62710  0.12010  Biso   1.000  C
  H202     1.0000 0.63969  0.63300  0.16199  Biso   1.000  H
  C243     1.0000 0.53518  0.67450  0.12779  Biso   1.000  C
  H203     1.0000 0.55307  0.71280  0.17510  Biso   1.000  H
  C244     1.0000 0.33206  0.33239  0.33330  Biso   1.000  C
  H204     1.0000 0.30167  0.42689  0.45600  Biso   1.000  H
  H205     1.0000 0.28297  0.38819  0.43120  Biso   1.000  H
  H206     1.0000 0.30736  0.42021  0.41069  Biso   1.000  H
  C245     1.0000 0.36057  0.50139  0.47260  Biso   1.000  C
  C246     1.0000 0.47531  0.34950  0.01839  Biso   1.000  C
  H207     1.0000 0.55602  0.43491  0.98237  Biso   1.000  H
  H208     1.0000 0.52801  0.39609  0.97319  Biso   1.000  H
  H209     1.0000 0.56002  0.40599  0.94578  Biso   1.000  H
  C247     1.0000 0.63939  0.50139  0.02741  Biso   1.000  C
  C248     1.0000 0.39947  0.59451  0.40479  Biso   1.000  C
  C249     1.0000 0.38691  0.64361  0.34669  Biso   1.000  C
  C250     1.0000 0.37337  0.69241  0.28799  Biso   1.000  C
  C251     1.0000 0.60048  0.59451  0.09520  Biso   1.000  C
  C252     1.0000 0.54769  0.64251  0.10728  Biso   1.000  C
  C253     1.0000 0.49329  0.69229  0.11149  Biso   1.000  C
  C254     1.0000 0.33316  0.34691  0.29247  Biso   1.000  C
  H210     1.0000 0.33877  0.30499  0.33760  Biso   1.000  H
  H211     1.0000 0.33365  0.50171  0.47678  Biso   1.000  H
  C255     1.0000 0.37315  0.53439  0.44980  Biso   1.000  C
  C256     1.0000 0.44730  0.35871  0.04519  Biso   1.000  C
  H212     1.0000 0.46803  0.35481  0.99019  Biso   1.000  H
  H213     1.0000 0.66629  0.50171  0.02320  Biso   1.000  H
  C257     1.0000 0.62680  0.53439  0.05019  Biso   1.000  C
  C258     1.0000 0.35935  0.59371  0.40900  Biso   1.000  C
  C259     1.0000 0.42647  0.56521  0.42308  Biso   1.000  C
  H214     1.0000 0.36026  0.63300  0.33800  Biso   1.000  H
  C260     1.0000 0.37939  0.73120  0.27609  Biso   1.000  C
  C261     1.0000 0.34016  0.67059  0.26748  Biso   1.000  C
  C262     1.0000 0.64060  0.59371  0.09099  Biso   1.000  C
  C263     1.0000 0.57351  0.56521  0.07690  Biso   1.000  C
  H215     1.0000 0.52960  0.63130  0.08460  Biso   1.000  H
  C264     1.0000 0.45900  0.66821  0.10320  Biso   1.000  C
  C265     1.0000 0.49048  0.73221  0.10011  Biso   1.000  C
  C266     1.0000 0.33286  0.32205  0.25949  Biso   1.000  C
  C267     1.0000 0.33339  0.38799  0.28760  Biso   1.000  C
  C268     1.0000 0.34615  0.56369  0.43138  Biso   1.000  C
  C269     1.0000 0.41335  0.53519  0.44558  Biso   1.000  C
  C270     1.0000 0.40929  0.37311  0.02623  Biso   1.000  C
  C271     1.0000 0.45758  0.35579  0.08720  Biso   1.000  C
  C272     1.0000 0.65380  0.56369  0.06861  Biso   1.000  C
  C273     1.0000 0.58660  0.53519  0.05440  Biso   1.000  C
  H216     1.0000 0.34087  0.61371  0.39649  Biso   1.000  H
  H217     1.0000 0.45395  0.56569  0.42029  Biso   1.000  H
  C274     1.0000 0.35218  0.74810  0.24359  Biso   1.000  C
  H218     1.0000 0.40196  0.74610  0.29008  Biso   1.000  H
  H219     1.0000 0.33608  0.64409  0.27569  Biso   1.000  H
  C275     1.0000 0.31307  0.68749  0.23511  Biso   1.000  C
  H220     1.0000 0.65908  0.61371  0.10350  Biso   1.000  H
  H221     1.0000 0.54600  0.56569  0.07969  Biso   1.000  H
  C276     1.0000 0.42179  0.68389  0.08339  Biso   1.000  C
  H222     1.0000 0.46089  0.64090  0.11101  Biso   1.000  H
  C277     1.0000 0.45339  0.74789  0.08030  Biso   1.000  C
  H223     1.0000 0.51400  0.74870  0.10580  Biso   1.000  H
  H224     1.0000 0.33277  0.29390  0.26279  Biso   1.000  H
  C278     1.0000 0.33258  0.33841  0.22160  Biso   1.000  C
  C279     1.0000 0.33309  0.40432  0.24980  Biso   1.000  C
  H225     1.0000 0.33356  0.40501  0.31019  Biso   1.000  H
  H226     1.0000 0.31875  0.56309  0.43429  Biso   1.000  H
  H227     1.0000 0.43175  0.51519  0.45809  Biso   1.000  H
  C280     1.0000 0.38148  0.38450  0.04919  Biso   1.000  C
  H228     1.0000 0.40212  0.37520  0.99749  Biso   1.000  H
  C281     1.0000 0.42990  0.36709  0.11016  Biso   1.000  C
  H229     1.0000 0.48350  0.34589  0.10020  Biso   1.000  H
  H230     1.0000 0.68119  0.56309  0.06570  Biso   1.000  H
  H231     1.0000 0.56820  0.51519  0.04189  Biso   1.000  H
  C282     1.0000 0.31907  0.72631  0.22311  Biso   1.000  C
  H232     1.0000 0.35629  0.77469  0.23550  Biso   1.000  H
  H233     1.0000 0.29037  0.67259  0.22108  Biso   1.000  H
  C283     1.0000 0.41898  0.72380  0.07200  Biso   1.000  C
  H234     1.0000 0.39839  0.66749  0.07769  Biso   1.000  H
  H235     1.0000 0.45151  0.77520  0.07251  Biso   1.000  H
  H236     1.0000 0.33237  0.32139  0.19909  Biso   1.000  H
  C284     1.0000 0.33267  0.37949  0.21678  Biso   1.000  C
  H237     1.0000 0.33319  0.43249  0.24640  Biso   1.000  H
  C285     1.0000 0.39180  0.38149  0.09120  Biso   1.000  C
  H238     1.0000 0.35560  0.39440  0.03620  Biso   1.000  H
  H239     1.0000 0.43688  0.36509  0.13891  Biso   1.000  H
  C286     1.0000 0.29028  0.74679  0.18919  Biso   1.000  C
  C287     1.0000 0.37849  0.74029  0.05070  Biso   1.000  C
  C288     1.0000 0.33638  0.39791  0.17665  Biso   1.000  C
  C289     1.0000 0.36379  0.39729  0.11649  Biso   1.000  C
  N22      1.0000 0.26458  0.73051  0.16659  Biso   1.000  N
  H240     1.0000 0.29328  0.77469  0.18601  Biso   1.000  H
  N23      1.0000 0.34919  0.71939  0.03801  Biso   1.000  N
  H241     1.0000 0.37590  0.76840  0.04710  Biso   1.000  H
  C290     1.0000 0.36019  0.37991  0.15290  Biso   1.000  C
  C291     1.0000 0.31608  0.43330  0.16411  Biso   1.000  C
  C292     1.0000 0.34350  0.43270  0.10386  Biso   1.000  C
  C293     1.0000 0.23978  0.75421  0.13448  Biso   1.000  C
  C294     1.0000 0.30889  0.74071  0.01960  Biso   1.000  C
  H242     1.0000 0.37409  0.35570  0.16150  Biso   1.000  H
  C295     1.0000 0.31968  0.45065  0.12770  Biso   1.000  C
  H243     1.0000 0.29979  0.44561  0.18028  Biso   1.000  H
  H244     1.0000 0.34589  0.44460  0.07899  Biso   1.000  H
  C296     1.0000 0.24408  0.73460  0.09668  Biso   1.000  C
  H245     1.0000 0.24970  0.78211  0.13548  Biso   1.000  H
  H246     1.0000 0.21108  0.75430  0.13700  Biso   1.000  H
  C297     1.0000 0.27989  0.72831  0.04250  Biso   1.000  C
  H247     1.0000 0.31261  0.77001  0.02141  Biso   1.000  H
  H248     1.0000 0.29943  0.73331  0.99079  Biso   1.000  H
  C298     1.0000 0.29840  0.48979  0.11489  Biso   1.000  C
  C299     1.0000 0.22098  0.70121  0.08230  Biso   1.000  C
  C300     1.0000 0.27359  0.74819  0.07669  Biso   1.000  C
  C301     1.0000 0.25669  0.69501  0.02820  Biso   1.000  C
  C302     1.0000 0.32090  0.51859  0.09971  Biso   1.000  C
  C303     1.0000 0.25789  0.49700  0.11549  Biso   1.000  C
  C304     1.0000 0.22731  0.68141  0.04810  Biso   1.000  C
  C305     1.0000 0.19050  0.68901  0.10880  Biso   1.000  C
  C306     1.0000 0.30030  0.78271  0.09169  Biso   1.000  C
  C307     1.0000 0.26633  0.67059  0.99449  Biso   1.000  C
  C308     1.0000 0.30288  0.55451  0.08520  Biso   1.000  C
  H249     1.0000 0.34860  0.51370  0.09929  Biso   1.000  H
  H250     1.0000 0.24260  0.47730  0.12579  Biso   1.000  H
  C309     1.0000 0.23988  0.53290  0.10089  Biso   1.000  C
  C310     1.0000 0.20099  0.64650  0.03380  Biso   1.000  C
  H251     1.0000 0.20529  0.67611  0.13370  Biso   1.000  H
  H252     1.0000 0.17050  0.67041  0.09368  Biso   1.000  H
  H253     1.0000 0.17659  0.71280  0.11589  Biso   1.000  H
  H254     1.0000 0.28361  0.80540  0.09620  Biso   1.000  H
  H255     1.0000 0.31608  0.78989  0.07151  Biso   1.000  H
  H256     1.0000 0.31887  0.77550  0.11719  Biso   1.000  H
  H257     1.0000 0.25221  0.64489  0.99318  Biso   1.000  H
  H258     1.0000 0.29572  0.66600  0.99949  Biso   1.000  H
  H259     1.0000 0.25741  0.68481  0.96877  Biso   1.000  H
  C311     1.0000 0.26240  0.56160  0.08581  Biso   1.000  C
  H260     1.0000 0.31830  0.57421  0.07491  Biso   1.000  H
  H261     1.0000 0.21218  0.53770  0.10129  Biso   1.000  H
  N24      1.0000 0.21428  0.60790  0.05019  Biso   1.000  N
  H262     1.0000 0.17390  0.65181  0.03980  Biso   1.000  H
  H263     1.0000 0.19731  0.64510  0.00400  Biso   1.000  H
  C312     1.0000 0.24079  0.59809  0.06621  Biso   1.000  C
  H264     1.0000 0.25930  0.61991  0.07070  Biso   1.000  H
  C313     1.0000 0.63936  0.49861  0.52740  Biso   1.000  C
  C314     1.0000 0.62676  0.46561  0.55020  Biso   1.000  C
  N25      1.0000 0.61736  0.52681  0.51340  Biso   1.000  N
  H265     1.0000 0.66624  0.49829  0.52319  Biso   1.000  H
  C315     1.0000 0.65375  0.43631  0.56859  Biso   1.000  C
  C316     1.0000 0.58654  0.46481  0.55438  Biso   1.000  C
  C317     1.0000 0.63417  0.56029  0.49580  Biso   1.000  C
  C318     1.0000 0.64055  0.40629  0.59100  Biso   1.000  C
  H266     1.0000 0.68114  0.43691  0.56568  Biso   1.000  H
  C319     1.0000 0.57346  0.43479  0.57689  Biso   1.000  C
  H267     1.0000 0.56816  0.48481  0.54190  Biso   1.000  H
  C320     1.0000 0.62524  0.59899  0.51640  Biso   1.000  C
  H268     1.0000 0.66386  0.55680  0.49929  Biso   1.000  H
  H269     1.0000 0.62205  0.56169  0.46648  Biso   1.000  H
  C321     1.0000 0.60046  0.40549  0.59518  Biso   1.000  C
  H270     1.0000 0.65906  0.38629  0.60348  Biso   1.000  H
  H271     1.0000 0.54594  0.43431  0.57968  Biso   1.000  H
  C322     1.0000 0.58805  0.61771  0.50259  Biso   1.000  C
  C323     1.0000 0.65404  0.61610  0.54748  Biso   1.000  C
  C324     1.0000 0.58655  0.37290  0.62008  Biso   1.000  C
  C325     1.0000 0.57967  0.65351  0.51979  Biso   1.000  C
  C326     1.0000 0.55497  0.59279  0.47330  Biso   1.000  C
  C327     1.0000 0.64554  0.65190  0.56468  Biso   1.000  C
  C328     1.0000 0.69415  0.59311  0.56389  Biso   1.000  C
  C329     1.0000 0.54764  0.35749  0.60730  Biso   1.000  C
  C330     1.0000 0.61298  0.35639  0.65328  Biso   1.000  C
  C331     1.0000 0.53806  0.67420  0.50589  Biso   1.000  C
  C332     1.0000 0.60835  0.67059  0.55090  Biso   1.000  C
  H272     1.0000 0.55607  0.56509  0.48239  Biso   1.000  H
  H273     1.0000 0.52805  0.60391  0.47318  Biso   1.000  H
  H274     1.0000 0.56007  0.59401  0.44580  Biso   1.000  H
  C333     1.0000 0.67594  0.66901  0.59848  Biso   1.000  C
  H275     1.0000 0.69827  0.57311  0.54399  Biso   1.000  H
  H276     1.0000 0.71696  0.61181  0.56880  Biso   1.000  H
  H277     1.0000 0.69254  0.57979  0.58928  Biso   1.000  H
  C334     1.0000 0.53513  0.32550  0.62777  Biso   1.000  C
  H278     1.0000 0.52955  0.36870  0.58458  Biso   1.000  H
  C335     1.0000 0.60044  0.32449  0.67378  Biso   1.000  C
  H279     1.0000 0.63964  0.36700  0.66200  Biso   1.000  H
  N26      1.0000 0.51024  0.66630  0.53488  Biso   1.000  N
  H280     1.0000 0.52497  0.66460  0.47860  Biso   1.000  H
  H281     1.0000 0.54236  0.70329  0.50410  Biso   1.000  H
  C336     1.0000 0.59894  0.70800  0.57129  Biso   1.000  C
  N27      1.0000 0.67616  0.64990  0.63620  Biso   1.000  N
  H282     1.0000 0.67004  0.69769  0.60088  Biso   1.000  H
  H283     1.0000 0.70325  0.66669  0.59228  Biso   1.000  H
  C337     1.0000 0.49324  0.30771  0.61148  Biso   1.000  C
  C338     1.0000 0.56153  0.30899  0.66109  Biso   1.000  C
  C339     1.0000 0.62653  0.30759  0.71198  Biso   1.000  C
  C340     1.0000 0.47526  0.65050  0.51840  Biso   1.000  C
  H284     1.0000 0.60755  0.73111  0.55750  Biso   1.000  H
  H285     1.0000 0.56965  0.70949  0.56998  Biso   1.000  H
  H286     1.0000 0.61354  0.70771  0.59958  Biso   1.000  H
  C341     1.0000 0.66785  0.66761  0.66670  Biso   1.000  C
  C342     1.0000 0.45895  0.33179  0.60318  Biso   1.000  C
  C343     1.0000 0.49043  0.26779  0.60009  Biso   1.000  C
  H287     1.0000 0.55305  0.28720  0.67509  Biso   1.000  H
  C344     1.0000 0.62054  0.26880  0.72388  Biso   1.000  C
  C345     1.0000 0.65973  0.32941  0.73248  Biso   1.000  C
  C346     1.0000 0.44724  0.64129  0.54518  Biso   1.000  C
  H288     1.0000 0.46807  0.64519  0.49020  Biso   1.000  H
  H289     1.0000 0.66113  0.69501  0.66240  Biso   1.000  H
  C347     1.0000 0.66674  0.65309  0.70750  Biso   1.000  C
  C348     1.0000 0.42175  0.31611  0.58340  Biso   1.000  C
  H290     1.0000 0.46084  0.35910  0.61099  Biso   1.000  H
  C349     1.0000 0.45334  0.25211  0.58028  Biso   1.000  C
  H291     1.0000 0.51395  0.25130  0.60578  Biso   1.000  H
  C350     1.0000 0.64772  0.25190  0.75638  Biso   1.000  C
  H292     1.0000 0.59794  0.25390  0.70989  Biso   1.000  H
  H293     1.0000 0.66385  0.35591  0.72428  Biso   1.000  H
  C351     1.0000 0.68683  0.31251  0.76489  Biso   1.000  C
  C352     1.0000 0.40927  0.62689  0.52621  Biso   1.000  C
  C353     1.0000 0.45756  0.64421  0.58719  Biso   1.000  C
  C354     1.0000 0.66704  0.67795  0.74048  Biso   1.000  C
  C355     1.0000 0.66654  0.61201  0.71237  Biso   1.000  C
  C356     1.0000 0.41893  0.27620  0.57198  Biso   1.000  C
  H294     1.0000 0.39834  0.33251  0.57768  Biso   1.000  H
  H295     1.0000 0.45146  0.22480  0.57250  Biso   1.000  H
  C357     1.0000 0.68083  0.27369  0.77689  Biso   1.000  C
  H296     1.0000 0.64365  0.22531  0.76450  Biso   1.000  H
  H297     1.0000 0.70952  0.32741  0.77889  Biso   1.000  H
  C358     1.0000 0.38144  0.61550  0.54920  Biso   1.000  C
  H298     1.0000 0.40217  0.62480  0.49750  Biso   1.000  H
  C359     1.0000 0.42984  0.63291  0.61015  Biso   1.000  C
  H299     1.0000 0.48345  0.65411  0.60018  Biso   1.000  H
  H300     1.0000 0.66713  0.70610  0.73718  Biso   1.000  H
  C360     1.0000 0.66732  0.66159  0.77837  Biso   1.000  C
  C361     1.0000 0.66683  0.59568  0.75017  Biso   1.000  C
  H301     1.0000 0.66634  0.59499  0.68978  Biso   1.000  H
  C362     1.0000 0.37846  0.25971  0.55069  Biso   1.000  C
  C363     1.0000 0.70962  0.25321  0.81078  Biso   1.000  C
  C364     1.0000 0.39175  0.61851  0.59119  Biso   1.000  C
  H302     1.0000 0.35554  0.60560  0.53618  Biso   1.000  H
  H303     1.0000 0.43686  0.63491  0.63889  Biso   1.000  H
  H304     1.0000 0.66753  0.67861  0.80088  Biso   1.000  H
  C365     1.0000 0.66723  0.62051  0.78322  Biso   1.000  C
  H305     1.0000 0.66674  0.56751  0.75360  Biso   1.000  H
  N28      1.0000 0.34917  0.28061  0.53800  Biso   1.000  N
  H306     1.0000 0.37585  0.23160  0.54708  Biso   1.000  H
  N29      1.0000 0.73531  0.26949  0.83338  Biso   1.000  N
  H307     1.0000 0.70663  0.22531  0.81399  Biso   1.000  H
  C366     1.0000 0.36373  0.60271  0.61648  Biso   1.000  C
  C367     1.0000 0.66351  0.60209  0.82332  Biso   1.000  C
  C368     1.0000 0.30884  0.25929  0.51958  Biso   1.000  C
  C369     1.0000 0.76012  0.24579  0.86548  Biso   1.000  C
  C370     1.0000 0.34344  0.56730  0.60385  Biso   1.000  C
  C371     1.0000 0.36014  0.62009  0.65288  Biso   1.000  C
  C372     1.0000 0.63971  0.62009  0.84707  Biso   1.000  C
  C373     1.0000 0.68382  0.56670  0.83589  Biso   1.000  C
  C374     1.0000 0.27984  0.27169  0.54248  Biso   1.000  C
  H308     1.0000 0.31256  0.22999  0.52140  Biso   1.000  H
  H309     1.0000 0.29944  0.26669  0.49078  Biso   1.000  H
  C375     1.0000 0.75581  0.26540  0.90329  Biso   1.000  C
  H310     1.0000 0.75023  0.21789  0.86449  Biso   1.000  H
  H311     1.0000 0.78882  0.24570  0.86297  Biso   1.000  H
  C376     1.0000 0.31963  0.54935  0.62768  Biso   1.000  C
  H312     1.0000 0.34584  0.55540  0.57898  Biso   1.000  H
  C377     1.0000 0.33634  0.60209  0.67666  Biso   1.000  C
  H313     1.0000 0.37404  0.64430  0.66149  Biso   1.000  H
  C378     1.0000 0.63611  0.60271  0.88348  Biso   1.000  C
  H314     1.0000 0.62584  0.64430  0.83850  Biso   1.000  H
  C379     1.0000 0.68022  0.54935  0.87227  Biso   1.000  C
  H315     1.0000 0.70013  0.55439  0.81969  Biso   1.000  H
  C380     1.0000 0.25664  0.30499  0.52818  Biso   1.000  C
  C381     1.0000 0.27354  0.25181  0.57668  Biso   1.000  C
  C382     1.0000 0.72630  0.25181  0.92328  Biso   1.000  C
  C383     1.0000 0.77892  0.29879  0.91767  Biso   1.000  C
  C384     1.0000 0.29836  0.51021  0.61490  Biso   1.000  C
  C385     1.0000 0.31603  0.56670  0.66409  Biso   1.000  C
  C386     1.0000 0.33265  0.62051  0.71676  Biso   1.000  C
  C387     1.0000 0.60813  0.61851  0.90877  Biso   1.000  C
  C388     1.0000 0.65641  0.56730  0.89614  Biso   1.000  C
  C389     1.0000 0.70152  0.51021  0.88508  Biso   1.000  C
  C390     1.0000 0.26637  0.32941  0.49450  Biso   1.000  C
  C391     1.0000 0.22726  0.31859  0.54808  Biso   1.000  C
  C392     1.0000 0.24404  0.26540  0.59670  Biso   1.000  C
  C393     1.0000 0.30025  0.21729  0.59170  Biso   1.000  C
  C394     1.0000 0.72001  0.27169  0.95747  Biso   1.000  C
  C395     1.0000 0.69963  0.21729  0.90828  Biso   1.000  C
  C396     1.0000 0.77262  0.31859  0.95187  Biso   1.000  C
  C397     1.0000 0.80943  0.31099  0.89117  Biso   1.000  C
  C398     1.0000 0.32085  0.48141  0.59970  Biso   1.000  C
  C399     1.0000 0.25784  0.50300  0.61548  Biso   1.000  C
  H316     1.0000 0.29975  0.55439  0.68030  Biso   1.000  H
  C400     1.0000 0.33253  0.66159  0.72158  Biso   1.000  C
  C401     1.0000 0.33304  0.59568  0.74978  Biso   1.000  C
  C402     1.0000 0.61841  0.61550  0.95078  Biso   1.000  C
  C403     1.0000 0.57003  0.63291  0.88981  Biso   1.000  C
  H317     1.0000 0.65400  0.55540  0.92097  Biso   1.000  H
  C404     1.0000 0.67903  0.48141  0.90029  Biso   1.000  C
  C405     1.0000 0.74203  0.50300  0.88448  Biso   1.000  C
  H318     1.0000 0.25226  0.35511  0.49320  Biso   1.000  H
  H319     1.0000 0.29577  0.33400  0.49950  Biso   1.000  H
  H320     1.0000 0.25746  0.31519  0.46879  Biso   1.000  H
  C406     1.0000 0.22096  0.29879  0.58228  Biso   1.000  C
  C407     1.0000 0.20094  0.35350  0.53379  Biso   1.000  C
  C408     1.0000 0.23973  0.24579  0.63450  Biso   1.000  C
  H321     1.0000 0.28355  0.19460  0.59618  Biso   1.000  H
  H322     1.0000 0.31606  0.21011  0.57150  Biso   1.000  H
  H323     1.0000 0.31885  0.22450  0.61717  Biso   1.000  H
  C409     1.0000 0.69100  0.25929  0.98037  Biso   1.000  C
  C410     1.0000 0.74321  0.30499  0.97177  Biso   1.000  C
  H324     1.0000 0.71632  0.19460  0.90377  Biso   1.000  H
  H325     1.0000 0.68382  0.21011  0.92849  Biso   1.000  H
  H326     1.0000 0.68102  0.22450  0.88278  Biso   1.000  H
  C411     1.0000 0.79891  0.35350  0.96620  Biso   1.000  C
  H327     1.0000 0.79463  0.32389  0.86627  Biso   1.000  H
  H328     1.0000 0.82942  0.32959  0.90628  Biso   1.000  H
  H329     1.0000 0.82331  0.28720  0.88408  Biso   1.000  H
  C412     1.0000 0.30286  0.44549  0.58519  Biso   1.000  C
  H330     1.0000 0.34855  0.48630  0.59930  Biso   1.000  H
  C413     1.0000 0.23983  0.46710  0.60088  Biso   1.000  C
  H331     1.0000 0.24254  0.52270  0.62578  Biso   1.000  H
  C414     1.0000 0.33284  0.67795  0.75947  Biso   1.000  C
  H332     1.0000 0.33234  0.67861  0.69908  Biso   1.000  H
  H333     1.0000 0.33314  0.56751  0.74639  Biso   1.000  H
  C415     1.0000 0.33334  0.61201  0.78758  Biso   1.000  C
  C416     1.0000 0.59061  0.62689  0.97374  Biso   1.000  C
  H334     1.0000 0.64430  0.60560  0.96377  Biso   1.000  H
  C417     1.0000 0.54232  0.64421  0.91280  Biso   1.000  C
  H335     1.0000 0.56302  0.63491  0.86109  Biso   1.000  H
  C418     1.0000 0.69702  0.44549  0.91480  Biso   1.000  C
  H336     1.0000 0.65133  0.48630  0.90068  Biso   1.000  H
  C419     1.0000 0.76001  0.46710  0.89908  Biso   1.000  C
  H337     1.0000 0.75733  0.52270  0.87418  Biso   1.000  H
  C420     1.0000 0.19044  0.31099  0.60878  Biso   1.000  C
  N30      1.0000 0.21427  0.39210  0.55020  Biso   1.000  N
  H338     1.0000 0.17385  0.34819  0.53978  Biso   1.000  H
  H339     1.0000 0.19726  0.35490  0.50398  Biso   1.000  H
  N31      1.0000 0.26453  0.26949  0.66658  Biso   1.000  N
  H340     1.0000 0.24965  0.21789  0.63550  Biso   1.000  H
  H341     1.0000 0.21106  0.24570  0.63698  Biso   1.000  H
  N32      1.0000 0.65071  0.28061  0.96199  Biso   1.000  N
  H342     1.0000 0.68732  0.22999  0.97858  Biso   1.000  H
  H343     1.0000 0.70050  0.26669  0.00921  Biso   1.000  H
  C421     1.0000 0.73361  0.32941  0.00551  Biso   1.000  C
  N33      1.0000 0.78562  0.39210  0.94978  Biso   1.000  N
  H344     1.0000 0.82602  0.34819  0.96017  Biso   1.000  H
  H345     1.0000 0.80262  0.35490  0.99597  Biso   1.000  H
  C422     1.0000 0.26235  0.43840  0.58579  Biso   1.000  C
  H346     1.0000 0.31825  0.42579  0.57489  Biso   1.000  H
  H347     1.0000 0.21214  0.46230  0.60130  Biso   1.000  H
  C423     1.0000 0.33314  0.65309  0.79246  Biso   1.000  C
  H348     1.0000 0.33272  0.70610  0.76277  Biso   1.000  H
  H349     1.0000 0.33354  0.59499  0.81018  Biso   1.000  H
  C424     1.0000 0.55260  0.64129  0.95478  Biso   1.000  C
  H350     1.0000 0.59781  0.62480  0.00251  Biso   1.000  H
  H351     1.0000 0.51643  0.65411  0.89977  Biso   1.000  H
  C425     1.0000 0.73753  0.43840  0.91419  Biso   1.000  C
  H352     1.0000 0.68161  0.42579  0.92509  Biso   1.000  H
  H353     1.0000 0.78771  0.46230  0.89868  Biso   1.000  H
  H354     1.0000 0.20524  0.32389  0.63368  Biso   1.000  H
  H355     1.0000 0.17046  0.32959  0.59370  Biso   1.000  H
  H356     1.0000 0.17654  0.28720  0.61590  Biso   1.000  H
  C426     1.0000 0.24074  0.40191  0.56620  Biso   1.000  C
  C427     1.0000 0.29024  0.25321  0.68920  Biso   1.000  C
  C428     1.0000 0.62142  0.25971  0.94929  Biso   1.000  C
  H357     1.0000 0.74768  0.35511  0.00678  Biso   1.000  H
  H358     1.0000 0.70418  0.33400  0.00051  Biso   1.000  H
  H359     1.0000 0.74248  0.31519  0.03120  Biso   1.000  H
  C429     1.0000 0.75911  0.40191  0.93379  Biso   1.000  C
  C430     1.0000 0.33204  0.66761  0.83329  Biso   1.000  C
  C431     1.0000 0.52462  0.65050  0.98158  Biso   1.000  C
  H360     1.0000 0.25925  0.38009  0.57068  Biso   1.000  H
  C432     1.0000 0.31905  0.27369  0.72309  Biso   1.000  C
  H361     1.0000 0.29323  0.22531  0.68599  Biso   1.000  H
  C433     1.0000 0.58091  0.27620  0.92797  Biso   1.000  C
  H362     1.0000 0.62403  0.23160  0.95287  Biso   1.000  H
  H363     1.0000 0.74063  0.38009  0.92927  Biso   1.000  H
  N34      1.0000 0.32373  0.64990  0.86379  Biso   1.000  N
  H364     1.0000 0.33872  0.69501  0.83759  Biso   1.000  H
  N35      1.0000 0.48960  0.66630  0.96508  Biso   1.000  N
  H365     1.0000 0.53191  0.64519  0.00981  Biso   1.000  H
  C434     1.0000 0.35213  0.25190  0.74360  Biso   1.000  C
  C435     1.0000 0.31305  0.31251  0.73509  Biso   1.000  C
  C436     1.0000 0.57811  0.31611  0.91658  Biso   1.000  C
  C437     1.0000 0.54650  0.25211  0.91967  Biso   1.000  C
  C438     1.0000 0.32390  0.66901  0.90147  Biso   1.000  C
  C439     1.0000 0.46182  0.67420  0.99409  Biso   1.000  C
  H366     1.0000 0.35624  0.22531  0.73548  Biso   1.000  H
  C440     1.0000 0.37933  0.26880  0.77607  Biso   1.000  C
  C441     1.0000 0.34015  0.32941  0.76750  Biso   1.000  C
  H367     1.0000 0.29033  0.32741  0.72110  Biso   1.000  H
  C442     1.0000 0.54093  0.33179  0.89677  Biso   1.000  C
  H368     1.0000 0.60151  0.33251  0.92228  Biso   1.000  H
  C443     1.0000 0.50942  0.26779  0.89989  Biso   1.000  C
  H369     1.0000 0.54842  0.22480  0.92749  Biso   1.000  H
  C444     1.0000 0.35430  0.65190  0.93527  Biso   1.000  C
  H370     1.0000 0.32983  0.69769  0.89908  Biso   1.000  H
  H371     1.0000 0.29663  0.66669  0.90768  Biso   1.000  H
  C445     1.0000 0.42021  0.65351  0.98019  Biso   1.000  C
  H372     1.0000 0.45752  0.70329  0.99588  Biso   1.000  H
  H373     1.0000 0.47500  0.66460  0.02141  Biso   1.000  H
  H374     1.0000 0.40194  0.25390  0.79009  Biso   1.000  H
  C446     1.0000 0.37332  0.30759  0.78797  Biso   1.000  C
  H375     1.0000 0.33603  0.35591  0.77568  Biso   1.000  H
  C447     1.0000 0.50661  0.30771  0.88847  Biso   1.000  C
  H376     1.0000 0.53901  0.35910  0.88899  Biso   1.000  H
  H377     1.0000 0.48592  0.25130  0.89417  Biso   1.000  H
  C448     1.0000 0.34580  0.61610  0.95248  Biso   1.000  C
  C449     1.0000 0.39153  0.67059  0.94908  Biso   1.000  C
  C450     1.0000 0.41180  0.61771  0.99739  Biso   1.000  C
  C451     1.0000 0.39943  0.32449  0.82617  Biso   1.000  C
  C452     1.0000 0.46472  0.32550  0.87218  Biso   1.000  C
  C453     1.0000 0.37461  0.59899  0.98358  Biso   1.000  C
  C454     1.0000 0.30571  0.59311  0.93609  Biso   1.000  C
  C455     1.0000 0.40091  0.70800  0.92867  Biso   1.000  C
  C456     1.0000 0.44500  0.59279  0.02668  Biso   1.000  C
  C457     1.0000 0.43832  0.30899  0.83889  Biso   1.000  C
  C458     1.0000 0.38686  0.35639  0.84667  Biso   1.000  C
  C459     1.0000 0.45221  0.35749  0.89268  Biso   1.000  C
  C460     1.0000 0.36581  0.56029  0.00421  Biso   1.000  C
  H378     1.0000 0.30162  0.57311  0.95599  Biso   1.000  H
  H379     1.0000 0.28292  0.61181  0.93118  Biso   1.000  H
  H380     1.0000 0.30730  0.57979  0.91068  Biso   1.000  H
  H381     1.0000 0.39230  0.73111  0.94248  Biso   1.000  H
  H382     1.0000 0.43022  0.70949  0.92997  Biso   1.000  H
  H383     1.0000 0.38630  0.70771  0.90038  Biso   1.000  H
  H384     1.0000 0.44390  0.56509  0.01760  Biso   1.000  H
  H385     1.0000 0.47189  0.60391  0.02681  Biso   1.000  H
  H386     1.0000 0.43987  0.59401  0.05419  Biso   1.000  H
  H387     1.0000 0.44683  0.28720  0.82490  Biso   1.000  H
  C461     1.0000 0.41333  0.37290  0.87987  Biso   1.000  C
  H388     1.0000 0.36024  0.36700  0.83798  Biso   1.000  H
  H389     1.0000 0.47033  0.36870  0.91537  Biso   1.000  H
  N36      1.0000 0.38252  0.52681  0.98658  Biso   1.000  N
  H390     1.0000 0.33608  0.55680  0.00070  Biso   1.000  H
  H391     1.0000 0.37789  0.56169  0.03350  Biso   1.000  H
  C462     1.0000 0.39942  0.40549  0.90477  Biso   1.000  C
  C463     1.0000 0.36052  0.49861  0.97259  Biso   1.000  C
  C464     1.0000 0.35933  0.40629  0.90898  Biso   1.000  C
  C465     1.0000 0.42643  0.43479  0.92309  Biso   1.000  C
  C466     1.0000 0.37312  0.46561  0.94978  Biso   1.000  C
  H392     1.0000 0.33360  0.49829  0.97677  Biso   1.000  H
  C467     1.0000 0.34610  0.43631  0.93139  Biso   1.000  C
  H393     1.0000 0.34082  0.38629  0.89647  Biso   1.000  H
  H394     1.0000 0.45393  0.43431  0.92028  Biso   1.000  H
  C468     1.0000 0.41330  0.46481  0.94557  Biso   1.000  C
  H395     1.0000 0.31870  0.43691  0.93427  Biso   1.000  H
  H396     1.0000 0.43173  0.48481  0.95808  Biso   1.000  H
  C469     1.0000 0.81826  0.40701  0.43998  Biso   1.000  C
  C470     1.0000 0.83527  0.37040  0.42359  Biso   1.000  C
  N37      1.0000 0.83075  0.44200  0.41829  Biso   1.000  N
  H397     1.0000 0.78827  0.40531  0.43510  Biso   1.000  H
  H398     1.0000 0.82914  0.40939  0.46948  Biso   1.000  H
  C471     1.0000 0.81546  0.35311  0.38740  Biso   1.000  C
  C472     1.0000 0.87025  0.35299  0.44628  Biso   1.000  C
  C473     1.0000 0.85355  0.46910  0.43928  Biso   1.000  C
  C474     1.0000 0.77606  0.37290  0.36468  Biso   1.000  C
  C475     1.0000 0.83068  0.31841  0.37380  Biso   1.000  C
  C476     1.0000 0.89297  0.37401  0.48508  Biso   1.000  C
  C477     1.0000 0.88546  0.31820  0.43268  Biso   1.000  C
  C478     1.0000 0.86655  0.50320  0.42008  Biso   1.000  C
  H399     1.0000 0.86167  0.46621  0.46779  Biso   1.000  H
  H400     1.0000 0.75325  0.36360  0.37598  Biso   1.000  H
  H401     1.0000 0.77126  0.36581  0.33591  Biso   1.000  H
  H402     1.0000 0.77858  0.40191  0.36759  Biso   1.000  H
  C479     1.0000 0.86566  0.30091  0.39649  Biso   1.000  C
  C480     1.0000 0.81048  0.29960  0.33430  Biso   1.000  C
  H403     1.0000 0.89247  0.40289  0.48069  Biso   1.000  H
  H404     1.0000 0.92117  0.36470  0.49199  Biso   1.000  H
  H405     1.0000 0.87965  0.36780  0.50750  Biso   1.000  H
  C481     1.0000 0.92437  0.29790  0.45828  Biso   1.000  C
  C482     1.0000 0.88865  0.53191  0.44528  Biso   1.000  C
  C483     1.0000 0.85626  0.50949  0.37849  Biso   1.000  C
  C484     1.0000 0.88495  0.26421  0.38089  Biso   1.000  C
  N38      1.0000 0.82397  0.31939  0.29998  Biso   1.000  N
  H406     1.0000 0.81736  0.27089  0.33479  Biso   1.000  H
  H407     1.0000 0.78057  0.30201  0.33061  Biso   1.000  H
  N39      1.0000 0.96255  0.31391  0.44549  Biso   1.000  N
  H408     1.0000 0.92614  0.30350  0.48738  Biso   1.000  H
  H409     1.0000 0.92256  0.26871  0.45428  Biso   1.000  H
  H410     1.0000 0.89577  0.52771  0.47369  Biso   1.000  H
  C485     1.0000 0.90047  0.56691  0.42890  Biso   1.000  C
  C486     1.0000 0.86797  0.54440  0.36211  Biso   1.000  C
  H411     1.0000 0.84117  0.48991  0.36129  Biso   1.000  H
  H412     1.0000 0.86618  0.24159  0.37849  Biso   1.000  H
  H413     1.0000 0.91037  0.25750  0.40000  Biso   1.000  H
  H414     1.0000 0.89078  0.27020  0.35429  Biso   1.000  H
  C487     1.0000 0.79748  0.33269  0.27069  Biso   1.000  C
  C488     1.0000 0.99076  0.32789  0.47188  Biso   1.000  C
  H415     1.0000 0.91555  0.58650  0.44598  Biso   1.000  H
  C489     1.0000 0.89006  0.57311  0.38728  Biso   1.000  C
  H416     1.0000 0.86088  0.54870  0.33370  Biso   1.000  H
  H417     1.0000 0.76968  0.32989  0.27200  Biso   1.000  H
  C490     1.0000 0.80649  0.35180  0.23568  Biso   1.000  C
  H418     1.0000 0.98936  0.32699  0.49959  Biso   1.000  H
  C491     1.0000 0.02526  0.34509  0.46049  Biso   1.000  C
  C492     1.0000 0.90176  0.61213  0.37029  Biso   1.000  C
  C493     1.0000 0.84599  0.35540  0.22999  Biso   1.000  C
  C494     1.0000 0.77389  0.36271  0.20491  Biso   1.000  C
  C495     1.0000 0.05855  0.35540  0.49078  Biso   1.000  C
  C496     1.0000 0.02607  0.35189  0.42008  Biso   1.000  C
  C497     1.0000 0.93776  0.63151  0.38779  Biso   1.000  C
  C498     1.0000 0.87493  0.62951  0.33791  Biso   1.000  C
  H419     1.0000 0.86829  0.34801  0.25101  Biso   1.000  H
  C499     1.0000 0.85289  0.36980  0.19349  Biso   1.000  C
  C500     1.0000 0.78068  0.37711  0.16841  Biso   1.000  C
  H420     1.0000 0.74688  0.36020  0.20878  Biso   1.000  H
  H421     1.0000 0.05805  0.35081  0.51840  Biso   1.000  H
  C501     1.0000 0.09266  0.37260  0.48069  Biso   1.000  C
  C502     1.0000 0.06017  0.36909  0.41000  Biso   1.000  C
  H422     1.0000 0.00336  0.34491  0.39939  Biso   1.000  H
  C503     1.0000 0.94680  0.66830  0.37298  Biso   1.000  C
  H423     1.0000 0.95607  0.61959  0.41000  Biso   1.000  H
  H424     1.0000 0.85038  0.61619  0.32600  Biso   1.000  H
  C504     1.0000 0.88397  0.66621  0.32306  Biso   1.000  C
  H425     1.0000 0.87978  0.37231  0.18961  Biso   1.000  H
  C505     1.0000 0.82017  0.38071  0.16268  Biso   1.000  C
  H426     1.0000 0.75837  0.38450  0.14739  Biso   1.000  H
  H427     1.0000 0.11534  0.37961  0.50129  Biso   1.000  H
  C506     1.0000 0.09346  0.37940  0.44028  Biso   1.000  C
  H428     1.0000 0.06068  0.37371  0.38240  Biso   1.000  H
  C507     1.0000 0.98495  0.68761  0.39218  Biso   1.000  C
  C508     1.0000 0.91998  0.68562  0.34060  Biso   1.000  C
  C509     1.0000 0.85527  0.68371  0.28638  Biso   1.000  C
  C510     1.0000 0.82960  0.39550  0.12400  Biso   1.000  C
  C511     1.0000 0.12885  0.39639  0.42581  Biso   1.000  C
  C512     1.0000 0.98575  0.72860  0.39879  Biso   1.000  C
  C513     1.0000 0.02037  0.66537  0.40379  Biso   1.000  C
  H429     1.0000 0.92618  0.71069  0.33039  Biso   1.000  H
  C514     1.0000 0.87028  0.70511  0.25761  Biso   1.000  C
  C515     1.0000 0.81367  0.67781  0.28151  Biso   1.000  C
  C516     1.0000 0.80700  0.42719  0.10450  Biso   1.000  C
  C517     1.0000 0.86167  0.38009  0.10889  Biso   1.000  C
  C518     1.0000 0.15144  0.42811  0.44528  Biso   1.000  C
  C519     1.0000 0.13827  0.38009  0.39109  Biso   1.000  C
  H430     1.0000 0.96158  0.74381  0.39088  Biso   1.000  H
  C520     1.0000 0.02186  0.74721  0.41708  Biso   1.000  C
  H431     1.0000 0.01988  0.63741  0.39930  Biso   1.000  H
  C521     1.0000 0.05657  0.68401  0.42208  Biso   1.000  C
  C522     1.0000 0.84368  0.72049  0.22381  Biso   1.000  C
  H432     1.0000 0.89867  0.70920  0.26088  Biso   1.000  H
  H433     1.0000 0.80338  0.66320  0.30129  Biso   1.000  H
  C523     1.0000 0.78707  0.69310  0.24780  Biso   1.000  C
  C524     1.0000 0.81640  0.44349  0.06979  Biso   1.000  C
  H434     1.0000 0.78508  0.43780  0.11480  Biso   1.000  H
  C525     1.0000 0.87110  0.39639  0.07421  Biso   1.000  C
  H435     1.0000 0.87718  0.35841  0.12231  Biso   1.000  H
  H436     1.0000 0.14506  0.43920  0.46900  Biso   1.000  H
  C526     1.0000 0.18355  0.44349  0.43020  Biso   1.000  C
  C527     1.0000 0.17038  0.39550  0.37598  Biso   1.000  C
  H437     1.0000 0.12278  0.35841  0.37771  Biso   1.000  H
  C528     1.0000 0.05725  0.72500  0.42868  Biso   1.000  C
  H438     1.0000 0.02236  0.77520  0.42160  Biso   1.000  H
  H439     1.0000 0.08065  0.66880  0.42999  Biso   1.000  H
  C529     1.0000 0.80208  0.71450  0.21890  Biso   1.000  C
  H440     1.0000 0.85398  0.73510  0.20409  Biso   1.000  H
  H441     1.0000 0.75867  0.68901  0.24440  Biso   1.000  H
  C530     1.0000 0.84850  0.42811  0.05470  Biso   1.000  C
  C531     1.0000 0.79450  0.48073  0.05261  Biso   1.000  C
  C532     1.0000 0.90648  0.37940  0.05970  Biso   1.000  C
  C533     1.0000 0.19298  0.42719  0.39549  Biso   1.000  C
  C534     1.0000 0.20545  0.48073  0.44740  Biso   1.000  C
  C535     1.0000 0.17978  0.38071  0.33730  Biso   1.000  C
  C536     1.0000 0.09537  0.74589  0.44940  Biso   1.000  C
  C537     1.0000 0.77417  0.73069  0.18358  Biso   1.000  C
  H442     1.0000 0.85489  0.43920  0.03099  Biso   1.000  H
  C538     1.0000 0.78518  0.50929  0.07896  Biso   1.000  C
  C539     1.0000 0.78460  0.48740  0.01099  Biso   1.000  C
  C540     1.0000 0.90729  0.37260  0.01929  Biso   1.000  C
  C541     1.0000 0.93980  0.36909  0.08999  Biso   1.000  C
  H443     1.0000 0.21486  0.43780  0.38519  Biso   1.000  H
  C542     1.0000 0.21477  0.50929  0.42102  Biso   1.000  C
  C543     1.0000 0.21535  0.48740  0.48899  Biso   1.000  C
  C544     1.0000 0.14706  0.36980  0.30650  Biso   1.000  C
  C545     1.0000 0.21928  0.37711  0.33161  Biso   1.000  C
  N40      1.0000 0.12717  0.72520  0.46449  Biso   1.000  N
  H444     1.0000 0.09605  0.77421  0.45149  Biso   1.000  H
  N41      1.0000 0.78339  0.74759  0.15660  Biso   1.000  N
  H445     1.0000 0.74599  0.72729  0.18240  Biso   1.000  H
  C546     1.0000 0.76589  0.54449  0.06379  Biso   1.000  C
  H446     1.0000 0.79198  0.50481  0.10741  Biso   1.000  H
  H447     1.0000 0.79082  0.46779  0.99297  Biso   1.000  H
  C547     1.0000 0.76523  0.52249  0.99585  Biso   1.000  C
  C548     1.0000 0.94140  0.35540  0.00921  Biso   1.000  C
  H448     1.0000 0.88451  0.37961  0.99867  Biso   1.000  H
  H449     1.0000 0.93930  0.37371  0.11758  Biso   1.000  H
  C549     1.0000 0.97388  0.35189  0.07990  Biso   1.000  C
  C550     1.0000 0.23406  0.54449  0.43620  Biso   1.000  C
  H450     1.0000 0.20796  0.50481  0.39258  Biso   1.000  H
  H451     1.0000 0.20906  0.46779  0.50698  Biso   1.000  H
  C551     1.0000 0.23466  0.52249  0.50410  Biso   1.000  C
  C552     1.0000 0.15399  0.35540  0.27000  Biso   1.000  C
  H452     1.0000 0.12017  0.37231  0.31040  Biso   1.000  H
  H453     1.0000 0.24158  0.38450  0.35260  Biso   1.000  H
  C553     1.0000 0.22606  0.36271  0.29511  Biso   1.000  C
  C554     1.0000 0.16485  0.74849  0.48620  Biso   1.000  C
  C555     1.0000 0.75268  0.76071  0.11789  Biso   1.000  C
  C556     1.0000 0.75598  0.55108  0.02229  Biso   1.000  C
  H454     1.0000 0.75960  0.56399  0.08190  Biso   1.000  H
  H455     1.0000 0.75841  0.52699  0.96747  Biso   1.000  H
  C557     1.0000 0.97469  0.34509  0.03950  Biso   1.000  C
  H456     1.0000 0.94181  0.35081  0.98158  Biso   1.000  H
  H457     1.0000 0.99658  0.34491  0.10059  Biso   1.000  H
  C558     1.0000 0.24397  0.55108  0.47769  Biso   1.000  C
  H458     1.0000 0.24037  0.56399  0.41808  Biso   1.000  H
  H459     1.0000 0.24144  0.52699  0.53248  Biso   1.000  H
  C559     1.0000 0.19349  0.35180  0.26430  Biso   1.000  C
  H460     1.0000 0.13169  0.34801  0.24901  Biso   1.000  H
  H461     1.0000 0.25307  0.36020  0.29120  Biso   1.000  H
  C560     1.0000 0.19887  0.73319  0.46800  Biso   1.000  C
  H462     1.0000 0.16104  0.77749  0.48148  Biso   1.000  H
  H463     1.0000 0.17056  0.74330  0.51580  Biso   1.000  H
  C561     1.0000 0.76038  0.73910  0.08220  Biso   1.000  C
  H464     1.0000 0.72470  0.75519  0.12110  Biso   1.000  H
  H465     1.0000 0.75530  0.78969  0.11380  Biso   1.000  H
  C562     1.0000 0.73950  0.58969  0.00678  Biso   1.000  C
  C563     1.0000 0.00919  0.32789  0.02811  Biso   1.000  C
  C564     1.0000 0.26045  0.58969  0.49320  Biso   1.000  C
  C565     1.0000 0.20246  0.33269  0.22929  Biso   1.000  C
  C566     1.0000 0.20725  0.75195  0.43411  Biso   1.000  C
  C567     1.0000 0.22285  0.70151  0.48566  Biso   1.000  C
  C568     1.0000 0.79270  0.75195  0.06591  Biso   1.000  C
  C569     1.0000 0.73638  0.70741  0.06449  Biso   1.000  C
  N42      1.0000 0.73109  0.61631  0.02871  Biso   1.000  N
  H466     1.0000 0.73501  0.59451  0.97849  Biso   1.000  H
  N43      1.0000 0.03740  0.31391  0.05449  Biso   1.000  N
  H467     1.0000 0.01059  0.32699  0.00039  Biso   1.000  H
  N44      1.0000 0.26886  0.61631  0.47130  Biso   1.000  N
  H468     1.0000 0.26485  0.59451  0.52149  Biso   1.000  H
  N45      1.0000 0.17598  0.31939  0.20000  Biso   1.000  N
  H469     1.0000 0.23026  0.32989  0.22799  Biso   1.000  H
  C570     1.0000 0.23957  0.73910  0.41778  Biso   1.000  C
  C571     1.0000 0.17857  0.78781  0.41378  Biso   1.000  C
  C572     1.0000 0.25515  0.68857  0.46939  Biso   1.000  C
  C573     1.0000 0.21256  0.67939  0.51910  Biso   1.000  C
  C574     1.0000 0.80108  0.73319  0.03199  Biso   1.000  C
  C575     1.0000 0.82138  0.78781  0.08620  Biso   1.000  C
  C576     1.0000 0.74480  0.68857  0.03059  Biso   1.000  C
  C577     1.0000 0.70378  0.69080  0.08308  Biso   1.000  C
  C578     1.0000 0.71670  0.65610  0.01039  Biso   1.000  C
  C579     1.0000 0.07561  0.29790  0.04171  Biso   1.000  C
  C580     1.0000 0.28325  0.65610  0.48960  Biso   1.000  C
  C581     1.0000 0.18949  0.29960  0.16568  Biso   1.000  C
  C582     1.0000 0.26356  0.70741  0.43550  Biso   1.000  C
  C583     1.0000 0.24727  0.76071  0.38210  Biso   1.000  C
  H470     1.0000 0.16706  0.78140  0.38540  Biso   1.000  H
  H471     1.0000 0.19457  0.81231  0.41530  Biso   1.000  H
  H472     1.0000 0.15658  0.79150  0.42829  Biso   1.000  H
  H473     1.0000 0.21416  0.69721  0.54239  Biso   1.000  H
  H474     1.0000 0.23165  0.65721  0.52658  Biso   1.000  H
  H475     1.0000 0.18485  0.66889  0.51089  Biso   1.000  H
  C584     1.0000 0.77710  0.70151  0.01433  Biso   1.000  C
  C585     1.0000 0.83511  0.74849  0.01381  Biso   1.000  C
  H476     1.0000 0.83289  0.78140  0.11458  Biso   1.000  H
  H477     1.0000 0.80538  0.81231  0.08469  Biso   1.000  H
  H478     1.0000 0.84340  0.79150  0.07169  Biso   1.000  H
  H479     1.0000 0.67729  0.69650  0.06549  Biso   1.000  H
  H480     1.0000 0.70530  0.70309  0.10959  Biso   1.000  H
  H481     1.0000 0.70738  0.66189  0.08629  Biso   1.000  H
  H482     1.0000 0.68871  0.66129  0.01411  Biso   1.000  H
  H483     1.0000 0.71602  0.65569  0.98098  Biso   1.000  H
  C586     1.0000 0.11448  0.31820  0.06730  Biso   1.000  C
  H484     1.0000 0.07380  0.30350  0.01260  Biso   1.000  H
  H485     1.0000 0.07739  0.26871  0.04571  Biso   1.000  H
  H486     1.0000 0.31124  0.66129  0.48590  Biso   1.000  H
  H487     1.0000 0.28384  0.65569  0.51898  Biso   1.000  H
  C587     1.0000 0.16927  0.31841  0.12618  Biso   1.000  C
  H488     1.0000 0.18259  0.27089  0.16520  Biso   1.000  H
  H489     1.0000 0.21939  0.30201  0.16941  Biso   1.000  H
  C588     1.0000 0.29616  0.69080  0.41690  Biso   1.000  C
  N46      1.0000 0.21656  0.74759  0.34339  Biso   1.000  N
  H490     1.0000 0.27525  0.75519  0.37889  Biso   1.000  H
  H491     1.0000 0.24467  0.78969  0.38619  Biso   1.000  H
  C589     1.0000 0.78733  0.67939  0.98089  Biso   1.000  C
  N47      1.0000 0.87281  0.72520  0.03550  Biso   1.000  N
  H492     1.0000 0.83891  0.77749  0.01851  Biso   1.000  H
  H493     1.0000 0.82933  0.74330  0.98419  Biso   1.000  H
  C590     1.0000 0.13429  0.30091  0.10350  Biso   1.000  C
  C591     1.0000 0.12970  0.35299  0.05370  Biso   1.000  C
  C592     1.0000 0.18448  0.35311  0.11259  Biso   1.000  C
  H494     1.0000 0.32266  0.69650  0.43450  Biso   1.000  H
  H495     1.0000 0.29468  0.70309  0.39040  Biso   1.000  H
  H496     1.0000 0.29256  0.66189  0.41369  Biso   1.000  H
  C593     1.0000 0.22577  0.73069  0.31640  Biso   1.000  C
  H497     1.0000 0.78573  0.69721  0.95760  Biso   1.000  H
  H498     1.0000 0.76823  0.65721  0.97338  Biso   1.000  H
  H499     1.0000 0.81501  0.66889  0.98910  Biso   1.000  H
  C594     1.0000 0.90459  0.74589  0.05061  Biso   1.000  C
  C595     1.0000 0.11500  0.26421  0.11910  Biso   1.000  C
  C596     1.0000 0.10701  0.37401  0.01490  Biso   1.000  C
  C597     1.0000 0.16470  0.37040  0.07639  Biso   1.000  C
  C598     1.0000 0.22389  0.37290  0.13530  Biso   1.000  C
  C599     1.0000 0.19787  0.71450  0.28108  Biso   1.000  C
  H500     1.0000 0.25396  0.72729  0.31758  Biso   1.000  H
  H501     1.0000 0.90390  0.77421  0.04849  Biso   1.000  H
  C600     1.0000 0.94270  0.72500  0.07130  Biso   1.000  C
  H502     1.0000 0.13380  0.24159  0.12149  Biso   1.000  H
  H503     1.0000 0.08957  0.25750  0.09998  Biso   1.000  H
  H504     1.0000 0.10917  0.27020  0.14569  Biso   1.000  H
  H505     1.0000 0.12021  0.36780  0.99249  Biso   1.000  H
  H506     1.0000 0.10751  0.40289  0.01929  Biso   1.000  H
  H507     1.0000 0.07881  0.36470  0.00800  Biso   1.000  H
  C601     1.0000 0.18169  0.40701  0.06000  Biso   1.000  C
  H508     1.0000 0.24669  0.36360  0.12400  Biso   1.000  H
  H509     1.0000 0.22869  0.36581  0.16411  Biso   1.000  H
  H510     1.0000 0.22140  0.40191  0.13239  Biso   1.000  H
  C602     1.0000 0.15628  0.72049  0.27621  Biso   1.000  C
  C603     1.0000 0.21288  0.69310  0.25219  Biso   1.000  C
  C604     1.0000 0.97809  0.74721  0.08290  Biso   1.000  C
  C605     1.0000 0.94341  0.68401  0.07790  Biso   1.000  C
  N48      1.0000 0.16920  0.44200  0.08169  Biso   1.000  N
  H511     1.0000 0.21169  0.40531  0.06491  Biso   1.000  H
  H512     1.0000 0.17080  0.40939  0.03050  Biso   1.000  H
  H513     1.0000 0.14597  0.73510  0.29590  Biso   1.000  H
  C606     1.0000 0.12968  0.70511  0.24240  Biso   1.000  C
  C607     1.0000 0.18628  0.67781  0.21851  Biso   1.000  C
  H514     1.0000 0.24128  0.68901  0.25558  Biso   1.000  H
  H515     1.0000 0.97759  0.77520  0.07839  Biso   1.000  H
  C608     1.0000 0.01420  0.72860  0.10120  Biso   1.000  C
  C609     1.0000 0.97958  0.66537  0.09620  Biso   1.000  C
  H516     1.0000 0.91930  0.66880  0.07000  Biso   1.000  H
  C610     1.0000 0.14640  0.46910  0.06070  Biso   1.000  C
  H517     1.0000 0.10127  0.70920  0.23910  Biso   1.000  H
  C611     1.0000 0.14468  0.68371  0.21360  Biso   1.000  C
  H518     1.0000 0.19660  0.66320  0.19870  Biso   1.000  H
  H519     1.0000 0.03840  0.74381  0.10910  Biso   1.000  H
  C612     1.0000 0.01500  0.68761  0.10780  Biso   1.000  C
  H520     1.0000 0.98011  0.63741  0.10071  Biso   1.000  H
  C613     1.0000 0.13340  0.50320  0.07990  Biso   1.000  C
  H521     1.0000 0.13831  0.46621  0.03220  Biso   1.000  H
  C614     1.0000 0.11599  0.66621  0.17695  Biso   1.000  C
  C615     1.0000 0.05315  0.66830  0.12700  Biso   1.000  C
  C616     1.0000 0.11130  0.53191  0.05470  Biso   1.000  C
  C617     1.0000 0.14368  0.50949  0.12149  Biso   1.000  C
  C618     1.0000 0.12505  0.62951  0.16211  Biso   1.000  C
  C619     1.0000 0.07997  0.68562  0.15938  Biso   1.000  C
  C620     1.0000 0.06219  0.63151  0.11219  Biso   1.000  C
  H522     1.0000 0.10421  0.52771  0.02629  Biso   1.000  H
  C621     1.0000 0.09951  0.56691  0.07109  Biso   1.000  C
  C622     1.0000 0.13199  0.54440  0.13791  Biso   1.000  C
  H523     1.0000 0.15878  0.48991  0.13869  Biso   1.000  H
  C623     1.0000 0.09819  0.61213  0.12970  Biso   1.000  C
  H524     1.0000 0.14958  0.61619  0.17401  Biso   1.000  H
  H525     1.0000 0.07379  0.71069  0.16959  Biso   1.000  H
  H526     1.0000 0.04388  0.61959  0.08999  Biso   1.000  H
  H527     1.0000 0.08440  0.58650  0.05401  Biso   1.000  H
  C624     1.0000 0.10988  0.57311  0.11271  Biso   1.000  C
  H528     1.0000 0.13907  0.54870  0.16629  Biso   1.000  H
  C625     1.0000 0.67857  0.28779  0.41378  Biso   1.000  C
  C626     1.0000 0.70725  0.25196  0.43411  Biso   1.000  C
  H529     1.0000 0.66706  0.28141  0.38540  Biso   1.000  H
  H530     1.0000 0.69457  0.31230  0.41530  Biso   1.000  H
  H531     1.0000 0.65658  0.29149  0.42829  Biso   1.000  H
  C627     1.0000 0.69887  0.23321  0.46800  Biso   1.000  C
  C628     1.0000 0.73957  0.23911  0.41778  Biso   1.000  C
  C629     1.0000 0.66485  0.24850  0.48620  Biso   1.000  C
  C630     1.0000 0.72285  0.20149  0.48566  Biso   1.000  C
  C631     1.0000 0.76356  0.20739  0.43550  Biso   1.000  C
  C632     1.0000 0.74727  0.26069  0.38210  Biso   1.000  C
  N49      1.0000 0.62717  0.22519  0.46449  Biso   1.000  N
  H532     1.0000 0.66104  0.27751  0.48148  Biso   1.000  H
  H533     1.0000 0.67056  0.24329  0.51580  Biso   1.000  H
  C633     1.0000 0.75515  0.18855  0.46939  Biso   1.000  C
  C634     1.0000 0.71256  0.17940  0.51910  Biso   1.000  C
  C635     1.0000 0.79616  0.19079  0.41690  Biso   1.000  C
  N50      1.0000 0.71656  0.24761  0.34339  Biso   1.000  N
  H534     1.0000 0.77525  0.25521  0.37889  Biso   1.000  H
  H535     1.0000 0.74467  0.28970  0.38619  Biso   1.000  H
  C636     1.0000 0.59537  0.24591  0.44940  Biso   1.000  C
  C637     1.0000 0.78325  0.15609  0.48960  Biso   1.000  C
  H536     1.0000 0.71416  0.19720  0.54239  Biso   1.000  H
  H537     1.0000 0.73165  0.15719  0.52658  Biso   1.000  H
  H538     1.0000 0.68485  0.16891  0.51089  Biso   1.000  H
  H539     1.0000 0.82266  0.19651  0.43450  Biso   1.000  H
  H540     1.0000 0.79468  0.20310  0.39040  Biso   1.000  H
  H541     1.0000 0.79256  0.16190  0.41369  Biso   1.000  H
  C638     1.0000 0.72577  0.23071  0.31640  Biso   1.000  C
  C639     1.0000 0.55725  0.22501  0.42868  Biso   1.000  C
  H542     1.0000 0.59605  0.27420  0.45149  Biso   1.000  H
  N51      1.0000 0.76886  0.11629  0.47130  Biso   1.000  N
  H543     1.0000 0.81124  0.16131  0.48590  Biso   1.000  H
  H544     1.0000 0.78384  0.15570  0.51898  Biso   1.000  H
  C640     1.0000 0.69787  0.21449  0.28108  Biso   1.000  C
  H545     1.0000 0.75396  0.22731  0.31758  Biso   1.000  H
  C641     1.0000 0.52186  0.24722  0.41708  Biso   1.000  C
  C642     1.0000 0.55657  0.18399  0.42208  Biso   1.000  C
  C643     1.0000 0.76045  0.08970  0.49320  Biso   1.000  C
  C644     1.0000 0.65628  0.22051  0.27621  Biso   1.000  C
  C645     1.0000 0.71288  0.19311  0.25219  Biso   1.000  C
  C646     1.0000 0.48575  0.22859  0.39879  Biso   1.000  C
  H546     1.0000 0.52236  0.27521  0.42160  Biso   1.000  H
  C647     1.0000 0.52037  0.16539  0.40379  Biso   1.000  C
  H547     1.0000 0.58065  0.16879  0.42999  Biso   1.000  H
  C648     1.0000 0.74397  0.05107  0.47769  Biso   1.000  C
  H548     1.0000 0.76485  0.09450  0.52149  Biso   1.000  H
  C649     1.0000 0.62968  0.20510  0.24240  Biso   1.000  C
  H549     1.0000 0.64597  0.23509  0.29590  Biso   1.000  H
  C650     1.0000 0.68628  0.17779  0.21851  Biso   1.000  C
  H550     1.0000 0.74128  0.18900  0.25558  Biso   1.000  H
  C651     1.0000 0.48495  0.18760  0.39218  Biso   1.000  C
  H551     1.0000 0.46158  0.24379  0.39088  Biso   1.000  H
  H552     1.0000 0.51988  0.13740  0.39930  Biso   1.000  H
  C652     1.0000 0.73406  0.04451  0.43620  Biso   1.000  C
  C653     1.0000 0.73466  0.02251  0.50410  Biso   1.000  C
  C654     1.0000 0.64468  0.18369  0.21360  Biso   1.000  C
  H553     1.0000 0.60127  0.20921  0.23910  Biso   1.000  H
  H554     1.0000 0.69660  0.16321  0.19870  Biso   1.000  H
  C655     1.0000 0.44680  0.16831  0.37298  Biso   1.000  C
  H555     1.0000 0.74037  0.06400  0.41808  Biso   1.000  H
  C656     1.0000 0.71477  0.00930  0.42102  Biso   1.000  C
  H556     1.0000 0.74144  0.02701  0.53248  Biso   1.000  H
  C657     1.0000 0.71535  0.98739  0.48899  Biso   1.000  C
  C658     1.0000 0.61599  0.16619  0.17695  Biso   1.000  C
  C659     1.0000 0.41998  0.18563  0.34060  Biso   1.000  C
  C660     1.0000 0.43776  0.13150  0.38779  Biso   1.000  C
  H557     1.0000 0.70796  0.00480  0.39258  Biso   1.000  H
  C661     1.0000 0.70545  0.98074  0.44740  Biso   1.000  C
  H558     1.0000 0.70906  0.96780  0.50698  Biso   1.000  H
  C662     1.0000 0.57997  0.18563  0.15938  Biso   1.000  C
  C663     1.0000 0.62505  0.12950  0.16211  Biso   1.000  C
  C664     1.0000 0.38397  0.16619  0.32306  Biso   1.000  C
  H559     1.0000 0.42618  0.21070  0.33039  Biso   1.000  H
  C665     1.0000 0.40176  0.11212  0.37029  Biso   1.000  C
  H560     1.0000 0.45607  0.11960  0.41000  Biso   1.000  H
  C666     1.0000 0.68355  0.94351  0.43020  Biso   1.000  C
  C667     1.0000 0.55315  0.16831  0.12700  Biso   1.000  C
  H561     1.0000 0.57379  0.21070  0.16959  Biso   1.000  H
  C668     1.0000 0.59819  0.11212  0.12970  Biso   1.000  C
  H562     1.0000 0.64958  0.11620  0.17401  Biso   1.000  H
  C669     1.0000 0.35527  0.18369  0.28638  Biso   1.000  C
  C670     1.0000 0.37493  0.12950  0.33791  Biso   1.000  C
  C671     1.0000 0.39006  0.07310  0.38728  Biso   1.000  C
  C672     1.0000 0.65144  0.92810  0.44528  Biso   1.000  C
  C673     1.0000 0.69298  0.92720  0.39549  Biso   1.000  C
  C674     1.0000 0.51500  0.18760  0.10780  Biso   1.000  C
  C675     1.0000 0.56219  0.13150  0.11219  Biso   1.000  C
  C676     1.0000 0.60988  0.07310  0.11271  Biso   1.000  C
  C677     1.0000 0.31367  0.17779  0.28151  Biso   1.000  C
  C678     1.0000 0.37028  0.20510  0.25761  Biso   1.000  C
  H563     1.0000 0.35038  0.11620  0.32600  Biso   1.000  H
  C679     1.0000 0.40047  0.06690  0.42890  Biso   1.000  C
  C680     1.0000 0.36797  0.04439  0.36211  Biso   1.000  C
  C681     1.0000 0.62885  0.89641  0.42581  Biso   1.000  C
  H564     1.0000 0.64506  0.93919  0.46900  Biso   1.000  H
  C682     1.0000 0.67038  0.89551  0.37598  Biso   1.000  C
  H565     1.0000 0.71486  0.93781  0.38519  Biso   1.000  H
  C683     1.0000 0.51420  0.22859  0.10120  Biso   1.000  C
  C684     1.0000 0.47958  0.16539  0.09620  Biso   1.000  C
  H566     1.0000 0.54388  0.11960  0.08999  Biso   1.000  H
  C685     1.0000 0.59951  0.06690  0.07109  Biso   1.000  C
  C686     1.0000 0.63199  0.04439  0.13791  Biso   1.000  C
  C687     1.0000 0.28707  0.19311  0.24780  Biso   1.000  C
  H567     1.0000 0.30338  0.16321  0.30129  Biso   1.000  H
  C688     1.0000 0.34368  0.22051  0.22381  Biso   1.000  C
  H568     1.0000 0.39867  0.20921  0.26088  Biso   1.000  H
  C689     1.0000 0.38865  0.03190  0.44528  Biso   1.000  C
  H569     1.0000 0.41555  0.08651  0.44598  Biso   1.000  H
  H570     1.0000 0.36088  0.04871  0.33370  Biso   1.000  H
  C690     1.0000 0.35626  0.00951  0.37849  Biso   1.000  C
  C691     1.0000 0.59346  0.87939  0.44028  Biso   1.000  C
  C692     1.0000 0.63827  0.88010  0.39109  Biso   1.000  C
  C693     1.0000 0.67978  0.88070  0.33730  Biso   1.000  C
  C694     1.0000 0.47809  0.24722  0.08290  Biso   1.000  C
  H571     1.0000 0.53840  0.24379  0.10910  Biso   1.000  H
  C695     1.0000 0.44341  0.18399  0.07790  Biso   1.000  C
  H572     1.0000 0.48011  0.13740  0.10071  Biso   1.000  H
  C696     1.0000 0.61130  0.03190  0.05470  Biso   1.000  C
  H573     1.0000 0.58440  0.08651  0.05401  Biso   1.000  H
  H574     1.0000 0.63907  0.04871  0.16629  Biso   1.000  H
  C697     1.0000 0.64368  0.00951  0.12149  Biso   1.000  C
  C698     1.0000 0.30208  0.21449  0.21890  Biso   1.000  C
  H575     1.0000 0.25867  0.18900  0.24440  Biso   1.000  H
  H576     1.0000 0.35398  0.23509  0.20409  Biso   1.000  H
  C699     1.0000 0.36655  0.00319  0.42008  Biso   1.000  C
  H577     1.0000 0.39577  0.02769  0.47369  Biso   1.000  H
  H578     1.0000 0.34117  0.98989  0.36129  Biso   1.000  H
  C700     1.0000 0.59266  0.87259  0.48069  Biso   1.000  C
  C701     1.0000 0.56017  0.86910  0.41000  Biso   1.000  C
  H579     1.0000 0.62278  0.85840  0.37771  Biso   1.000  H
  C702     1.0000 0.64706  0.86979  0.30650  Biso   1.000  C
  C703     1.0000 0.71928  0.87709  0.33161  Biso   1.000  C
  C704     1.0000 0.44270  0.22501  0.07130  Biso   1.000  C
  H580     1.0000 0.47759  0.27521  0.07839  Biso   1.000  H
  H581     1.0000 0.41930  0.16879  0.07000  Biso   1.000  H
  C705     1.0000 0.63340  0.00319  0.07990  Biso   1.000  C
  H582     1.0000 0.60421  0.02769  0.02629  Biso   1.000  H
  H583     1.0000 0.65878  0.98989  0.13869  Biso   1.000  H
  C706     1.0000 0.27417  0.23071  0.18358  Biso   1.000  C
  C707     1.0000 0.35355  0.96909  0.43928  Biso   1.000  C
  C708     1.0000 0.55855  0.85539  0.49078  Biso   1.000  C
  H584     1.0000 0.61534  0.87959  0.50129  Biso   1.000  H
  C709     1.0000 0.52607  0.85190  0.42008  Biso   1.000  C
  H585     1.0000 0.56068  0.87369  0.38240  Biso   1.000  H
  C710     1.0000 0.65399  0.85539  0.27000  Biso   1.000  C
  H586     1.0000 0.62017  0.87229  0.31040  Biso   1.000  H
  H587     1.0000 0.74158  0.88451  0.35260  Biso   1.000  H
  C711     1.0000 0.72606  0.86269  0.29511  Biso   1.000  C
  C712     1.0000 0.40459  0.24591  0.05061  Biso   1.000  C
  C713     1.0000 0.64640  0.96909  0.06070  Biso   1.000  C
  N52      1.0000 0.28339  0.24761  0.15660  Biso   1.000  N
  H588     1.0000 0.24599  0.22731  0.18240  Biso   1.000  H
  N53      1.0000 0.33075  0.94199  0.41829  Biso   1.000  N
  H589     1.0000 0.36167  0.96619  0.46779  Biso   1.000  H
  C714     1.0000 0.52526  0.84510  0.46049  Biso   1.000  C
  H590     1.0000 0.55805  0.85080  0.51840  Biso   1.000  H
  H591     1.0000 0.50336  0.84489  0.39939  Biso   1.000  H
  C715     1.0000 0.69349  0.85181  0.26430  Biso   1.000  C
  H592     1.0000 0.63169  0.84800  0.24901  Biso   1.000  H
  H593     1.0000 0.75307  0.86019  0.29120  Biso   1.000  H
  N54      1.0000 0.37281  0.22519  0.03550  Biso   1.000  N
  H594     1.0000 0.40390  0.27420  0.04849  Biso   1.000  H
  N55      1.0000 0.66920  0.94199  0.08169  Biso   1.000  N
  H595     1.0000 0.63831  0.96619  0.03220  Biso   1.000  H
  C716     1.0000 0.25268  0.26069  0.11789  Biso   1.000  C
  C717     1.0000 0.31826  0.90699  0.43998  Biso   1.000  C
  C718     1.0000 0.49076  0.82790  0.47188  Biso   1.000  C
  C719     1.0000 0.70246  0.83270  0.22929  Biso   1.000  C
  C720     1.0000 0.33511  0.24850  0.01381  Biso   1.000  C
  C721     1.0000 0.68169  0.90699  0.06000  Biso   1.000  C
  C722     1.0000 0.26038  0.23911  0.08220  Biso   1.000  C
  H596     1.0000 0.22470  0.25521  0.12110  Biso   1.000  H
  H597     1.0000 0.25530  0.28970  0.11380  Biso   1.000  H
  C723     1.0000 0.33527  0.87041  0.42359  Biso   1.000  C
  H598     1.0000 0.28827  0.90529  0.43510  Biso   1.000  H
  H599     1.0000 0.32914  0.90941  0.46948  Biso   1.000  H
  N56      1.0000 0.46255  0.81389  0.44549  Biso   1.000  N
  H600     1.0000 0.48936  0.82701  0.49959  Biso   1.000  H
  N57      1.0000 0.67598  0.81941  0.20000  Biso   1.000  N
  H601     1.0000 0.73026  0.82990  0.22799  Biso   1.000  H
  C724     1.0000 0.30108  0.23321  0.03199  Biso   1.000  C
  H602     1.0000 0.33891  0.27751  0.01851  Biso   1.000  H
  H603     1.0000 0.32933  0.24329  0.98419  Biso   1.000  H
  C725     1.0000 0.66470  0.87041  0.07639  Biso   1.000  C
  H604     1.0000 0.71169  0.90529  0.06491  Biso   1.000  H
  H605     1.0000 0.67080  0.90941  0.03050  Biso   1.000  H
  C726     1.0000 0.29270  0.25196  0.06591  Biso   1.000  C
  C727     1.0000 0.23638  0.20739  0.06449  Biso   1.000  C
  C728     1.0000 0.31546  0.85309  0.38740  Biso   1.000  C
  C729     1.0000 0.37025  0.85300  0.44628  Biso   1.000  C
  C730     1.0000 0.42437  0.79791  0.45828  Biso   1.000  C
  C731     1.0000 0.68949  0.79961  0.16568  Biso   1.000  C
  C732     1.0000 0.27710  0.20149  0.01433  Biso   1.000  C
  C733     1.0000 0.68448  0.85309  0.11259  Biso   1.000  C
  C734     1.0000 0.62970  0.85300  0.05370  Biso   1.000  C
  C735     1.0000 0.32138  0.28779  0.08620  Biso   1.000  C
  C736     1.0000 0.24480  0.18855  0.03059  Biso   1.000  C
  C737     1.0000 0.20378  0.19079  0.08308  Biso   1.000  C
  C738     1.0000 0.33068  0.81839  0.37380  Biso   1.000  C
  C739     1.0000 0.27606  0.87289  0.36468  Biso   1.000  C
  C740     1.0000 0.39297  0.87399  0.48508  Biso   1.000  C
  C741     1.0000 0.38546  0.81821  0.43268  Biso   1.000  C
  H606     1.0000 0.42614  0.80349  0.48738  Biso   1.000  H
  H607     1.0000 0.42256  0.76870  0.45428  Biso   1.000  H
  C742     1.0000 0.66927  0.81839  0.12618  Biso   1.000  C
  H608     1.0000 0.68259  0.77090  0.16520  Biso   1.000  H
  H609     1.0000 0.71939  0.80200  0.16941  Biso   1.000  H
  C743     1.0000 0.28733  0.17940  0.98089  Biso   1.000  C
  C744     1.0000 0.72389  0.87289  0.13530  Biso   1.000  C
  C745     1.0000 0.61448  0.81821  0.06730  Biso   1.000  C
  C746     1.0000 0.60701  0.87399  0.01490  Biso   1.000  C
  H610     1.0000 0.33289  0.28141  0.11458  Biso   1.000  H
  H611     1.0000 0.30538  0.31230  0.08469  Biso   1.000  H
  H612     1.0000 0.34340  0.29149  0.07169  Biso   1.000  H
  C747     1.0000 0.21670  0.15609  0.01039  Biso   1.000  C
  H613     1.0000 0.17729  0.19651  0.06549  Biso   1.000  H
  H614     1.0000 0.20530  0.20310  0.10959  Biso   1.000  H
  H615     1.0000 0.20738  0.16190  0.08629  Biso   1.000  H
  C748     1.0000 0.36566  0.80089  0.39649  Biso   1.000  C
  C749     1.0000 0.31048  0.79961  0.33430  Biso   1.000  C
  H616     1.0000 0.25325  0.86359  0.37598  Biso   1.000  H
  H617     1.0000 0.27126  0.86579  0.33591  Biso   1.000  H
  H618     1.0000 0.27858  0.90189  0.36759  Biso   1.000  H
  H619     1.0000 0.39247  0.90291  0.48069  Biso   1.000  H
  H620     1.0000 0.42117  0.86469  0.49199  Biso   1.000  H
  H621     1.0000 0.37965  0.86779  0.50750  Biso   1.000  H
  C750     1.0000 0.63429  0.80089  0.10350  Biso   1.000  C
  H622     1.0000 0.28573  0.19720  0.95760  Biso   1.000  H
  H623     1.0000 0.26823  0.15719  0.97338  Biso   1.000  H
  H624     1.0000 0.31501  0.16891  0.98910  Biso   1.000  H
  H625     1.0000 0.74669  0.86359  0.12400  Biso   1.000  H
  H626     1.0000 0.72869  0.86579  0.16411  Biso   1.000  H
  H627     1.0000 0.72140  0.90189  0.13239  Biso   1.000  H
  C751     1.0000 0.57561  0.79791  0.04171  Biso   1.000  C
  H628     1.0000 0.62021  0.86779  0.99249  Biso   1.000  H
  H629     1.0000 0.60751  0.90291  0.01929  Biso   1.000  H
  H630     1.0000 0.57881  0.86469  0.00800  Biso   1.000  H
  N58      1.0000 0.23109  0.11629  0.02871  Biso   1.000  N
  H631     1.0000 0.18871  0.16131  0.01411  Biso   1.000  H
  H632     1.0000 0.21602  0.15570  0.98098  Biso   1.000  H
  C752     1.0000 0.38495  0.76420  0.38089  Biso   1.000  C
  N59      1.0000 0.32397  0.81941  0.29998  Biso   1.000  N
  H633     1.0000 0.31736  0.77090  0.33479  Biso   1.000  H
  H634     1.0000 0.28057  0.80200  0.33061  Biso   1.000  H
  C753     1.0000 0.61500  0.76420  0.11910  Biso   1.000  C
  N60      1.0000 0.53740  0.81389  0.05449  Biso   1.000  N
  H635     1.0000 0.57380  0.80349  0.01260  Biso   1.000  H
  H636     1.0000 0.57739  0.76870  0.04571  Biso   1.000  H
  C754     1.0000 0.23950  0.08970  0.00678  Biso   1.000  C
  H637     1.0000 0.36618  0.74160  0.37849  Biso   1.000  H
  H638     1.0000 0.41037  0.75749  0.40000  Biso   1.000  H
  H639     1.0000 0.39078  0.77019  0.35429  Biso   1.000  H
  C755     1.0000 0.29748  0.83270  0.27069  Biso   1.000  C
  H640     1.0000 0.63380  0.74160  0.12149  Biso   1.000  H
  H641     1.0000 0.58957  0.75749  0.09998  Biso   1.000  H
  H642     1.0000 0.60917  0.77019  0.14569  Biso   1.000  H
  C756     1.0000 0.50919  0.82790  0.02811  Biso   1.000  C
  C757     1.0000 0.25598  0.05107  0.02229  Biso   1.000  C
  H643     1.0000 0.23501  0.09450  0.97849  Biso   1.000  H
  H644     1.0000 0.26968  0.82990  0.27200  Biso   1.000  H
  C758     1.0000 0.30649  0.85181  0.23568  Biso   1.000  C
  C759     1.0000 0.47469  0.84510  0.03950  Biso   1.000  C
  H645     1.0000 0.51059  0.82701  0.00039  Biso   1.000  H
  C760     1.0000 0.26589  0.04451  0.06379  Biso   1.000  C
  C761     1.0000 0.26523  0.02251  0.99585  Biso   1.000  C
  C762     1.0000 0.34599  0.85539  0.22999  Biso   1.000  C
  C763     1.0000 0.27389  0.86269  0.20491  Biso   1.000  C
  C764     1.0000 0.44140  0.85539  0.00921  Biso   1.000  C
  C765     1.0000 0.47388  0.85190  0.07990  Biso   1.000  C
  H646     1.0000 0.25960  0.06400  0.08190  Biso   1.000  H
  C766     1.0000 0.28518  0.00930  0.07896  Biso   1.000  C
  C767     1.0000 0.28460  0.98739  0.01099  Biso   1.000  C
  H647     1.0000 0.25841  0.02701  0.96747  Biso   1.000  H
  C768     1.0000 0.35289  0.86979  0.19349  Biso   1.000  C
  H648     1.0000 0.36829  0.84800  0.25101  Biso   1.000  H
  C769     1.0000 0.28068  0.87709  0.16841  Biso   1.000  C
  H649     1.0000 0.24688  0.86019  0.20878  Biso   1.000  H
  C770     1.0000 0.40729  0.87259  0.01929  Biso   1.000  C
  H650     1.0000 0.44181  0.85080  0.98158  Biso   1.000  H
  C771     1.0000 0.43980  0.86910  0.08999  Biso   1.000  C
  H651     1.0000 0.49658  0.84489  0.10059  Biso   1.000  H
  H652     1.0000 0.29198  0.00480  0.10741  Biso   1.000  H
  C772     1.0000 0.29450  0.98074  0.05261  Biso   1.000  C
  H653     1.0000 0.29082  0.96780  0.99297  Biso   1.000  H
  C773     1.0000 0.32017  0.88070  0.16268  Biso   1.000  C
  H654     1.0000 0.37978  0.87229  0.18961  Biso   1.000  H
  H655     1.0000 0.25837  0.88451  0.14739  Biso   1.000  H
  C774     1.0000 0.40648  0.87939  0.05970  Biso   1.000  C
  H656     1.0000 0.38451  0.87959  0.99867  Biso   1.000  H
  H657     1.0000 0.43930  0.87369  0.11758  Biso   1.000  H
  C775     1.0000 0.31640  0.94351  0.06979  Biso   1.000  C
  C776     1.0000 0.32960  0.89551  0.12400  Biso   1.000  C
  C777     1.0000 0.37110  0.89641  0.07421  Biso   1.000  C
  C778     1.0000 0.34850  0.92810  0.05470  Biso   1.000  C
  C779     1.0000 0.30700  0.92720  0.10450  Biso   1.000  C
  C780     1.0000 0.36167  0.88010  0.10889  Biso   1.000  C
  H658     1.0000 0.35489  0.93919  0.03099  Biso   1.000  H
  H659     1.0000 0.28508  0.93781  0.11480  Biso   1.000  H
  H660     1.0000 0.37718  0.85840  0.12231  Biso   1.000  H
  C781     1.0000 0.80025  0.71731  0.59170  Biso   1.000  C
  C782     1.0000 0.77354  0.75180  0.57668  Biso   1.000  C
  H661     1.0000 0.78355  0.69459  0.59618  Biso   1.000  H
  H662     1.0000 0.81606  0.71009  0.57150  Biso   1.000  H
  H663     1.0000 0.81885  0.72449  0.61717  Biso   1.000  H
  C783     1.0000 0.74404  0.76539  0.59670  Biso   1.000  C
  C784     1.0000 0.77984  0.77171  0.54248  Biso   1.000  C
  C785     1.0000 0.73973  0.74580  0.63450  Biso   1.000  C
  C786     1.0000 0.72096  0.79881  0.58228  Biso   1.000  C
  C787     1.0000 0.75664  0.80501  0.52818  Biso   1.000  C
  C788     1.0000 0.80884  0.75931  0.51958  Biso   1.000  C
  N61      1.0000 0.76453  0.76950  0.66658  Biso   1.000  N
  H664     1.0000 0.74965  0.71790  0.63550  Biso   1.000  H
  H665     1.0000 0.71106  0.74571  0.63698  Biso   1.000  H
  C789     1.0000 0.72726  0.81860  0.54808  Biso   1.000  C
  C790     1.0000 0.69044  0.81100  0.60878  Biso   1.000  C
  C791     1.0000 0.76637  0.82939  0.49450  Biso   1.000  C
  N62      1.0000 0.84917  0.78059  0.53800  Biso   1.000  N
  H666     1.0000 0.81256  0.73000  0.52140  Biso   1.000  H
  H667     1.0000 0.79944  0.76670  0.49078  Biso   1.000  H
  C792     1.0000 0.79024  0.75320  0.68920  Biso   1.000  C
  C793     1.0000 0.70094  0.85351  0.53379  Biso   1.000  C
  H668     1.0000 0.70524  0.82391  0.63368  Biso   1.000  H
  H669     1.0000 0.67046  0.82960  0.59370  Biso   1.000  H
  H670     1.0000 0.67654  0.78721  0.61590  Biso   1.000  H
  H671     1.0000 0.75226  0.85509  0.49320  Biso   1.000  H
  H672     1.0000 0.79577  0.83401  0.49950  Biso   1.000  H
  H673     1.0000 0.75746  0.81520  0.46879  Biso   1.000  H
  C794     1.0000 0.87846  0.75970  0.55069  Biso   1.000  C
  C795     1.0000 0.81905  0.77371  0.72309  Biso   1.000  C
  H674     1.0000 0.79323  0.72529  0.68599  Biso   1.000  H
  N63      1.0000 0.71427  0.89209  0.55020  Biso   1.000  N
  H675     1.0000 0.67385  0.84820  0.53978  Biso   1.000  H
  H676     1.0000 0.69726  0.85491  0.50398  Biso   1.000  H
  C796     1.0000 0.91893  0.77621  0.57198  Biso   1.000  C
  H677     1.0000 0.87585  0.73161  0.54708  Biso   1.000  H
  C797     1.0000 0.85213  0.75189  0.74360  Biso   1.000  C
  C798     1.0000 0.81305  0.81249  0.73509  Biso   1.000  C
  C799     1.0000 0.74074  0.90189  0.56620  Biso   1.000  C
  C800     1.0000 0.92175  0.81610  0.58340  Biso   1.000  C
  C801     1.0000 0.95334  0.75209  0.58028  Biso   1.000  C
  H678     1.0000 0.85624  0.72529  0.73548  Biso   1.000  H
  C802     1.0000 0.87933  0.76879  0.77607  Biso   1.000  C
  C803     1.0000 0.84015  0.82939  0.76750  Biso   1.000  C
  H679     1.0000 0.79033  0.82740  0.72110  Biso   1.000  H
  C804     1.0000 0.76235  0.93841  0.58579  Biso   1.000  C
  H680     1.0000 0.75925  0.88010  0.57068  Biso   1.000  H
  H681     1.0000 0.89834  0.83249  0.57768  Biso   1.000  H
  C805     1.0000 0.95895  0.83181  0.60318  Biso   1.000  C
  C806     1.0000 0.99043  0.76780  0.60009  Biso   1.000  C
  H682     1.0000 0.95146  0.72479  0.57250  Biso   1.000  H
  H683     1.0000 0.90194  0.75391  0.79009  Biso   1.000  H
  C807     1.0000 0.87332  0.80760  0.78797  Biso   1.000  C
  H684     1.0000 0.83603  0.85590  0.77568  Biso   1.000  H
  C808     1.0000 0.80286  0.94551  0.58519  Biso   1.000  C
  C809     1.0000 0.73983  0.96709  0.60088  Biso   1.000  C
  H685     1.0000 0.96084  0.85911  0.61099  Biso   1.000  H
  C810     1.0000 0.99324  0.80769  0.61148  Biso   1.000  C
  H686     1.0000 0.01395  0.75129  0.60578  Biso   1.000  H
  C811     1.0000 0.89943  0.82450  0.82617  Biso   1.000  C
  H687     1.0000 0.81825  0.92580  0.57489  Biso   1.000  H
  C812     1.0000 0.82085  0.98140  0.59970  Biso   1.000  C
  H688     1.0000 0.71214  0.96229  0.60130  Biso   1.000  H
  C813     1.0000 0.75784  0.00301  0.61548  Biso   1.000  C
  C814     1.0000 0.03513  0.82549  0.62777  Biso   1.000  C
  C815     1.0000 0.93832  0.80900  0.83889  Biso   1.000  C
  C816     1.0000 0.88686  0.85640  0.84667  Biso   1.000  C
  H689     1.0000 0.84855  0.98629  0.59930  Biso   1.000  H
  C817     1.0000 0.79836  0.01020  0.61490  Biso   1.000  C
  H690     1.0000 0.74254  0.02269  0.62578  Biso   1.000  H
  C818     1.0000 0.06153  0.80900  0.66109  Biso   1.000  C
  C819     1.0000 0.04764  0.85750  0.60730  Biso   1.000  C
  H691     1.0000 0.94683  0.78721  0.82490  Biso   1.000  H
  C820     1.0000 0.96472  0.82549  0.87218  Biso   1.000  C
  C821     1.0000 0.91333  0.87289  0.87987  Biso   1.000  C
  H692     1.0000 0.86024  0.86701  0.83798  Biso   1.000  H
  C822     1.0000 0.81963  0.04934  0.62768  Biso   1.000  C
  C823     1.0000 0.10044  0.82450  0.67378  Biso   1.000  C
  H693     1.0000 0.05305  0.78721  0.67509  Biso   1.000  H
  H694     1.0000 0.02955  0.86871  0.58458  Biso   1.000  H
  C824     1.0000 0.08655  0.87289  0.62008  Biso   1.000  C
  C825     1.0000 0.95221  0.85750  0.89268  Biso   1.000  C
  C826     1.0000 0.00661  0.80769  0.88847  Biso   1.000  C
  C827     1.0000 0.89942  0.90550  0.90477  Biso   1.000  C
  C828     1.0000 0.84344  0.06731  0.60385  Biso   1.000  C
  C829     1.0000 0.81603  0.06669  0.66409  Biso   1.000  C
  C830     1.0000 0.11298  0.85640  0.65328  Biso   1.000  C
  C831     1.0000 0.12653  0.80760  0.71198  Biso   1.000  C
  C832     1.0000 0.10046  0.90550  0.59518  Biso   1.000  C
  H695     1.0000 0.97033  0.86871  0.91537  Biso   1.000  H
  C833     1.0000 0.04093  0.83181  0.89677  Biso   1.000  C
  C834     1.0000 0.00942  0.76780  0.89989  Biso   1.000  C
  C835     1.0000 0.85933  0.90630  0.90898  Biso   1.000  C
  C836     1.0000 0.92643  0.93480  0.92309  Biso   1.000  C
  C837     1.0000 0.86373  0.10270  0.61648  Biso   1.000  C
  H696     1.0000 0.84584  0.05539  0.57898  Biso   1.000  H
  C838     1.0000 0.83634  0.10210  0.67666  Biso   1.000  C
  H697     1.0000 0.79975  0.05440  0.68030  Biso   1.000  H
  H698     1.0000 0.13964  0.86701  0.66200  Biso   1.000  H
  C839     1.0000 0.12054  0.76879  0.72388  Biso   1.000  C
  C840     1.0000 0.15973  0.82939  0.73248  Biso   1.000  C
  C841     1.0000 0.14055  0.90630  0.59100  Biso   1.000  C
  C842     1.0000 0.07346  0.93480  0.57689  Biso   1.000  C
  C843     1.0000 0.07811  0.81610  0.91658  Biso   1.000  C
  H699     1.0000 0.03901  0.85911  0.88899  Biso   1.000  H
  H700     1.0000 0.98592  0.75129  0.89417  Biso   1.000  H
  C844     1.0000 0.04650  0.75209  0.91967  Biso   1.000  C
  C845     1.0000 0.84610  0.93629  0.93139  Biso   1.000  C
  H701     1.0000 0.84082  0.88630  0.89647  Biso   1.000  H
  H702     1.0000 0.95393  0.93430  0.92028  Biso   1.000  H
  C846     1.0000 0.91330  0.96479  0.94557  Biso   1.000  C
  C847     1.0000 0.86014  0.12011  0.65288  Biso   1.000  C
  C848     1.0000 0.89175  0.11850  0.59119  Biso   1.000  C
  C849     1.0000 0.83265  0.12049  0.71676  Biso   1.000  C
  C850     1.0000 0.14772  0.75189  0.75638  Biso   1.000  C
  H703     1.0000 0.09794  0.75391  0.70989  Biso   1.000  H
  H704     1.0000 0.16385  0.85590  0.72428  Biso   1.000  H
  C851     1.0000 0.18683  0.81249  0.76489  Biso   1.000  C
  C852     1.0000 0.15375  0.93629  0.56859  Biso   1.000  C
  H705     1.0000 0.15906  0.88630  0.60348  Biso   1.000  H
  H706     1.0000 0.04594  0.93430  0.57968  Biso   1.000  H
  C853     1.0000 0.08654  0.96479  0.55438  Biso   1.000  C
  C854     1.0000 0.08091  0.77621  0.92797  Biso   1.000  C
  H707     1.0000 0.10151  0.83249  0.92228  Biso   1.000  H
  H708     1.0000 0.04842  0.72479  0.92749  Biso   1.000  H
  C855     1.0000 0.87312  0.96560  0.94978  Biso   1.000  C
  H709     1.0000 0.81870  0.93689  0.93427  Biso   1.000  H
  H710     1.0000 0.93173  0.98480  0.95808  Biso   1.000  H
  H711     1.0000 0.87404  0.14431  0.66149  Biso   1.000  H
  C856     1.0000 0.88144  0.11549  0.54920  Biso   1.000  C
  C857     1.0000 0.92984  0.13290  0.61015  Biso   1.000  C
  C858     1.0000 0.83253  0.16160  0.72158  Biso   1.000  C
  C859     1.0000 0.83304  0.09566  0.74978  Biso   1.000  C
  C860     1.0000 0.18083  0.77371  0.77689  Biso   1.000  C
  H712     1.0000 0.14365  0.72529  0.76450  Biso   1.000  H
  H713     1.0000 0.20952  0.82740  0.77889  Biso   1.000  H
  C861     1.0000 0.12676  0.96560  0.55020  Biso   1.000  C
  H714     1.0000 0.18114  0.93689  0.56568  Biso   1.000  H
  H715     1.0000 0.06816  0.98480  0.54190  Biso   1.000  H
  C862     1.0000 0.12142  0.75970  0.94929  Biso   1.000  C
  C863     1.0000 0.86052  0.99860  0.97259  Biso   1.000  C
  C864     1.0000 0.90927  0.12690  0.52621  Biso   1.000  C
  H716     1.0000 0.85554  0.10559  0.53618  Biso   1.000  H
  H717     1.0000 0.93686  0.13489  0.63889  Biso   1.000  H
  C865     1.0000 0.95756  0.14419  0.58719  Biso   1.000  C
  C866     1.0000 0.83284  0.17797  0.75947  Biso   1.000  C
  H718     1.0000 0.83234  0.17860  0.69908  Biso   1.000  H
  H719     1.0000 0.83314  0.06749  0.74639  Biso   1.000  H
  C867     1.0000 0.83334  0.11200  0.78758  Biso   1.000  C
  C868     1.0000 0.20962  0.75320  0.81078  Biso   1.000  C
  C869     1.0000 0.13936  0.99860  0.52740  Biso   1.000  C
  N64      1.0000 0.15071  0.78059  0.96199  Biso   1.000  N
  H720     1.0000 0.12403  0.73161  0.95287  Biso   1.000  H
  H721     1.0000 0.83360  0.99830  0.97677  Biso   1.000  H
  N65      1.0000 0.88252  0.02680  0.98658  Biso   1.000  N
  C870     1.0000 0.94724  0.14130  0.54518  Biso   1.000  C
  H722     1.0000 0.90217  0.12479  0.49750  Biso   1.000  H
  H723     1.0000 0.98345  0.15409  0.60018  Biso   1.000  H
  C871     1.0000 0.83314  0.15311  0.79246  Biso   1.000  C
  H724     1.0000 0.83272  0.20611  0.76277  Biso   1.000  H
  H725     1.0000 0.83354  0.09501  0.81018  Biso   1.000  H
  N66      1.0000 0.23531  0.76950  0.83338  Biso   1.000  N
  H726     1.0000 0.20663  0.72529  0.81399  Biso   1.000  H
  H727     1.0000 0.16624  0.99830  0.52319  Biso   1.000  H
  N67      1.0000 0.11736  0.02680  0.51340  Biso   1.000  N
  C872     1.0000 0.19100  0.75931  0.98037  Biso   1.000  C
  C873     1.0000 0.86581  0.06031  0.00421  Biso   1.000  C
  C874     1.0000 0.97526  0.15051  0.51840  Biso   1.000  C
  C875     1.0000 0.83204  0.16760  0.83329  Biso   1.000  C
  C876     1.0000 0.26012  0.74580  0.86548  Biso   1.000  C
  C877     1.0000 0.13417  0.06031  0.49580  Biso   1.000  C
  C878     1.0000 0.22001  0.77171  0.95747  Biso   1.000  C
  H728     1.0000 0.18732  0.73000  0.97858  Biso   1.000  H
  H729     1.0000 0.20050  0.76670  0.00921  Biso   1.000  H
  C879     1.0000 0.87461  0.09900  0.98358  Biso   1.000  C
  H730     1.0000 0.83608  0.05679  0.00070  Biso   1.000  H
  H731     1.0000 0.87789  0.06171  0.03350  Biso   1.000  H
  H732     1.0000 0.96807  0.14521  0.49020  Biso   1.000  H
  N68      1.0000 0.01024  0.16631  0.53488  Biso   1.000  N
  N69      1.0000 0.82373  0.14989  0.86379  Biso   1.000  N
  H733     1.0000 0.83872  0.19499  0.83759  Biso   1.000  H
  C880     1.0000 0.25581  0.76539  0.90329  Biso   1.000  C
  H734     1.0000 0.25023  0.71790  0.86449  Biso   1.000  H
  H735     1.0000 0.28882  0.74571  0.86297  Biso   1.000  H
  C881     1.0000 0.12524  0.09900  0.51640  Biso   1.000  C
  H736     1.0000 0.16386  0.05679  0.49929  Biso   1.000  H
  H737     1.0000 0.12205  0.06171  0.46648  Biso   1.000  H
  C882     1.0000 0.22630  0.75180  0.92328  Biso   1.000  C
  C883     1.0000 0.24321  0.80501  0.97177  Biso   1.000  C
  C884     1.0000 0.84580  0.11611  0.95248  Biso   1.000  C
  C885     1.0000 0.91180  0.11769  0.99739  Biso   1.000  C
  C886     1.0000 0.03806  0.17421  0.50589  Biso   1.000  C
  C887     1.0000 0.82390  0.16900  0.90147  Biso   1.000  C
  C888     1.0000 0.27892  0.79881  0.91767  Biso   1.000  C
  C889     1.0000 0.15404  0.11611  0.54748  Biso   1.000  C
  C890     1.0000 0.08805  0.11769  0.50259  Biso   1.000  C
  C891     1.0000 0.19963  0.71731  0.90828  Biso   1.000  C
  C892     1.0000 0.27262  0.81860  0.95187  Biso   1.000  C
  C893     1.0000 0.23361  0.82939  0.00551  Biso   1.000  C
  C894     1.0000 0.85430  0.15189  0.93527  Biso   1.000  C
  C895     1.0000 0.80571  0.09310  0.93609  Biso   1.000  C
  C896     1.0000 0.92021  0.15350  0.98019  Biso   1.000  C
  C897     1.0000 0.94500  0.09280  0.02668  Biso   1.000  C
  C898     1.0000 0.07967  0.15350  0.51979  Biso   1.000  C
  H738     1.0000 0.02497  0.16461  0.47860  Biso   1.000  H
  H739     1.0000 0.04236  0.20331  0.50410  Biso   1.000  H
  H740     1.0000 0.82983  0.19770  0.89908  Biso   1.000  H
  H741     1.0000 0.79663  0.16670  0.90768  Biso   1.000  H
  C899     1.0000 0.30943  0.81100  0.89117  Biso   1.000  C
  C900     1.0000 0.14554  0.15189  0.56468  Biso   1.000  C
  C901     1.0000 0.19415  0.09310  0.56389  Biso   1.000  C
  C902     1.0000 0.05497  0.09280  0.47330  Biso   1.000  C
  H742     1.0000 0.21632  0.69459  0.90377  Biso   1.000  H
  H743     1.0000 0.18382  0.71009  0.92849  Biso   1.000  H
  H744     1.0000 0.18102  0.72449  0.88278  Biso   1.000  H
  C903     1.0000 0.29891  0.85351  0.96620  Biso   1.000  C
  H745     1.0000 0.24768  0.85509  0.00678  Biso   1.000  H
  H746     1.0000 0.20418  0.83401  0.00051  Biso   1.000  H
  H747     1.0000 0.24248  0.81520  0.03120  Biso   1.000  H
  C904     1.0000 0.89153  0.17061  0.94908  Biso   1.000  C
  H748     1.0000 0.80162  0.07310  0.95599  Biso   1.000  H
  H749     1.0000 0.78292  0.11179  0.93118  Biso   1.000  H
  H750     1.0000 0.80730  0.07980  0.91068  Biso   1.000  H
  C905     1.0000 0.96182  0.17421  0.99409  Biso   1.000  C
  H751     1.0000 0.94390  0.06511  0.01760  Biso   1.000  H
  H752     1.0000 0.97189  0.10389  0.02681  Biso   1.000  H
  H753     1.0000 0.93987  0.09399  0.05419  Biso   1.000  H
  C906     1.0000 0.10835  0.17061  0.55090  Biso   1.000  C
  H754     1.0000 0.29463  0.82391  0.86627  Biso   1.000  H
  H755     1.0000 0.32942  0.82960  0.90628  Biso   1.000  H
  H756     1.0000 0.32331  0.78721  0.88408  Biso   1.000  H
  C907     1.0000 0.17594  0.16900  0.59848  Biso   1.000  C
  H757     1.0000 0.19827  0.07310  0.54399  Biso   1.000  H
  H758     1.0000 0.21696  0.11179  0.56880  Biso   1.000  H
  H759     1.0000 0.19254  0.07980  0.58928  Biso   1.000  H
  H760     1.0000 0.05607  0.06511  0.48239  Biso   1.000  H
  H761     1.0000 0.02805  0.10389  0.47318  Biso   1.000  H
  H762     1.0000 0.06007  0.09399  0.44580  Biso   1.000  H
  N70      1.0000 0.28562  0.89209  0.94978  Biso   1.000  N
  H763     1.0000 0.32602  0.84820  0.96017  Biso   1.000  H
  H764     1.0000 0.30262  0.85491  0.99597  Biso   1.000  H
  C908     1.0000 0.90091  0.20799  0.92867  Biso   1.000  C
  N71      1.0000 0.98960  0.16631  0.96508  Biso   1.000  N
  H765     1.0000 0.95752  0.20331  0.99588  Biso   1.000  H
  H766     1.0000 0.97500  0.16461  0.02141  Biso   1.000  H
  C909     1.0000 0.09894  0.20799  0.57129  Biso   1.000  C
  N72      1.0000 0.17616  0.14989  0.63620  Biso   1.000  N
  H767     1.0000 0.17004  0.19770  0.60088  Biso   1.000  H
  H768     1.0000 0.20325  0.16670  0.59228  Biso   1.000  H
  C910     1.0000 0.25911  0.90189  0.93379  Biso   1.000  C
  H769     1.0000 0.89230  0.23109  0.94248  Biso   1.000  H
  H770     1.0000 0.93022  0.20951  0.92997  Biso   1.000  H
  H771     1.0000 0.88630  0.20769  0.90038  Biso   1.000  H
  C911     1.0000 0.02462  0.15051  0.98158  Biso   1.000  C
  H772     1.0000 0.10755  0.23109  0.55750  Biso   1.000  H
  H773     1.0000 0.06965  0.20951  0.56998  Biso   1.000  H
  H774     1.0000 0.11354  0.20769  0.59958  Biso   1.000  H
  C912     1.0000 0.16785  0.16760  0.66670  Biso   1.000  C
  C913     1.0000 0.23753  0.93841  0.91419  Biso   1.000  C
  H775     1.0000 0.24063  0.88010  0.92927  Biso   1.000  H
  C914     1.0000 0.05260  0.14130  0.95478  Biso   1.000  C
  H776     1.0000 0.03191  0.14521  0.00981  Biso   1.000  H
  H777     1.0000 0.16113  0.19499  0.66240  Biso   1.000  H
  C915     1.0000 0.16674  0.15311  0.70750  Biso   1.000  C
  C916     1.0000 0.19702  0.94551  0.91480  Biso   1.000  C
  C917     1.0000 0.26001  0.96709  0.89908  Biso   1.000  C
  C918     1.0000 0.09061  0.12690  0.97374  Biso   1.000  C
  C919     1.0000 0.04232  0.14419  0.91280  Biso   1.000  C
  C920     1.0000 0.16704  0.17797  0.74048  Biso   1.000  C
  C921     1.0000 0.16654  0.11200  0.71237  Biso   1.000  C
  H778     1.0000 0.18161  0.92580  0.92509  Biso   1.000  H
  C922     1.0000 0.17903  0.98140  0.90029  Biso   1.000  C
  H779     1.0000 0.28771  0.96229  0.89868  Biso   1.000  H
  C923     1.0000 0.24203  0.00301  0.88448  Biso   1.000  C
  C924     1.0000 0.11841  0.11549  0.95078  Biso   1.000  C
  H780     1.0000 0.09781  0.12479  0.00251  Biso   1.000  H
  C925     1.0000 0.07003  0.13290  0.88981  Biso   1.000  C
  H781     1.0000 0.01643  0.15409  0.89977  Biso   1.000  H
  H782     1.0000 0.16713  0.20611  0.73718  Biso   1.000  H
  C926     1.0000 0.16732  0.16160  0.77837  Biso   1.000  C
  C927     1.0000 0.16683  0.09566  0.75017  Biso   1.000  C
  H783     1.0000 0.16634  0.09501  0.68978  Biso   1.000  H
  H784     1.0000 0.15133  0.98629  0.90068  Biso   1.000  H
  C928     1.0000 0.20152  0.01020  0.88508  Biso   1.000  C
  H785     1.0000 0.25733  0.02269  0.87418  Biso   1.000  H
  H786     1.0000 0.14430  0.10559  0.96377  Biso   1.000  H
  C929     1.0000 0.10813  0.11850  0.90877  Biso   1.000  C
  H787     1.0000 0.06302  0.13489  0.86109  Biso   1.000  H
  C930     1.0000 0.16723  0.12049  0.78322  Biso   1.000  C
  H788     1.0000 0.16753  0.17860  0.80088  Biso   1.000  H
  H789     1.0000 0.16674  0.06749  0.75360  Biso   1.000  H
  C931     1.0000 0.18022  0.04934  0.87227  Biso   1.000  C
  C932     1.0000 0.13611  0.10270  0.88348  Biso   1.000  C
  C933     1.0000 0.16351  0.10210  0.82332  Biso   1.000  C
  C934     1.0000 0.15641  0.06731  0.89614  Biso   1.000  C
  C935     1.0000 0.18382  0.06669  0.83589  Biso   1.000  C
  C936     1.0000 0.13971  0.12011  0.84707  Biso   1.000  C
  H790     1.0000 0.15400  0.05539  0.92097  Biso   1.000  H
  H791     1.0000 0.20013  0.05440  0.81969  Biso   1.000  H
  H792     1.0000 0.12584  0.14431  0.83850  Biso   1.000  H
  C937     1.0000 0.51415  0.77141  0.60118  Biso   1.000  C
  C938     1.0000 0.47803  0.75278  0.58289  Biso   1.000  C
  H793     1.0000 0.53835  0.75621  0.60909  Biso   1.000  H
  C939     1.0000 0.51494  0.81240  0.60778  Biso   1.000  C
  C940     1.0000 0.44265  0.77499  0.57129  Biso   1.000  C
  H794     1.0000 0.47755  0.72479  0.57840  Biso   1.000  H
  C941     1.0000 0.47956  0.83461  0.59618  Biso   1.000  C
  C942     1.0000 0.55309  0.83169  0.62699  Biso   1.000  C
  C943     1.0000 0.40457  0.75409  0.55060  Biso   1.000  C
  C944     1.0000 0.44336  0.81601  0.57789  Biso   1.000  C
  H795     1.0000 0.48005  0.86260  0.60070  Biso   1.000  H
  C945     1.0000 0.56214  0.86850  0.61218  Biso   1.000  C
  C946     1.0000 0.57995  0.81437  0.65940  Biso   1.000  C
  N73      1.0000 0.37276  0.77481  0.53548  Biso   1.000  N
  H796     1.0000 0.40384  0.72580  0.54848  Biso   1.000  H
  H797     1.0000 0.41924  0.83121  0.56998  Biso   1.000  H
  H798     1.0000 0.54386  0.88040  0.58997  Biso   1.000  H
  C947     1.0000 0.59814  0.88788  0.62968  Biso   1.000  C
  C948     1.0000 0.61593  0.83381  0.67693  Biso   1.000  C
  H799     1.0000 0.57374  0.78930  0.66957  Biso   1.000  H
  C949     1.0000 0.33506  0.75150  0.51380  Biso   1.000  C
  C950     1.0000 0.62500  0.87050  0.66209  Biso   1.000  C
  C951     1.0000 0.60983  0.92690  0.61269  Biso   1.000  C
  C952     1.0000 0.64463  0.81631  0.71358  Biso   1.000  C
  C953     1.0000 0.30106  0.76679  0.53200  Biso   1.000  C
  H800     1.0000 0.33886  0.72249  0.51849  Biso   1.000  H
  H801     1.0000 0.32937  0.75671  0.48420  Biso   1.000  H
  H802     1.0000 0.64953  0.88380  0.67400  Biso   1.000  H
  C954     1.0000 0.59946  0.93310  0.57110  Biso   1.000  C
  C955     1.0000 0.63194  0.95561  0.63789  Biso   1.000  C
  C956     1.0000 0.62963  0.79490  0.74239  Biso   1.000  C
  C957     1.0000 0.68623  0.82221  0.71849  Biso   1.000  C
  C958     1.0000 0.29265  0.74804  0.56589  Biso   1.000  C
  C959     1.0000 0.27704  0.79851  0.51431  Biso   1.000  C
  C960     1.0000 0.61125  0.96810  0.55469  Biso   1.000  C
  H803     1.0000 0.58435  0.91349  0.55399  Biso   1.000  H
  H804     1.0000 0.63905  0.95129  0.66627  Biso   1.000  H
  C961     1.0000 0.64363  0.99049  0.62147  Biso   1.000  C
  C962     1.0000 0.65622  0.77949  0.77619  Biso   1.000  C
  H805     1.0000 0.60122  0.79079  0.73909  Biso   1.000  H
  H806     1.0000 0.69654  0.83679  0.69868  Biso   1.000  H
  C963     1.0000 0.71283  0.80689  0.75217  Biso   1.000  C
  C964     1.0000 0.26036  0.76089  0.58219  Biso   1.000  C
  C965     1.0000 0.32136  0.71221  0.58619  Biso   1.000  C
  C966     1.0000 0.24474  0.81145  0.53058  Biso   1.000  C
  C967     1.0000 0.28737  0.82060  0.48090  Biso   1.000  C
  C968     1.0000 0.63335  0.99681  0.57989  Biso   1.000  C
  H807     1.0000 0.60416  0.97231  0.52628  Biso   1.000  H
  H808     1.0000 0.65873  0.01011  0.63868  Biso   1.000  H
  C969     1.0000 0.69783  0.78551  0.78110  Biso   1.000  C
  H809     1.0000 0.64591  0.76491  0.79588  Biso   1.000  H
  H810     1.0000 0.74123  0.81100  0.75560  Biso   1.000  H
  C970     1.0000 0.23634  0.79261  0.56450  Biso   1.000  C
  C971     1.0000 0.25263  0.73931  0.61790  Biso   1.000  C
  H811     1.0000 0.33284  0.71859  0.61460  Biso   1.000  H
  H812     1.0000 0.30534  0.68770  0.58470  Biso   1.000  H
  H813     1.0000 0.34335  0.70851  0.57168  Biso   1.000  H
  C972     1.0000 0.21666  0.84391  0.51040  Biso   1.000  C
  H814     1.0000 0.28577  0.80280  0.45758  Biso   1.000  H
  H815     1.0000 0.26827  0.84281  0.47339  Biso   1.000  H
  H816     1.0000 0.31505  0.83109  0.48908  Biso   1.000  H
  C973     1.0000 0.64635  0.03091  0.56068  Biso   1.000  C
  C974     1.0000 0.72572  0.76929  0.81639  Biso   1.000  C
  C975     1.0000 0.20374  0.80921  0.58310  Biso   1.000  C
  N74      1.0000 0.28334  0.75239  0.65658  Biso   1.000  N
  H817     1.0000 0.22464  0.74479  0.62108  Biso   1.000  H
  H818     1.0000 0.25525  0.71030  0.61378  Biso   1.000  H
  N75      1.0000 0.23104  0.88371  0.52870  Biso   1.000  N
  H819     1.0000 0.18866  0.83869  0.51410  Biso   1.000  H
  H820     1.0000 0.21606  0.84430  0.48099  Biso   1.000  H
  N76      1.0000 0.66915  0.05801  0.58167  Biso   1.000  N
  H821     1.0000 0.63826  0.03381  0.53218  Biso   1.000  H
  N77      1.0000 0.71651  0.75239  0.84337  Biso   1.000  N
  H822     1.0000 0.75392  0.77269  0.81760  Biso   1.000  H
  H823     1.0000 0.17725  0.80349  0.56550  Biso   1.000  H
  H824     1.0000 0.20525  0.79690  0.60960  Biso   1.000  H
  H825     1.0000 0.20733  0.83810  0.58628  Biso   1.000  H
  C976     1.0000 0.27413  0.76929  0.68360  Biso   1.000  C
  C977     1.0000 0.23945  0.91030  0.50680  Biso   1.000  C
  C978     1.0000 0.68164  0.09301  0.55999  Biso   1.000  C
  C979     1.0000 0.74722  0.73931  0.88208  Biso   1.000  C
  C980     1.0000 0.30202  0.78551  0.71888  Biso   1.000  C
  H826     1.0000 0.24594  0.77269  0.68239  Biso   1.000  H
  C981     1.0000 0.25596  0.94893  0.52228  Biso   1.000  C
  H827     1.0000 0.23505  0.90550  0.47848  Biso   1.000  H
  C982     1.0000 0.66465  0.12959  0.57637  Biso   1.000  C
  H828     1.0000 0.71164  0.09471  0.56489  Biso   1.000  H
  H829     1.0000 0.67075  0.09059  0.53049  Biso   1.000  H
  C983     1.0000 0.73952  0.76089  0.91776  Biso   1.000  C
  H830     1.0000 0.77523  0.74479  0.87887  Biso   1.000  H
  H831     1.0000 0.74462  0.71030  0.88617  Biso   1.000  H
  C984     1.0000 0.34363  0.77949  0.72379  Biso   1.000  C
  C985     1.0000 0.28705  0.80689  0.74778  Biso   1.000  C
  C986     1.0000 0.26584  0.95549  0.56380  Biso   1.000  C
  C987     1.0000 0.26524  0.97749  0.49587  Biso   1.000  C
  C988     1.0000 0.68444  0.14691  0.61260  Biso   1.000  C
  C989     1.0000 0.62964  0.14700  0.55369  Biso   1.000  C
  C990     1.0000 0.70723  0.74804  0.93409  Biso   1.000  C
  C991     1.0000 0.76351  0.79261  0.93548  Biso   1.000  C
  H832     1.0000 0.35393  0.76491  0.70407  Biso   1.000  H
  C992     1.0000 0.37022  0.79490  0.75759  Biso   1.000  C
  C993     1.0000 0.31362  0.82221  0.78149  Biso   1.000  C
  H833     1.0000 0.25862  0.81100  0.74439  Biso   1.000  H
  H834     1.0000 0.25955  0.93600  0.58189  Biso   1.000  H
  C994     1.0000 0.28514  0.99070  0.57898  Biso   1.000  C
  H835     1.0000 0.25845  0.97299  0.46748  Biso   1.000  H
  C995     1.0000 0.28455  0.01261  0.51098  Biso   1.000  C
  C996     1.0000 0.66926  0.18161  0.62620  Biso   1.000  C
  C997     1.0000 0.72384  0.12711  0.63529  Biso   1.000  C
  C998     1.0000 0.60696  0.12601  0.51489  Biso   1.000  C
  C999     1.0000 0.61446  0.18179  0.56729  Biso   1.000  C
  C1000    1.0000 0.69882  0.76679  0.96798  Biso   1.000  C
  C1001    1.0000 0.67852  0.71221  0.91380  Biso   1.000  C
  C1002    1.0000 0.75510  0.81145  0.96938  Biso   1.000  C
  C1003    1.0000 0.79611  0.80921  0.91689  Biso   1.000  C
  H836     1.0000 0.39863  0.79079  0.76090  Biso   1.000  H
  C1004    1.0000 0.35523  0.81631  0.78640  Biso   1.000  C
  H837     1.0000 0.30333  0.83679  0.80127  Biso   1.000  H
  H838     1.0000 0.29193  0.99520  0.60739  Biso   1.000  H
  C1005    1.0000 0.29445  0.01926  0.55260  Biso   1.000  C
  H839     1.0000 0.29086  0.03220  0.49299  Biso   1.000  H
  C1006    1.0000 0.63424  0.19911  0.60348  Biso   1.000  C
  C1007    1.0000 0.68945  0.20039  0.66570  Biso   1.000  C
  H840     1.0000 0.74664  0.13641  0.62399  Biso   1.000  H
  H841     1.0000 0.72864  0.13421  0.66409  Biso   1.000  H
  H842     1.0000 0.72135  0.09811  0.63238  Biso   1.000  H
  H843     1.0000 0.60746  0.09709  0.51928  Biso   1.000  H
  H844     1.0000 0.57876  0.13531  0.50798  Biso   1.000  H
  H845     1.0000 0.62025  0.13221  0.49250  Biso   1.000  H
  C1008    1.0000 0.57556  0.20209  0.54169  Biso   1.000  C
  C1009    1.0000 0.72281  0.79851  0.98567  Biso   1.000  C
  C1010    1.0000 0.66483  0.75150  0.98619  Biso   1.000  C
  H846     1.0000 0.66701  0.71859  0.88538  Biso   1.000  H
  H847     1.0000 0.69451  0.68770  0.91528  Biso   1.000  H
  H848     1.0000 0.65652  0.70851  0.92827  Biso   1.000  H
  C1011    1.0000 0.78322  0.84391  0.98958  Biso   1.000  C
  H849     1.0000 0.82261  0.80349  0.93448  Biso   1.000  H
  H850     1.0000 0.79463  0.79690  0.89038  Biso   1.000  H
  H851     1.0000 0.79251  0.83810  0.91367  Biso   1.000  H
  C1012    1.0000 0.38392  0.83381  0.82305  Biso   1.000  C
  C1013    1.0000 0.31635  0.05649  0.56980  Biso   1.000  C
  C1014    1.0000 0.61495  0.23580  0.61908  Biso   1.000  C
  N78      1.0000 0.67593  0.18059  0.69998  Biso   1.000  N
  H852     1.0000 0.68254  0.22910  0.66518  Biso   1.000  H
  H853     1.0000 0.71933  0.19800  0.66939  Biso   1.000  H
  N79      1.0000 0.53735  0.18611  0.55447  Biso   1.000  N
  H854     1.0000 0.57375  0.19651  0.51258  Biso   1.000  H
  H855     1.0000 0.57734  0.23130  0.54569  Biso   1.000  H
  C1015    1.0000 0.71261  0.82060  0.01911  Biso   1.000  C
  N80      1.0000 0.62712  0.77481  0.96447  Biso   1.000  N
  H856     1.0000 0.66103  0.72249  0.98149  Biso   1.000  H
  H857     1.0000 0.67060  0.75671  0.01581  Biso   1.000  H
  N81      1.0000 0.76881  0.88371  0.97128  Biso   1.000  N
  H858     1.0000 0.81122  0.83869  0.98588  Biso   1.000  H
  H859     1.0000 0.78388  0.84430  0.01899  Biso   1.000  H
  C1016    1.0000 0.37488  0.87050  0.83789  Biso   1.000  C
  C1017    1.0000 0.41993  0.81437  0.84059  Biso   1.000  C
  C1018    1.0000 0.34845  0.07190  0.55469  Biso   1.000  C
  C1019    1.0000 0.30695  0.07280  0.60448  Biso   1.000  C
  H860     1.0000 0.63375  0.25840  0.62147  Biso   1.000  H
  H861     1.0000 0.58956  0.24251  0.60000  Biso   1.000  H
  H862     1.0000 0.60915  0.22981  0.64568  Biso   1.000  H
  C1020    1.0000 0.70244  0.16730  0.72927  Biso   1.000  C
  C1021    1.0000 0.50914  0.17210  0.52809  Biso   1.000  C
  H863     1.0000 0.71420  0.80280  0.04240  Biso   1.000  H
  H864     1.0000 0.73170  0.84281  0.02659  Biso   1.000  H
  H865     1.0000 0.68490  0.83109  0.01090  Biso   1.000  H
  C1022    1.0000 0.59531  0.75409  0.94939  Biso   1.000  C
  C1023    1.0000 0.76040  0.91030  0.99318  Biso   1.000  C
  C1024    1.0000 0.40170  0.88788  0.87027  Biso   1.000  C
  H866     1.0000 0.35032  0.88380  0.82599  Biso   1.000  H
  C1025    1.0000 0.44676  0.83169  0.87300  Biso   1.000  C
  H867     1.0000 0.42613  0.78930  0.83038  Biso   1.000  H
  C1026    1.0000 0.37105  0.10359  0.57419  Biso   1.000  C
  H868     1.0000 0.35485  0.06081  0.53100  Biso   1.000  H
  H869     1.0000 0.28503  0.06219  0.61478  Biso   1.000  H
  C1027    1.0000 0.32955  0.10449  0.62399  Biso   1.000  C
  H870     1.0000 0.73024  0.17010  0.72797  Biso   1.000  H
  C1028    1.0000 0.69344  0.14819  0.76429  Biso   1.000  C
  C1029    1.0000 0.47466  0.15490  0.53948  Biso   1.000  C
  H871     1.0000 0.51054  0.17299  0.50038  Biso   1.000  H
  C1030    1.0000 0.55723  0.77499  0.92867  Biso   1.000  C
  H872     1.0000 0.59600  0.72580  0.95148  Biso   1.000  H
  C1031    1.0000 0.74391  0.94893  0.97768  Biso   1.000  C
  H873     1.0000 0.76489  0.90550  0.02150  Biso   1.000  H
  C1032    1.0000 0.43771  0.86850  0.88778  Biso   1.000  C
  C1033    1.0000 0.39002  0.92690  0.88729  Biso   1.000  C
  C1034    1.0000 0.48493  0.81240  0.89217  Biso   1.000  C
  C1035    1.0000 0.36165  0.11990  0.60887  Biso   1.000  C
  C1036    1.0000 0.40646  0.12061  0.55968  Biso   1.000  C
  C1037    1.0000 0.32016  0.11930  0.66270  Biso   1.000  C
  C1038    1.0000 0.65394  0.14461  0.76998  Biso   1.000  C
  C1039    1.0000 0.72604  0.13731  0.79509  Biso   1.000  C
  C1040    1.0000 0.44134  0.14461  0.50919  Biso   1.000  C
  C1041    1.0000 0.47386  0.14810  0.57989  Biso   1.000  C
  C1042    1.0000 0.52182  0.75278  0.91710  Biso   1.000  C
  C1043    1.0000 0.55652  0.81601  0.92210  Biso   1.000  C
  C1044    1.0000 0.73401  0.95549  0.93618  Biso   1.000  C
  C1045    1.0000 0.73470  0.97749  0.00412  Biso   1.000  C
  H874     1.0000 0.45602  0.88040  0.90998  Biso   1.000  H
  C1046    1.0000 0.40042  0.93310  0.92888  Biso   1.000  C
  C1047    1.0000 0.36792  0.95561  0.86209  Biso   1.000  C
  C1048    1.0000 0.48573  0.77141  0.89877  Biso   1.000  C
  C1049    1.0000 0.52032  0.83461  0.90377  Biso   1.000  C
  H875     1.0000 0.37715  0.14160  0.62229  Biso   1.000  H
  C1050    1.0000 0.40724  0.12741  0.51928  Biso   1.000  C
  C1051    1.0000 0.43975  0.13090  0.58997  Biso   1.000  C
  C1052    1.0000 0.35284  0.13021  0.69347  Biso   1.000  C
  C1053    1.0000 0.28065  0.12291  0.66839  Biso   1.000  C
  H876     1.0000 0.63164  0.15200  0.74899  Biso   1.000  H
  C1054    1.0000 0.64704  0.13021  0.80648  Biso   1.000  C
  C1055    1.0000 0.71923  0.12291  0.83159  Biso   1.000  C
  H877     1.0000 0.75304  0.13981  0.79119  Biso   1.000  H
  H878     1.0000 0.44185  0.14920  0.48160  Biso   1.000  H
  H879     1.0000 0.49653  0.15511  0.60057  Biso   1.000  H
  H880     1.0000 0.52231  0.72479  0.92158  Biso   1.000  H
  H881     1.0000 0.58060  0.83121  0.92997  Biso   1.000  H
  H882     1.0000 0.74033  0.93600  0.91810  Biso   1.000  H
  C1056    1.0000 0.71471  0.99070  0.92100  Biso   1.000  C
  H883     1.0000 0.74149  0.97299  0.03250  Biso   1.000  H
  C1057    1.0000 0.71532  0.01261  0.98897  Biso   1.000  C
  C1058    1.0000 0.38860  0.96810  0.94530  Biso   1.000  C
  H884     1.0000 0.41553  0.91349  0.94599  Biso   1.000  H
  H885     1.0000 0.36082  0.95129  0.83368  Biso   1.000  H
  C1059    1.0000 0.35621  0.99049  0.87848  Biso   1.000  C
  H886     1.0000 0.46153  0.75621  0.89090  Biso   1.000  H
  H887     1.0000 0.51983  0.86260  0.89929  Biso   1.000  H
  H888     1.0000 0.38455  0.12041  0.49868  Biso   1.000  H
  H889     1.0000 0.43925  0.12631  0.61760  Biso   1.000  H
  C1060    1.0000 0.34594  0.14461  0.73000  Biso   1.000  C
  H890     1.0000 0.37973  0.12771  0.68959  Biso   1.000  H
  H891     1.0000 0.25836  0.11549  0.64740  Biso   1.000  H
  C1061    1.0000 0.27384  0.13731  0.70489  Biso   1.000  C
  H892     1.0000 0.62012  0.12771  0.81039  Biso   1.000  H
  C1062    1.0000 0.67973  0.11930  0.83729  Biso   1.000  C
  H893     1.0000 0.74152  0.11549  0.85258  Biso   1.000  H
  H894     1.0000 0.70792  0.99520  0.89259  Biso   1.000  H
  C1063    1.0000 0.70543  0.01926  0.94739  Biso   1.000  C
  H895     1.0000 0.70908  0.03220  0.00700  Biso   1.000  H
  C1064    1.0000 0.36653  0.99681  0.92010  Biso   1.000  C
  H896     1.0000 0.39572  0.97231  0.97368  Biso   1.000  H
  H897     1.0000 0.34111  0.01011  0.86127  Biso   1.000  H
  C1065    1.0000 0.30644  0.14819  0.73570  Biso   1.000  C
  H898     1.0000 0.36824  0.15200  0.75099  Biso   1.000  H
  H899     1.0000 0.24684  0.13981  0.70880  Biso   1.000  H
  C1066    1.0000 0.67033  0.10449  0.87599  Biso   1.000  C
  C1067    1.0000 0.68353  0.05649  0.93018  Biso   1.000  C
  C1068    1.0000 0.35353  0.03091  0.93927  Biso   1.000  C
  C1069    1.0000 0.29743  0.16730  0.77068  Biso   1.000  C
  C1070    1.0000 0.69292  0.07280  0.89547  Biso   1.000  C
  C1071    1.0000 0.63822  0.11990  0.89108  Biso   1.000  C
  C1072    1.0000 0.65143  0.07190  0.94530  Biso   1.000  C
  N82      1.0000 0.33073  0.05801  0.91828  Biso   1.000  N
  H900     1.0000 0.36162  0.03381  0.96777  Biso   1.000  H
  N83      1.0000 0.32393  0.18059  0.80000  Biso   1.000  N
  H901     1.0000 0.26963  0.17010  0.77198  Biso   1.000  H
  H902     1.0000 0.71481  0.06219  0.88517  Biso   1.000  H
  C1073    1.0000 0.62883  0.10359  0.92579  Biso   1.000  C
  H903     1.0000 0.62273  0.14160  0.87769  Biso   1.000  H
  H904     1.0000 0.64501  0.06081  0.96898  Biso   1.000  H
  C1074    1.0000 0.31821  0.09301  0.94000  Biso   1.000  C
  C1075    1.0000 0.31043  0.20039  0.83429  Biso   1.000  C
  C1076    1.0000 0.59341  0.12061  0.94027  Biso   1.000  C
  C1077    1.0000 0.33522  0.12959  0.92358  Biso   1.000  C
  H905     1.0000 0.28821  0.09471  0.93509  Biso   1.000  H
  H906     1.0000 0.32912  0.09059  0.96947  Biso   1.000  H
  C1078    1.0000 0.33062  0.18161  0.87378  Biso   1.000  C
  H907     1.0000 0.31733  0.22910  0.83477  Biso   1.000  H
  H908     1.0000 0.28052  0.19800  0.83059  Biso   1.000  H
  C1079    1.0000 0.59261  0.12741  0.98067  Biso   1.000  C
  C1080    1.0000 0.56012  0.13090  0.90998  Biso   1.000  C
  C1081    1.0000 0.31541  0.14691  0.88738  Biso   1.000  C
  C1082    1.0000 0.37021  0.14700  0.94630  Biso   1.000  C
  C1083    1.0000 0.36560  0.19911  0.89647  Biso   1.000  C
  C1084    1.0000 0.55851  0.14461  0.99079  Biso   1.000  C
  H909     1.0000 0.61539  0.12041  0.00130  Biso   1.000  H
  C1085    1.0000 0.52602  0.14810  0.92010  Biso   1.000  C
  H910     1.0000 0.56063  0.12631  0.88239  Biso   1.000  H
  C1086    1.0000 0.27604  0.12711  0.86470  Biso   1.000  C
  C1087    1.0000 0.39292  0.12601  0.98507  Biso   1.000  C
  C1088    1.0000 0.38542  0.18179  0.93270  Biso   1.000  C
  C1089    1.0000 0.38493  0.23580  0.88087  Biso   1.000  C
  C1090    1.0000 0.52521  0.15490  0.96047  Biso   1.000  C
  H911     1.0000 0.55809  0.14920  0.01838  Biso   1.000  H
  H912     1.0000 0.50331  0.15511  0.89938  Biso   1.000  H
  H913     1.0000 0.25321  0.13641  0.87599  Biso   1.000  H
  H914     1.0000 0.27124  0.13421  0.83589  Biso   1.000  H
  H915     1.0000 0.27853  0.09811  0.86757  Biso   1.000  H
  H916     1.0000 0.39242  0.09709  0.98067  Biso   1.000  H
  H917     1.0000 0.42112  0.13531  0.99197  Biso   1.000  H
  H918     1.0000 0.37970  0.13221  0.00751  Biso   1.000  H
  C1091    1.0000 0.42432  0.20209  0.95829  Biso   1.000  C
  H919     1.0000 0.36613  0.25840  0.87848  Biso   1.000  H
  H920     1.0000 0.41032  0.24251  0.89998  Biso   1.000  H
  H921     1.0000 0.39072  0.22981  0.85428  Biso   1.000  H
  C1092    1.0000 0.49071  0.17210  0.97189  Biso   1.000  C
  N84      1.0000 0.46253  0.18611  0.94548  Biso   1.000  N
  H922     1.0000 0.42612  0.19651  0.98737  Biso   1.000  H
  H923     1.0000 0.42251  0.23130  0.95429  Biso   1.000  H
  H924     1.0000 0.48930  0.17299  0.99958  Biso   1.000  H
  C1093    1.0000 0.85218  0.24811  0.24359  Biso   1.000  C
  C1094    1.0000 0.81907  0.22629  0.22311  Biso   1.000  C
  H925     1.0000 0.85629  0.27471  0.23550  Biso   1.000  H
  C1095    1.0000 0.87939  0.23121  0.27609  Biso   1.000  C
  C1096    1.0000 0.79028  0.24680  0.18919  Biso   1.000  C
  C1097    1.0000 0.81307  0.18751  0.23511  Biso   1.000  C
  H926     1.0000 0.90196  0.24609  0.29008  Biso   1.000  H
  C1098    1.0000 0.87337  0.19240  0.28799  Biso   1.000  C
  N85      1.0000 0.76458  0.23050  0.16659  Biso   1.000  N
  H927     1.0000 0.79328  0.27471  0.18601  Biso   1.000  H
  C1099    1.0000 0.84016  0.17061  0.26748  Biso   1.000  C
  H928     1.0000 0.79037  0.17260  0.22108  Biso   1.000  H
  C1100    1.0000 0.89948  0.17550  0.32618  Biso   1.000  C
  C1101    1.0000 0.73978  0.25420  0.13448  Biso   1.000  C
  H929     1.0000 0.83608  0.14410  0.27569  Biso   1.000  H
  C1102    1.0000 0.93837  0.19100  0.33891  Biso   1.000  C
  C1103    1.0000 0.88691  0.14360  0.34669  Biso   1.000  C
  C1104    1.0000 0.74408  0.23461  0.09668  Biso   1.000  C
  H930     1.0000 0.74970  0.28210  0.13548  Biso   1.000  H
  H931     1.0000 0.71108  0.25429  0.13700  Biso   1.000  H
  H932     1.0000 0.94688  0.21279  0.32488  Biso   1.000  H
  C1105    1.0000 0.96477  0.17451  0.37219  Biso   1.000  C
  C1106    1.0000 0.91335  0.12711  0.37989  Biso   1.000  C
  H933     1.0000 0.86026  0.13299  0.33800  Biso   1.000  H
  C1107    1.0000 0.72098  0.20119  0.08230  Biso   1.000  C
  C1108    1.0000 0.77359  0.24820  0.07669  Biso   1.000  C
  C1109    1.0000 0.95226  0.14250  0.39270  Biso   1.000  C
  C1110    1.0000 0.00666  0.19231  0.38849  Biso   1.000  C
  C1111    1.0000 0.89947  0.09450  0.40479  Biso   1.000  C
  C1112    1.0000 0.69050  0.18900  0.10880  Biso   1.000  C
  C1113    1.0000 0.72731  0.18140  0.04810  Biso   1.000  C
  C1114    1.0000 0.77989  0.22829  0.04250  Biso   1.000  C
  C1115    1.0000 0.80030  0.28269  0.09169  Biso   1.000  C
  H934     1.0000 0.97035  0.13129  0.41539  Biso   1.000  H
  C1116    1.0000 0.04098  0.16819  0.39679  Biso   1.000  C
  C1117    1.0000 0.00946  0.23220  0.39988  Biso   1.000  C
  C1118    1.0000 0.85935  0.09370  0.40900  Biso   1.000  C
  C1119    1.0000 0.92647  0.06520  0.42308  Biso   1.000  C
  H935     1.0000 0.70529  0.17609  0.13370  Biso   1.000  H
  H936     1.0000 0.67050  0.17040  0.09368  Biso   1.000  H
  H937     1.0000 0.67659  0.21279  0.11589  Biso   1.000  H
  C1120    1.0000 0.75669  0.19499  0.02820  Biso   1.000  C
  C1121    1.0000 0.70099  0.14649  0.03380  Biso   1.000  C
  C1122    1.0000 0.80889  0.24069  0.01960  Biso   1.000  C
  H938     1.0000 0.78361  0.30541  0.09620  Biso   1.000  H
  H939     1.0000 0.81608  0.28991  0.07151  Biso   1.000  H
  H940     1.0000 0.81887  0.27551  0.11719  Biso   1.000  H
  C1123    1.0000 0.07816  0.18390  0.41660  Biso   1.000  C
  H941     1.0000 0.03906  0.14089  0.38900  Biso   1.000  H
  H942     1.0000 0.98598  0.24871  0.39418  Biso   1.000  H
  C1124    1.0000 0.04656  0.24791  0.41969  Biso   1.000  C
  C1125    1.0000 0.84615  0.06371  0.43138  Biso   1.000  C
  H943     1.0000 0.84087  0.11370  0.39649  Biso   1.000  H
  H944     1.0000 0.95395  0.06570  0.42029  Biso   1.000  H
  C1126    1.0000 0.91335  0.03521  0.44558  Biso   1.000  C
  C1127    1.0000 0.76633  0.17061  0.99449  Biso   1.000  C
  N86      1.0000 0.71428  0.10791  0.05019  Biso   1.000  N
  H945     1.0000 0.67390  0.15180  0.03980  Biso   1.000  H
  H946     1.0000 0.69731  0.14509  0.00400  Biso   1.000  H
  N87      1.0000 0.84919  0.21941  0.03801  Biso   1.000  N
  H947     1.0000 0.81261  0.27000  0.02141  Biso   1.000  H
  H948     1.0000 0.79943  0.23330  0.99079  Biso   1.000  H
  C1128    1.0000 0.08096  0.22379  0.42799  Biso   1.000  C
  H949     1.0000 0.10156  0.16751  0.42229  Biso   1.000  H
  H950     1.0000 0.04847  0.27521  0.42750  Biso   1.000  H
  C1129    1.0000 0.87315  0.03440  0.44980  Biso   1.000  C
  H951     1.0000 0.81875  0.06311  0.43429  Biso   1.000  H
  H952     1.0000 0.93175  0.01520  0.45809  Biso   1.000  H
  H953     1.0000 0.75221  0.14491  0.99318  Biso   1.000  H
  H954     1.0000 0.79572  0.16599  0.99949  Biso   1.000  H
  H955     1.0000 0.75741  0.18480  0.96877  Biso   1.000  H
  C1130    1.0000 0.74079  0.09811  0.06621  Biso   1.000  C
  C1131    1.0000 0.87849  0.24030  0.05070  Biso   1.000  C
  C1132    1.0000 0.12146  0.24030  0.44928  Biso   1.000  C
  C1133    1.0000 0.86057  0.00140  0.47260  Biso   1.000  C
  C1134    1.0000 0.76240  0.06159  0.08581  Biso   1.000  C
  H956     1.0000 0.75930  0.11990  0.07070  Biso   1.000  H
  C1135    1.0000 0.91898  0.22379  0.07200  Biso   1.000  C
  H957     1.0000 0.87590  0.26839  0.04710  Biso   1.000  H
  N88      1.0000 0.15077  0.21941  0.46200  Biso   1.000  N
  H958     1.0000 0.12405  0.26839  0.45288  Biso   1.000  H
  H959     1.0000 0.83365  0.00170  0.47678  Biso   1.000  H
  N89      1.0000 0.88255  0.97320  0.48660  Biso   1.000  N
  C1136    1.0000 0.80288  0.05449  0.08520  Biso   1.000  C
  C1137    1.0000 0.73988  0.03291  0.10089  Biso   1.000  C
  C1138    1.0000 0.92179  0.18390  0.08339  Biso   1.000  C
  C1139    1.0000 0.95339  0.24791  0.08030  Biso   1.000  C
  C1140    1.0000 0.19105  0.24069  0.48039  Biso   1.000  C
  C1141    1.0000 0.86576  0.93969  0.50419  Biso   1.000  C
  H960     1.0000 0.81830  0.07420  0.07491  Biso   1.000  H
  C1142    1.0000 0.82090  0.01860  0.09971  Biso   1.000  C
  H961     1.0000 0.71218  0.03771  0.10129  Biso   1.000  H
  C1143    1.0000 0.75789  0.99699  0.11549  Biso   1.000  C
  H962     1.0000 0.89839  0.16751  0.07769  Biso   1.000  H
  C1144    1.0000 0.95900  0.16819  0.10320  Biso   1.000  C
  C1145    1.0000 0.99048  0.23220  0.10011  Biso   1.000  C
  H963     1.0000 0.95151  0.27521  0.07251  Biso   1.000  H
  C1146    1.0000 0.22006  0.22829  0.45749  Biso   1.000  C
  H964     1.0000 0.18735  0.27000  0.47860  Biso   1.000  H
  H965     1.0000 0.20046  0.23330  0.50919  Biso   1.000  H
  C1147    1.0000 0.87466  0.90100  0.48360  Biso   1.000  C
  H966     1.0000 0.83606  0.94321  0.50068  Biso   1.000  H
  H967     1.0000 0.87785  0.93829  0.53348  Biso   1.000  H
  H968     1.0000 0.84860  0.01371  0.09929  Biso   1.000  H
  C1148    1.0000 0.79840  0.98980  0.11489  Biso   1.000  C
  H969     1.0000 0.74260  0.97731  0.12579  Biso   1.000  H
  H970     1.0000 0.96089  0.14089  0.11101  Biso   1.000  H
  C1149    1.0000 0.99329  0.19231  0.11149  Biso   1.000  C
  H971     1.0000 0.01400  0.24871  0.10580  Biso   1.000  H
  C1150    1.0000 0.22636  0.24820  0.42329  Biso   1.000  C
  C1151    1.0000 0.24326  0.19499  0.47179  Biso   1.000  C
  C1152    1.0000 0.84585  0.88389  0.45249  Biso   1.000  C
  C1153    1.0000 0.91185  0.88231  0.49738  Biso   1.000  C
  C1154    1.0000 0.81968  0.95066  0.12770  Biso   1.000  C
  C1155    1.0000 0.03518  0.17451  0.12779  Biso   1.000  C
  C1156    1.0000 0.25587  0.23461  0.40330  Biso   1.000  C
  C1157    1.0000 0.19965  0.28269  0.40830  Biso   1.000  C
  C1158    1.0000 0.27267  0.18140  0.45189  Biso   1.000  C
  C1159    1.0000 0.23356  0.17061  0.50550  Biso   1.000  C
  C1160    1.0000 0.85435  0.84811  0.43529  Biso   1.000  C
  C1161    1.0000 0.80576  0.90690  0.43610  Biso   1.000  C
  C1162    1.0000 0.92027  0.84650  0.48021  Biso   1.000  C
  C1163    1.0000 0.94496  0.90720  0.52670  Biso   1.000  C
  C1164    1.0000 0.84350  0.93269  0.10386  Biso   1.000  C
  C1165    1.0000 0.81608  0.93331  0.16411  Biso   1.000  C
  C1166    1.0000 0.06158  0.19100  0.16111  Biso   1.000  C
  C1167    1.0000 0.04769  0.14250  0.10728  Biso   1.000  C
  C1168    1.0000 0.26017  0.25420  0.36550  Biso   1.000  C
  C1169    1.0000 0.27897  0.20119  0.41769  Biso   1.000  C
  H972     1.0000 0.21637  0.30541  0.40379  Biso   1.000  H
  H973     1.0000 0.18387  0.28991  0.42850  Biso   1.000  H
  H974     1.0000 0.18107  0.27551  0.38280  Biso   1.000  H
  C1170    1.0000 0.29896  0.14649  0.46618  Biso   1.000  C
  H975     1.0000 0.24764  0.14491  0.50680  Biso   1.000  H
  H976     1.0000 0.20417  0.16599  0.50050  Biso   1.000  H
  H977     1.0000 0.24244  0.18480  0.53118  Biso   1.000  H
  C1171    1.0000 0.82396  0.83100  0.40148  Biso   1.000  C
  C1172    1.0000 0.89155  0.82939  0.44910  Biso   1.000  C
  H978     1.0000 0.80167  0.92690  0.45600  Biso   1.000  H
  H979     1.0000 0.78297  0.88821  0.43120  Biso   1.000  H
  H980     1.0000 0.80736  0.92020  0.41069  Biso   1.000  H
  C1173    1.0000 0.96184  0.82579  0.49408  Biso   1.000  C
  H981     1.0000 0.94386  0.93489  0.51758  Biso   1.000  H
  H982     1.0000 0.97185  0.89611  0.52679  Biso   1.000  H
  H983     1.0000 0.93986  0.90601  0.55420  Biso   1.000  H
  C1174    1.0000 0.86379  0.89730  0.11649  Biso   1.000  C
  H984     1.0000 0.84589  0.94461  0.07899  Biso   1.000  H
  C1175    1.0000 0.83638  0.89790  0.17665  Biso   1.000  C
  H985     1.0000 0.79979  0.94560  0.18028  Biso   1.000  H
  C1176    1.0000 0.10050  0.17550  0.17380  Biso   1.000  C
  H986     1.0000 0.05307  0.21279  0.17510  Biso   1.000  H
  H987     1.0000 0.02960  0.13129  0.08460  Biso   1.000  H
  C1177    1.0000 0.08660  0.12711  0.12010  Biso   1.000  C
  N90      1.0000 0.23537  0.23050  0.33339  Biso   1.000  N
  H988     1.0000 0.25028  0.28210  0.36450  Biso   1.000  H
  H989     1.0000 0.28887  0.25429  0.36299  Biso   1.000  H
  C1178    1.0000 0.30945  0.18900  0.39119  Biso   1.000  C
  N91      1.0000 0.28567  0.10791  0.44980  Biso   1.000  N
  H990     1.0000 0.32605  0.15180  0.46018  Biso   1.000  H
  H991     1.0000 0.30267  0.14509  0.49599  Biso   1.000  H
  N92      1.0000 0.82378  0.85011  0.36380  Biso   1.000  N
  H992     1.0000 0.82985  0.80230  0.39909  Biso   1.000  H
  H993     1.0000 0.79668  0.83330  0.40769  Biso   1.000  H
  C1179    1.0000 0.90096  0.79201  0.42868  Biso   1.000  C
  N93      1.0000 0.98965  0.83369  0.46509  Biso   1.000  N
  H994     1.0000 0.97496  0.83539  0.52140  Biso   1.000  H
  H995     1.0000 0.95757  0.79669  0.49590  Biso   1.000  H
  C1180    1.0000 0.86019  0.87989  0.15290  Biso   1.000  C
  C1181    1.0000 0.89180  0.88150  0.09120  Biso   1.000  C
  C1182    1.0000 0.83267  0.87951  0.21678  Biso   1.000  C
  C1183    1.0000 0.11303  0.14360  0.15329  Biso   1.000  C
  C1184    1.0000 0.12658  0.19240  0.21199  Biso   1.000  C
  C1185    1.0000 0.10048  0.09450  0.09520  Biso   1.000  C
  C1186    1.0000 0.20967  0.24680  0.31080  Biso   1.000  C
  H996     1.0000 0.29466  0.17609  0.36629  Biso   1.000  H
  H997     1.0000 0.32947  0.17040  0.40630  Biso   1.000  H
  H998     1.0000 0.32336  0.21279  0.38410  Biso   1.000  H
  C1187    1.0000 0.25916  0.09811  0.43380  Biso   1.000  C
  C1188    1.0000 0.83206  0.83240  0.33330  Biso   1.000  C
  H999     1.0000 0.89235  0.76891  0.44250  Biso   1.000  H
  H1000    1.0000 0.93027  0.79049  0.42999  Biso   1.000  H
  H1001    1.0000 0.88636  0.79231  0.40039  Biso   1.000  H
  C1189    1.0000 0.02467  0.84949  0.48160  Biso   1.000  C
  H1002    1.0000 0.87409  0.85569  0.16150  Biso   1.000  H
  C1190    1.0000 0.88148  0.88451  0.04919  Biso   1.000  C
  C1191    1.0000 0.92990  0.86710  0.11016  Biso   1.000  C
  C1192    1.0000 0.83258  0.83840  0.22160  Biso   1.000  C
  C1193    1.0000 0.83309  0.90434  0.24980  Biso   1.000  C
  H1003    1.0000 0.13969  0.13299  0.16199  Biso   1.000  H
  C1194    1.0000 0.12059  0.23121  0.22390  Biso   1.000  C
  C1195    1.0000 0.15979  0.17061  0.23250  Biso   1.000  C
  C1196    1.0000 0.14060  0.09370  0.09099  Biso   1.000  C
  C1197    1.0000 0.07351  0.06520  0.07690  Biso   1.000  C
  C1198    1.0000 0.18089  0.22629  0.27690  Biso   1.000  C
  H1004    1.0000 0.20668  0.27471  0.31401  Biso   1.000  H
  C1199    1.0000 0.23755  0.06159  0.41421  Biso   1.000  C
  H1005    1.0000 0.24065  0.11990  0.42929  Biso   1.000  H
  C1200    1.0000 0.83316  0.84689  0.29247  Biso   1.000  C
  H1006    1.0000 0.83877  0.80501  0.33760  Biso   1.000  H
  C1201    1.0000 0.05265  0.85870  0.45479  Biso   1.000  C
  H1007    1.0000 0.03186  0.85479  0.50980  Biso   1.000  H
  C1202    1.0000 0.90929  0.87310  0.02623  Biso   1.000  C
  H1008    1.0000 0.85560  0.89441  0.03620  Biso   1.000  H
  H1009    1.0000 0.93688  0.86511  0.13891  Biso   1.000  H
  C1203    1.0000 0.95758  0.85581  0.08720  Biso   1.000  C
  C1204    1.0000 0.83286  0.82203  0.25949  Biso   1.000  C
  H1010    1.0000 0.83237  0.82140  0.19909  Biso   1.000  H
  H1011    1.0000 0.83319  0.93251  0.24640  Biso   1.000  H
  C1205    1.0000 0.83339  0.88800  0.28760  Biso   1.000  C
  C1206    1.0000 0.14777  0.24811  0.25640  Biso   1.000  C
  H1012    1.0000 0.09799  0.24609  0.20990  Biso   1.000  H
  H1013    1.0000 0.16387  0.14410  0.22429  Biso   1.000  H
  C1207    1.0000 0.18688  0.18751  0.26491  Biso   1.000  C
  C1208    1.0000 0.15380  0.06371  0.06861  Biso   1.000  C
  H1014    1.0000 0.15908  0.11370  0.10350  Biso   1.000  H
  H1015    1.0000 0.04600  0.06570  0.07969  Biso   1.000  H
  C1209    1.0000 0.08660  0.03521  0.05440  Biso   1.000  C
  C1210    1.0000 0.19707  0.05449  0.41478  Biso   1.000  C
  C1211    1.0000 0.26007  0.03291  0.39909  Biso   1.000  C
  C1212    1.0000 0.09066  0.87310  0.47375  Biso   1.000  C
  C1213    1.0000 0.04237  0.85581  0.41278  Biso   1.000  C
  H1016    1.0000 0.90212  0.87521  0.99749  Biso   1.000  H
  C1214    1.0000 0.94730  0.85870  0.04519  Biso   1.000  C
  H1017    1.0000 0.98350  0.84591  0.10020  Biso   1.000  H
  H1018    1.0000 0.83277  0.79389  0.26279  Biso   1.000  H
  H1019    1.0000 0.83356  0.90499  0.31019  Biso   1.000  H
  H1020    1.0000 0.14366  0.27471  0.26449  Biso   1.000  H
  H1021    1.0000 0.20957  0.17260  0.27890  Biso   1.000  H
  C1215    1.0000 0.12680  0.03440  0.05019  Biso   1.000  C
  H1022    1.0000 0.18119  0.06311  0.06570  Biso   1.000  H
  H1023    1.0000 0.06820  0.01520  0.04189  Biso   1.000  H
  H1024    1.0000 0.18165  0.07420  0.42508  Biso   1.000  H
  C1216    1.0000 0.17905  0.01860  0.40030  Biso   1.000  C
  C1217    1.0000 0.24205  0.99699  0.38449  Biso   1.000  C
  H1025    1.0000 0.28777  0.03771  0.39870  Biso   1.000  H
  H1026    1.0000 0.09776  0.87521  0.50250  Biso   1.000  H
  C1218    1.0000 0.11846  0.88451  0.45079  Biso   1.000  C
  C1219    1.0000 0.07005  0.86710  0.38982  Biso   1.000  C
  H1027    1.0000 0.01645  0.84591  0.39979  Biso   1.000  H
  C1220    1.0000 0.97531  0.84949  0.01839  Biso   1.000  C
  C1221    1.0000 0.13939  0.00140  0.02741  Biso   1.000  C
  C1222    1.0000 0.20158  0.98980  0.38510  Biso   1.000  C
  H1028    1.0000 0.15135  0.01371  0.40070  Biso   1.000  H
  H1029    1.0000 0.25735  0.97731  0.37419  Biso   1.000  H
  H1030    1.0000 0.14435  0.89441  0.46379  Biso   1.000  H
  C1223    1.0000 0.10815  0.88150  0.40878  Biso   1.000  C
  H1031    1.0000 0.06307  0.86511  0.36108  Biso   1.000  H
  H1032    1.0000 0.96803  0.85479  0.99019  Biso   1.000  H
  N94      1.0000 0.01030  0.83369  0.03489  Biso   1.000  N
  N95      1.0000 0.11740  0.97320  0.01339  Biso   1.000  N
  H1033    1.0000 0.16629  0.00170  0.02320  Biso   1.000  H
  C1224    1.0000 0.18027  0.95066  0.37228  Biso   1.000  C
  C1225    1.0000 0.13616  0.89730  0.38349  Biso   1.000  C
  C1226    1.0000 0.03811  0.82579  0.00591  Biso   1.000  C
  C1227    1.0000 0.13413  0.93969  0.99579  Biso   1.000  C
  C1228    1.0000 0.15645  0.93269  0.39612  Biso   1.000  C
  C1229    1.0000 0.18387  0.93331  0.33591  Biso   1.000  C
  C1230    1.0000 0.13976  0.87989  0.34708  Biso   1.000  C
  H1034    1.0000 0.02493  0.83539  0.97859  Biso   1.000  H
  C1231    1.0000 0.07969  0.84650  0.01981  Biso   1.000  C
  H1035    1.0000 0.04241  0.79669  0.00409  Biso   1.000  H
  H1036    1.0000 0.16382  0.94321  0.99927  Biso   1.000  H
  H1037    1.0000 0.12203  0.93829  0.96647  Biso   1.000  H
  C1232    1.0000 0.12529  0.90100  0.01639  Biso   1.000  C
  H1038    1.0000 0.15406  0.94461  0.42099  Biso   1.000  H
  C1233    1.0000 0.16356  0.89790  0.32334  Biso   1.000  C
  H1039    1.0000 0.20018  0.94560  0.31970  Biso   1.000  H
  H1040    1.0000 0.12586  0.85569  0.33848  Biso   1.000  H
  C1234    1.0000 0.10840  0.82939  0.05089  Biso   1.000  C
  C1235    1.0000 0.08810  0.88231  0.00260  Biso   1.000  C
  C1236    1.0000 0.15410  0.88389  0.04749  Biso   1.000  C
  C1237    1.0000 0.16729  0.87951  0.28323  Biso   1.000  C
  C1238    1.0000 0.14560  0.84811  0.06470  Biso   1.000  C
  C1239    1.0000 0.09899  0.79201  0.07130  Biso   1.000  C
  C1240    1.0000 0.05493  0.90720  0.97328  Biso   1.000  C
  C1241    1.0000 0.19420  0.90690  0.06391  Biso   1.000  C
  C1242    1.0000 0.16737  0.83840  0.27839  Biso   1.000  C
  C1243    1.0000 0.16689  0.90434  0.25019  Biso   1.000  C
  C1244    1.0000 0.17599  0.83100  0.09850  Biso   1.000  C
  H1041    1.0000 0.10759  0.76891  0.05749  Biso   1.000  H
  H1042    1.0000 0.06971  0.79049  0.07000  Biso   1.000  H
  H1043    1.0000 0.11359  0.79231  0.09959  Biso   1.000  H
  H1044    1.0000 0.05602  0.93489  0.98237  Biso   1.000  H
  H1045    1.0000 0.02801  0.89611  0.97319  Biso   1.000  H
  H1046    1.0000 0.06002  0.90601  0.94578  Biso   1.000  H
  H1047    1.0000 0.19829  0.92690  0.04401  Biso   1.000  H
  H1048    1.0000 0.21701  0.88821  0.06879  Biso   1.000  H
  H1049    1.0000 0.19259  0.92020  0.08929  Biso   1.000  H
  C1245    1.0000 0.16709  0.82203  0.24050  Biso   1.000  C
  H1050    1.0000 0.16758  0.82140  0.30089  Biso   1.000  H
  C1246    1.0000 0.16659  0.88800  0.21239  Biso   1.000  C
  H1051    1.0000 0.16678  0.93251  0.25358  Biso   1.000  H
  N96      1.0000 0.17618  0.85011  0.13621  Biso   1.000  N
  H1052    1.0000 0.17009  0.80230  0.10089  Biso   1.000  H
  H1053    1.0000 0.20330  0.83330  0.09229  Biso   1.000  H
  C1247    1.0000 0.16679  0.84689  0.20751  Biso   1.000  C
  H1054    1.0000 0.16718  0.79389  0.23719  Biso   1.000  H
  H1055    1.0000 0.16639  0.90499  0.18979  Biso   1.000  H
  C1248    1.0000 0.16790  0.83240  0.16671  Biso   1.000  C
  H1056    1.0000 0.16118  0.80501  0.16241  Biso   1.000  H
  Ne1      1.0000 0.49998  0.03007  0.24999  Biso   1.000  Ne
  He1      1.0000 0.52946  0.01103  0.41208  Biso   1.000  He
  He2      1.0000 0.64327  0.06427  0.29053  Biso   1.000  He
  He3      1.0000 0.50714  0.21348  0.27265  Biso   1.000  He
  He4      1.0000 0.49573  0.87818  0.26305  Biso   1.000  He
  He5      1.0000 0.34457  0.06466  0.21108  Biso   1.000  He
  He6      1.0000 0.46109  0.01895  0.05638  Biso   1.000  He
  Ar1      1.0000 0.49421  0.00572  0.24434  Biso   1.000  Ar
  Ne2      1.0000 0.49997  0.53984  0.24999  Biso   1.000  Ne
  He7      1.0000 0.54173  0.49566  0.41159  Biso   1.000  He
  He8      1.0000 0.35484  0.53616  0.27895  Biso   1.000  He
  He9      1.0000 0.49050  0.74029  0.24244  Biso   1.000  He
  He10     1.0000 0.52705  0.36966  0.23919  Biso   1.000  He
  He11     1.0000 0.67016  0.53418  0.20964  Biso   1.000  He
  He12     1.0000 0.45859  0.49563  0.08957  Biso   1.000  He
  Ar2      1.0000 0.50002  0.51788  0.25001  Biso   1.000  Ar
  Ne3      1.0000 0.49993  0.46016  0.74999  Biso   1.000  Ne
  He13     1.0000 0.57290  0.47836  0.99115  Biso   1.000  He
  He14     1.0000 0.30664  0.45911  0.73883  Biso   1.000  He
  He15     1.0000 0.47245  0.63536  0.76095  Biso   1.000  He
  He16     1.0000 0.52198  0.30489  0.76732  Biso   1.000  He
  He17     1.0000 0.66940  0.46579  0.70977  Biso   1.000  He
  He18     1.0000 0.45852  0.50436  0.58951  Biso   1.000  He
  Ar3      1.0000 0.49994  0.48204  0.74999  Biso   1.000  Ar
  Ne4      1.0000 0.99993  0.46993  0.74999  Biso   1.000  Ne
  He19     1.0000 0.02991  0.48885  0.91333  Biso   1.000  He
  He20     1.0000 0.00422  0.63189  0.73683  Biso   1.000  He
  He21     1.0000 0.20589  0.49633  0.77165  Biso   1.000  He
  He22     1.0000 0.99302  0.28948  0.72814  Biso   1.000  He
  He23     1.0000 0.86280  0.43570  0.70836  Biso   1.000  He
  He24     1.0000 0.96344  0.48318  0.56437  Biso   1.000  He
  Ar4      1.0000 0.00274  0.49614  0.75310  Biso   1.000  Ar
  Ne5      1.0000 0.99997  0.03984  0.24999  Biso   1.000  Ne
  He25     1.0000 0.08127  0.05115  0.49378  Biso   1.000  He
  He26     1.0000 0.84372  0.04219  0.23389  Biso   1.000  He
  He27     1.0000 0.99050  0.24031  0.24244  Biso   1.000  He
  He28     1.0000 0.02700  0.87029  0.23921  Biso   1.000  He
  He29     1.0000 0.14311  0.03638  0.22231  Biso   1.000  He
  He30     1.0000 0.95858  0.99565  0.08957  Biso   1.000  He
  Ar5      1.0000 0.99973  0.01714  0.24879  Biso   1.000  Ar
  Ne6      1.0000 0.99998  0.53007  0.24999  Biso   1.000  Ne
  He31     1.0000 0.02947  0.51104  0.41208  Biso   1.000  He
  He32     1.0000 0.14327  0.56428  0.29053  Biso   1.000  He
  He33     1.0000 0.99296  0.71184  0.22780  Biso   1.000  He
  He34     1.0000 0.99565  0.35937  0.26329  Biso   1.000  He
  He35     1.0000 0.79267  0.50400  0.22840  Biso   1.000  He
  He36     1.0000 0.96109  0.51896  0.05638  Biso   1.000  He
  Ar6      1.0000 0.99715  0.50543  0.24689  Biso   1.000  Ar
  Ne7      1.0000 0.49993  0.96993  0.74999  Biso   1.000  Ne
  He37     1.0000 0.52991  0.98886  0.91333  Biso   1.000  He
  He38     1.0000 0.49557  0.13003  0.76320  Biso   1.000  He
  He39     1.0000 0.70589  0.99634  0.77164  Biso   1.000  He
  He40     1.0000 0.49302  0.78946  0.72814  Biso   1.000  He
  He41     1.0000 0.36279  0.93572  0.70836  Biso   1.000  He
  He42     1.0000 0.47369  0.98949  0.59585  Biso   1.000  He
  Ar7      1.0000 0.50170  0.99722  0.75222  Biso   1.000  Ar
  Ne8      1.0000 0.99993  0.96016  0.74999  Biso   1.000  Ne
  He43     1.0000 0.08121  0.94884  0.99364  Biso   1.000  He
  He44     1.0000 0.80662  0.95909  0.73878  Biso   1.000  He
  He45     1.0000 0.97245  0.13535  0.76095  Biso   1.000  He
  He46     1.0000 0.02199  0.80491  0.76732  Biso   1.000  He
  He47     1.0000 0.14248  0.96356  0.72267  Biso   1.000  He
  He48     1.0000 0.95852  0.00435  0.58951  Biso   1.000  He
  Ar8      1.0000 0.99969  0.98285  0.74881  Biso   1.000  Ar
