data_image0
_cell_length_a       21.946
_cell_length_b       27.511
_cell_length_c       17.559
_cell_angle_alpha    90
_cell_angle_beta     90
_cell_angle_gamma    90

_symmetry_space_group_name_H-M    "P 1"
_symmetry_int_tables_number       1

loop_
  _symmetry_equiv_pos_as_xyz
  'x, y, z'

loop_
  _atom_site_label
  _atom_site_occupancy
  _atom_site_fract_x
  _atom_site_fract_y
  _atom_site_fract_z
  _atom_site_thermal_displace_type
  _atom_site_B_iso_or_equiv
  _atom_site_type_symbol
  O1       1.0000 0.53978  0.62030  0.31107  Biso   1.000  O
  C1       1.0000 0.51285  0.61634  0.24073  Biso   1.000  C
  H1       1.0000 0.52520  0.63040  0.35298  Biso   1.000  H
  C2       1.0000 0.54247  0.58875  0.18481  Biso   1.000  C
  C3       1.0000 0.45835  0.63927  0.22473  Biso   1.000  C
  C4       1.0000 0.60125  0.56243  0.20451  Biso   1.000  C
  C5       1.0000 0.51686  0.58729  0.11242  Biso   1.000  C
  C6       1.0000 0.43243  0.63531  0.15240  Biso   1.000  C
  O2       1.0000 0.42741  0.66617  0.27986  Biso   1.000  O
  C7       1.0000 0.60271  0.51005  0.17302  Biso   1.000  C
  H2       1.0000 0.60248  0.55970  0.26118  Biso   1.000  H
  C8       1.0000 0.65730  0.59231  0.18071  Biso   1.000  C
  C9       1.0000 0.46186  0.60990  0.09488  Biso   1.000  C
  H3       1.0000 0.53768  0.57021  0.07318  Biso   1.000  H
  O3       1.0000 0.37788  0.65803  0.13657  Biso   1.000  O
  H4       1.0000 0.45010  0.68722  0.29688  Biso   1.000  H
  H5       1.0000 0.56452  0.49329  0.18743  Biso   1.000  H
  H6       1.0000 0.60439  0.51132  0.11669  Biso   1.000  H
  C10      1.0000 0.65702  0.48039  0.20229  Biso   1.000  C
  C11      1.0000 0.68482  0.62379  0.23293  Biso   1.000  C
  C12      1.0000 0.68304  0.58907  0.10832  Biso   1.000  C
  C13      1.0000 0.43489  0.60899  0.01521  Biso   1.000  C
  H7       1.0000 0.34758  0.66079  0.16630  Biso   1.000  H
  H8       1.0000 0.65661  0.44822  0.17700  Biso   1.000  H
  H9       1.0000 0.69512  0.49711  0.18720  Biso   1.000  H
  C14      1.0000 0.65789  0.47290  0.28561  Biso   1.000  C
  C15      1.0000 0.73763  0.64880  0.21322  Biso   1.000  C
  O4       1.0000 0.66276  0.63269  0.30503  Biso   1.000  O
  C16      1.0000 0.73508  0.61401  0.08742  Biso   1.000  C
  H10      1.0000 0.66390  0.56879  0.07170  Biso   1.000  H
  H11      1.0000 0.39041  0.61572  0.02130  Biso   1.000  H
  C17      1.0000 0.45986  0.64989  0.96594  Biso   1.000  C
  C18      1.0000 0.43944  0.55876  0.97750  Biso   1.000  C
  H12      1.0000 0.66158  0.50380  0.31061  Biso   1.000  H
  H13      1.0000 0.69179  0.45269  0.29922  Biso   1.000  H
  H14      1.0000 0.62061  0.45749  0.30110  Biso   1.000  H
  C19      1.0000 0.76287  0.64363  0.14158  Biso   1.000  C
  O5       1.0000 0.76319  0.67926  0.26664  Biso   1.000  O
  H15      1.0000 0.62631  0.62640  0.30640  Biso   1.000  H
  C20      1.0000 0.76164  0.61190  0.00700  Biso   1.000  C
  C21      1.0000 0.43006  0.69452  0.96184  Biso   1.000  C
  C22      1.0000 0.51367  0.64425  0.92443  Biso   1.000  C
  H16      1.0000 0.42390  0.53390  0.01338  Biso   1.000  H
  H17      1.0000 0.48282  0.55142  0.96742  Biso   1.000  H
  C23      1.0000 0.40390  0.55523  0.90301  Biso   1.000  C
  O6       1.0000 0.81673  0.66784  0.13104  Biso   1.000  O
  H18      1.0000 0.78169  0.70110  0.24500  Biso   1.000  H
  H19      1.0000 0.80598  0.61950  0.01162  Biso   1.000  H
  C24      1.0000 0.73325  0.65203  0.95774  Biso   1.000  C
  C25      1.0000 0.75690  0.56105  0.97084  Biso   1.000  C
  C26      1.0000 0.45270  0.73178  0.91543  Biso   1.000  C
  O7       1.0000 0.37652  0.70495  0.99920  Biso   1.000  O
  C27      1.0000 0.53691  0.68020  0.87670  Biso   1.000  C
  H20      1.0000 0.53541  0.61452  0.92904  Biso   1.000  H
  H21      1.0000 0.36180  0.56719  0.91133  Biso   1.000  H
  H22      1.0000 0.42331  0.57642  0.86440  Biso   1.000  H
  C28      1.0000 0.40139  0.50442  0.87340  Biso   1.000  C
  H23      1.0000 0.81842  0.67802  0.08719  Biso   1.000  H
  C29      1.0000 0.76091  0.69758  0.95404  Biso   1.000  C
  C30      1.0000 0.67926  0.64567  0.91862  Biso   1.000  C
  H24      1.0000 0.77659  0.53709  0.00490  Biso   1.000  H
  H25      1.0000 0.71339  0.55211  0.96600  Biso   1.000  H
  C31      1.0000 0.78702  0.55850  0.89202  Biso   1.000  C
  C32      1.0000 0.50574  0.72433  0.87363  Biso   1.000  C
  O8       1.0000 0.42012  0.77376  0.90939  Biso   1.000  O
  H26      1.0000 0.37688  0.69041  0.03998  Biso   1.000  H
  C33      1.0000 0.59455  0.67279  0.82943  Biso   1.000  C
  H27      1.0000 0.44099  0.49489  0.85580  Biso   1.000  H
  H28      1.0000 0.37292  0.50289  0.83211  Biso   1.000  H
  H29      1.0000 0.38850  0.48290  0.91343  Biso   1.000  H
  C34      1.0000 0.73389  0.73541  0.91429  Biso   1.000  C
  O9       1.0000 0.81564  0.70459  0.99060  Biso   1.000  O
  C35      1.0000 0.65169  0.68235  0.87562  Biso   1.000  C
  H30      1.0000 0.65980  0.61481  0.92112  Biso   1.000  H
  H31      1.0000 0.76470  0.58020  0.85683  Biso   1.000  H
  H32      1.0000 0.82931  0.57072  0.89612  Biso   1.000  H
  C36      1.0000 0.78848  0.50820  0.85842  Biso   1.000  C
  O10      1.0000 0.52880  0.76079  0.82818  Biso   1.000  O
  H33      1.0000 0.44291  0.79710  0.91560  Biso   1.000  H
  H34      1.0000 0.59359  0.69779  0.78820  Biso   1.000  H
  C37      1.0000 0.59569  0.62306  0.78962  Biso   1.000  C
  C38      1.0000 0.67903  0.72818  0.87619  Biso   1.000  C
  O11      1.0000 0.76433  0.77892  0.91412  Biso   1.000  O
  H35      1.0000 0.82252  0.73382  0.99419  Biso   1.000  H
  H36      1.0000 0.80470  0.48581  0.89493  Biso   1.000  H
  H37      1.0000 0.81382  0.50849  0.81383  Biso   1.000  H
  H38      1.0000 0.74788  0.49849  0.84464  Biso   1.000  H
  H39      1.0000 0.50200  0.78092  0.81964  Biso   1.000  H
  H40      1.0000 0.63551  0.61899  0.76371  Biso   1.000  H
  H41      1.0000 0.59232  0.59722  0.82863  Biso   1.000  H
  C39      1.0000 0.54511  0.61655  0.73170  Biso   1.000  C
  O12      1.0000 0.65629  0.76766  0.83832  Biso   1.000  O
  H42      1.0000 0.73950  0.80161  0.92494  Biso   1.000  H
  H43      1.0000 0.54949  0.64131  0.69121  Biso   1.000  H
  H44      1.0000 0.50529  0.62182  0.75693  Biso   1.000  H
  C40      1.0000 0.54602  0.56559  0.69543  Biso   1.000  C
  H45      1.0000 0.61952  0.76420  0.83194  Biso   1.000  H
  H46      1.0000 0.57851  0.56410  0.65881  Biso   1.000  H
  H47      1.0000 0.50788  0.55941  0.67031  Biso   1.000  H
  H48      1.0000 0.55249  0.54149  0.73410  Biso   1.000  H
  O13      1.0000 0.46022  0.37970  0.31107  Biso   1.000  O
  C41      1.0000 0.48715  0.38370  0.24073  Biso   1.000  C
  H49      1.0000 0.47480  0.36960  0.35298  Biso   1.000  H
  C42      1.0000 0.45753  0.41129  0.18481  Biso   1.000  C
  C43      1.0000 0.54165  0.36073  0.22473  Biso   1.000  C
  C44      1.0000 0.39875  0.43757  0.20451  Biso   1.000  C
  C45      1.0000 0.48314  0.41271  0.11242  Biso   1.000  C
  C46      1.0000 0.56757  0.36473  0.15240  Biso   1.000  C
  O14      1.0000 0.57259  0.33383  0.27986  Biso   1.000  O
  C47      1.0000 0.34270  0.40769  0.18071  Biso   1.000  C
  H50      1.0000 0.39752  0.44030  0.26118  Biso   1.000  H
  C48      1.0000 0.39729  0.48995  0.17302  Biso   1.000  C
  C49      1.0000 0.53814  0.39010  0.09488  Biso   1.000  C
  H51      1.0000 0.46232  0.42979  0.07318  Biso   1.000  H
  O15      1.0000 0.62212  0.34197  0.13657  Biso   1.000  O
  H52      1.0000 0.54990  0.31282  0.29688  Biso   1.000  H
  C50      1.0000 0.31518  0.37621  0.23293  Biso   1.000  C
  C51      1.0000 0.31696  0.41096  0.10832  Biso   1.000  C
  H53      1.0000 0.43548  0.50671  0.18743  Biso   1.000  H
  H54      1.0000 0.39561  0.48871  0.11669  Biso   1.000  H
  C52      1.0000 0.34298  0.51961  0.20229  Biso   1.000  C
  C53      1.0000 0.56511  0.39101  0.01521  Biso   1.000  C
  H55      1.0000 0.65242  0.33921  0.16630  Biso   1.000  H
  C54      1.0000 0.26237  0.35124  0.21322  Biso   1.000  C
  O16      1.0000 0.33724  0.36734  0.30503  Biso   1.000  O
  C55      1.0000 0.26492  0.38599  0.08742  Biso   1.000  C
  H56      1.0000 0.33610  0.43121  0.07170  Biso   1.000  H
  H57      1.0000 0.34339  0.55182  0.17700  Biso   1.000  H
  H58      1.0000 0.30488  0.50289  0.18720  Biso   1.000  H
  C56      1.0000 0.34211  0.52710  0.28561  Biso   1.000  C
  H59      1.0000 0.60959  0.38432  0.02130  Biso   1.000  H
  C57      1.0000 0.54014  0.35015  0.96594  Biso   1.000  C
  C58      1.0000 0.56056  0.44124  0.97750  Biso   1.000  C
  O17      1.0000 0.23681  0.32078  0.26664  Biso   1.000  O
  C59      1.0000 0.23713  0.35637  0.14158  Biso   1.000  C
  H60      1.0000 0.37369  0.37360  0.30640  Biso   1.000  H
  C60      1.0000 0.23836  0.38810  0.00700  Biso   1.000  C
  H61      1.0000 0.33842  0.49620  0.31061  Biso   1.000  H
  H62      1.0000 0.30821  0.54731  0.29922  Biso   1.000  H
  H63      1.0000 0.37939  0.54251  0.30110  Biso   1.000  H
  C61      1.0000 0.56994  0.30548  0.96184  Biso   1.000  C
  C62      1.0000 0.48633  0.35575  0.92443  Biso   1.000  C
  H64      1.0000 0.57610  0.46610  0.01338  Biso   1.000  H
  H65      1.0000 0.51718  0.44862  0.96742  Biso   1.000  H
  C63      1.0000 0.59610  0.44477  0.90301  Biso   1.000  C
  H66      1.0000 0.21831  0.29890  0.24500  Biso   1.000  H
  O18      1.0000 0.18327  0.33216  0.13104  Biso   1.000  O
  H67      1.0000 0.19402  0.38050  0.01162  Biso   1.000  H
  C64      1.0000 0.26675  0.34797  0.95774  Biso   1.000  C
  C65      1.0000 0.24310  0.43895  0.97084  Biso   1.000  C
  C66      1.0000 0.54730  0.26822  0.91543  Biso   1.000  C
  O19      1.0000 0.62348  0.29505  0.99920  Biso   1.000  O
  C67      1.0000 0.46309  0.31980  0.87670  Biso   1.000  C
  H68      1.0000 0.46459  0.38552  0.92904  Biso   1.000  H
  H69      1.0000 0.63820  0.43281  0.91133  Biso   1.000  H
  H70      1.0000 0.57669  0.42361  0.86440  Biso   1.000  H
  C68      1.0000 0.59861  0.49562  0.87340  Biso   1.000  C
  H71      1.0000 0.18158  0.32202  0.08719  Biso   1.000  H
  C69      1.0000 0.23909  0.30246  0.95404  Biso   1.000  C
  C70      1.0000 0.32074  0.35433  0.91862  Biso   1.000  C
  H72      1.0000 0.22341  0.46291  0.00490  Biso   1.000  H
  H73      1.0000 0.28661  0.44789  0.96600  Biso   1.000  H
  C71      1.0000 0.21298  0.44153  0.89202  Biso   1.000  C
  C72      1.0000 0.49426  0.27571  0.87363  Biso   1.000  C
  O20      1.0000 0.57988  0.22624  0.90939  Biso   1.000  O
  H74      1.0000 0.62312  0.30959  0.03998  Biso   1.000  H
  C73      1.0000 0.40545  0.32721  0.82943  Biso   1.000  C
  H75      1.0000 0.55901  0.50511  0.85580  Biso   1.000  H
  H76      1.0000 0.62708  0.49711  0.83211  Biso   1.000  H
  H77      1.0000 0.61150  0.51710  0.91343  Biso   1.000  H
  C74      1.0000 0.26611  0.26459  0.91429  Biso   1.000  C
  O21      1.0000 0.18436  0.29541  0.99060  Biso   1.000  O
  C75      1.0000 0.34831  0.31769  0.87562  Biso   1.000  C
  H78      1.0000 0.34020  0.38519  0.92112  Biso   1.000  H
  H79      1.0000 0.23530  0.41980  0.85683  Biso   1.000  H
  H80      1.0000 0.17069  0.42932  0.89612  Biso   1.000  H
  C76      1.0000 0.21152  0.49180  0.85842  Biso   1.000  C
  O22      1.0000 0.47120  0.23921  0.82818  Biso   1.000  O
  H81      1.0000 0.55709  0.20290  0.91560  Biso   1.000  H
  H82      1.0000 0.40641  0.30221  0.78820  Biso   1.000  H
  C77      1.0000 0.40431  0.37694  0.78962  Biso   1.000  C
  C78      1.0000 0.32097  0.27182  0.87619  Biso   1.000  C
  O23      1.0000 0.23567  0.22111  0.91412  Biso   1.000  O
  H83      1.0000 0.17748  0.26622  0.99419  Biso   1.000  H
  H84      1.0000 0.19530  0.51419  0.89493  Biso   1.000  H
  H85      1.0000 0.18618  0.49151  0.81383  Biso   1.000  H
  H86      1.0000 0.25212  0.50151  0.84464  Biso   1.000  H
  H87      1.0000 0.49800  0.21911  0.81964  Biso   1.000  H
  H88      1.0000 0.36449  0.38101  0.76371  Biso   1.000  H
  H89      1.0000 0.40768  0.40282  0.82863  Biso   1.000  H
  C79      1.0000 0.45489  0.38345  0.73170  Biso   1.000  C
  O24      1.0000 0.34371  0.23234  0.83832  Biso   1.000  O
  H90      1.0000 0.26050  0.19839  0.92494  Biso   1.000  H
  H91      1.0000 0.45051  0.35869  0.69121  Biso   1.000  H
  H92      1.0000 0.49471  0.37821  0.75693  Biso   1.000  H
  C80      1.0000 0.45398  0.43441  0.69543  Biso   1.000  C
  H93      1.0000 0.38048  0.23580  0.83194  Biso   1.000  H
  H94      1.0000 0.42149  0.43590  0.65881  Biso   1.000  H
  H95      1.0000 0.49212  0.44059  0.67031  Biso   1.000  H
  H96      1.0000 0.44751  0.45851  0.73410  Biso   1.000  H
  C81      1.0000 0.71111  0.47650  0.66171  Biso   1.000  C
  C82      1.0000 0.71311  0.42692  0.62600  Biso   1.000  C
  H97      1.0000 0.74528  0.49562  0.64531  Biso   1.000  H
  H98      1.0000 0.71220  0.47301  0.71610  Biso   1.000  H
  H99      1.0000 0.67402  0.49249  0.64719  Biso   1.000  H
  C83      1.0000 0.74041  0.42885  0.54599  Biso   1.000  C
  H100     1.0000 0.67128  0.41351  0.62333  Biso   1.000  H
  H101     1.0000 0.73790  0.40500  0.65824  Biso   1.000  H
  C84      1.0000 0.73854  0.37941  0.50430  Biso   1.000  C
  H102     1.0000 0.78329  0.43979  0.54963  Biso   1.000  H
  H103     1.0000 0.71781  0.45309  0.51552  Biso   1.000  H
  C85      1.0000 0.76173  0.38261  0.42252  Biso   1.000  C
  C86      1.0000 0.77103  0.33870  0.54770  Biso   1.000  C
  H104     1.0000 0.69461  0.36982  0.50111  Biso   1.000  H
  C87      1.0000 0.73189  0.35837  0.36449  Biso   1.000  C
  C88      1.0000 0.81363  0.40947  0.40259  Biso   1.000  C
  C89      1.0000 0.74788  0.29116  0.54901  Biso   1.000  C
  C90      1.0000 0.82389  0.34772  0.58881  Biso   1.000  C
  O25      1.0000 0.67949  0.33270  0.38242  Biso   1.000  O
  C91      1.0000 0.75362  0.35840  0.29068  Biso   1.000  C
  C92      1.0000 0.83537  0.41256  0.32821  Biso   1.000  C
  H105     1.0000 0.83491  0.42630  0.44160  Biso   1.000  H
  C93      1.0000 0.77659  0.25492  0.59104  Biso   1.000  C
  O26      1.0000 0.69589  0.27822  0.51096  Biso   1.000  O
  C94      1.0000 0.85378  0.31264  0.63158  Biso   1.000  C
  H106     1.0000 0.84038  0.37959  0.58773  Biso   1.000  H
  H107     1.0000 0.66399  0.32220  0.34319  Biso   1.000  H
  C95      1.0000 0.80539  0.38501  0.27331  Biso   1.000  C
  O27      1.0000 0.72232  0.33321  0.23481  Biso   1.000  O
  C96      1.0000 0.89091  0.44211  0.30810  Biso   1.000  C
  C97      1.0000 0.82945  0.26538  0.63153  Biso   1.000  C
  O28      1.0000 0.75358  0.20799  0.58973  Biso   1.000  O
  H108     1.0000 0.69320  0.29392  0.47138  Biso   1.000  H
  C98      1.0000 0.91074  0.32347  0.67749  Biso   1.000  C
  O29      1.0000 0.82771  0.38581  0.20013  Biso   1.000  O
  H109     1.0000 0.74661  0.32282  0.20331  Biso   1.000  H
  H110     1.0000 0.88991  0.44629  0.25149  Biso   1.000  H
  C99      1.0000 0.94960  0.41478  0.32559  Biso   1.000  C
  C100     1.0000 0.88918  0.49395  0.34199  Biso   1.000  C
  O30      1.0000 0.85993  0.22991  0.67105  Biso   1.000  O
  H111     1.0000 0.72168  0.20999  0.56239  Biso   1.000  H
  C101     1.0000 0.96706  0.31835  0.62851  Biso   1.000  C
  H112     1.0000 0.91351  0.29799  0.71792  Biso   1.000  H
  C102     1.0000 0.90650  0.37312  0.71883  Biso   1.000  C
  H113     1.0000 0.81632  0.36142  0.17740  Biso   1.000  H
  C103     1.0000 0.97521  0.38443  0.27023  Biso   1.000  C
  C104     1.0000 0.97849  0.41747  0.39569  Biso   1.000  C
  H114     1.0000 0.88718  0.49140  0.39820  Biso   1.000  H
  H115     1.0000 0.92760  0.51081  0.32878  Biso   1.000  H
  C105     1.0000 0.83669  0.52441  0.31511  Biso   1.000  C
  H116     1.0000 0.83860  0.20552  0.67361  Biso   1.000  H
  C106     1.0000 0.98838  0.35608  0.58289  Biso   1.000  C
  C107     1.0000 0.00005  0.27534  0.62800  Biso   1.000  C
  H117     1.0000 0.90718  0.39940  0.68033  Biso   1.000  H
  H118     1.0000 0.86690  0.37501  0.74583  Biso   1.000  H
  C108     1.0000 0.95730  0.38192  0.77573  Biso   1.000  C
  O31      1.0000 0.94942  0.37672  0.19938  Biso   1.000  O
  C109     1.0000 0.02830  0.35986  0.28458  Biso   1.000  C
  H119     1.0000 0.96059  0.43692  0.43453  Biso   1.000  H
  C110     1.0000 0.03249  0.39308  0.41210  Biso   1.000  C
  H120     1.0000 0.83660  0.55552  0.34358  Biso   1.000  H
  H121     1.0000 0.79819  0.50729  0.32678  Biso   1.000  H
  C111     1.0000 0.83901  0.53542  0.22991  Biso   1.000  C
  H122     1.0000 0.96542  0.38530  0.58113  Biso   1.000  H
  C112     1.0000 0.04169  0.35335  0.53989  Biso   1.000  C
  O32      1.0000 0.98464  0.23445  0.66997  Biso   1.000  O
  C113     1.0000 0.05299  0.27084  0.58489  Biso   1.000  C
  H123     1.0000 0.95621  0.35611  0.81502  Biso   1.000  H
  H124     1.0000 0.99699  0.37959  0.74902  Biso   1.000  H
  C114     1.0000 0.95270  0.43052  0.81371  Biso   1.000  C
  H125     1.0000 0.91242  0.38050  0.20212  Biso   1.000  H
  C115     1.0000 0.05819  0.36440  0.35469  Biso   1.000  C
  O33      1.0000 0.05081  0.32896  0.23031  Biso   1.000  O
  C116     1.0000 0.06361  0.39533  0.48983  Biso   1.000  C
  H126     1.0000 0.87738  0.54989  0.21681  Biso   1.000  H
  H127     1.0000 0.80662  0.55741  0.21738  Biso   1.000  H
  H128     1.0000 0.83391  0.50569  0.20200  Biso   1.000  H
  C117     1.0000 0.07455  0.30962  0.54229  Biso   1.000  C
  H129     1.0000 0.94760  0.23369  0.67623  Biso   1.000  H
  O34      1.0000 0.08571  0.22827  0.58272  Biso   1.000  O
  H130     1.0000 0.96929  0.45480  0.78051  Biso   1.000  H
  H131     1.0000 0.97530  0.43001  0.86053  Biso   1.000  H
  H132     1.0000 0.91078  0.43779  0.82419  Biso   1.000  H
  O35      1.0000 0.11168  0.33972  0.35982  Biso   1.000  O
  H133     1.0000 0.08238  0.31649  0.24580  Biso   1.000  H
  H134     1.0000 0.10808  0.38992  0.48061  Biso   1.000  H
  C118     1.0000 0.05782  0.44480  0.52993  Biso   1.000  C
  O36      1.0000 0.12718  0.30620  0.50191  Biso   1.000  O
  H135     1.0000 0.06388  0.20621  0.56700  Biso   1.000  H
  H136     1.0000 0.11752  0.33150  0.40418  Biso   1.000  H
  H137     1.0000 0.06981  0.47090  0.49411  Biso   1.000  H
  H138     1.0000 0.01472  0.45022  0.54422  Biso   1.000  H
  C119     1.0000 0.09719  0.44804  0.60100  Biso   1.000  C
  H139     1.0000 0.14549  0.28149  0.51444  Biso   1.000  H
  H140     1.0000 0.13939  0.43830  0.58819  Biso   1.000  H
  H141     1.0000 0.08161  0.42521  0.63979  Biso   1.000  H
  C120     1.0000 0.09779  0.49951  0.63392  Biso   1.000  C
  H142     1.0000 0.10982  0.52201  0.59491  Biso   1.000  H
  H143     1.0000 0.12608  0.50122  0.67549  Biso   1.000  H
  H144     1.0000 0.05769  0.50780  0.65180  Biso   1.000  H
  C121     1.0000 0.28889  0.52350  0.66171  Biso   1.000  C
  C122     1.0000 0.28689  0.57312  0.62600  Biso   1.000  C
  H145     1.0000 0.25472  0.50442  0.64531  Biso   1.000  H
  H146     1.0000 0.28780  0.52699  0.71610  Biso   1.000  H
  H147     1.0000 0.32598  0.50751  0.64719  Biso   1.000  H
  C123     1.0000 0.25959  0.57115  0.54599  Biso   1.000  C
  H148     1.0000 0.32872  0.58649  0.62333  Biso   1.000  H
  H149     1.0000 0.26210  0.59500  0.65824  Biso   1.000  H
  C124     1.0000 0.26146  0.62062  0.50430  Biso   1.000  C
  H150     1.0000 0.21671  0.56021  0.54963  Biso   1.000  H
  H151     1.0000 0.28219  0.54691  0.51552  Biso   1.000  H
  C125     1.0000 0.23827  0.61743  0.42252  Biso   1.000  C
  C126     1.0000 0.22897  0.66130  0.54770  Biso   1.000  C
  H152     1.0000 0.30539  0.63022  0.50111  Biso   1.000  H
  C127     1.0000 0.18637  0.59053  0.40259  Biso   1.000  C
  C128     1.0000 0.26811  0.64163  0.36449  Biso   1.000  C
  C129     1.0000 0.25212  0.70884  0.54901  Biso   1.000  C
  C130     1.0000 0.17611  0.65228  0.58881  Biso   1.000  C
  C131     1.0000 0.16463  0.58747  0.32821  Biso   1.000  C
  H153     1.0000 0.16509  0.57370  0.44160  Biso   1.000  H
  C132     1.0000 0.24638  0.64160  0.29068  Biso   1.000  C
  O37      1.0000 0.32051  0.66733  0.38242  Biso   1.000  O
  C133     1.0000 0.22341  0.74508  0.59104  Biso   1.000  C
  O38      1.0000 0.30411  0.72178  0.51096  Biso   1.000  O
  C134     1.0000 0.14622  0.68736  0.63158  Biso   1.000  C
  H154     1.0000 0.15962  0.62041  0.58773  Biso   1.000  H
  C135     1.0000 0.10909  0.55789  0.30810  Biso   1.000  C
  C136     1.0000 0.19461  0.61499  0.27331  Biso   1.000  C
  O39      1.0000 0.27768  0.66679  0.23481  Biso   1.000  O
  H155     1.0000 0.33601  0.67780  0.34319  Biso   1.000  H
  C137     1.0000 0.17055  0.73462  0.63153  Biso   1.000  C
  O40      1.0000 0.24642  0.79205  0.58973  Biso   1.000  O
  H156     1.0000 0.30680  0.70612  0.47138  Biso   1.000  H
  C138     1.0000 0.08926  0.67653  0.67749  Biso   1.000  C
  C139     1.0000 0.11082  0.50605  0.34199  Biso   1.000  C
  H157     1.0000 0.11009  0.55371  0.25149  Biso   1.000  H
  C140     1.0000 0.05040  0.58522  0.32559  Biso   1.000  C
  O41      1.0000 0.17229  0.61419  0.20013  Biso   1.000  O
  H158     1.0000 0.25339  0.67722  0.20331  Biso   1.000  H
  O42      1.0000 0.14007  0.77009  0.67105  Biso   1.000  O
  H159     1.0000 0.27832  0.79001  0.56239  Biso   1.000  H
  C141     1.0000 0.03294  0.68165  0.62851  Biso   1.000  C
  H160     1.0000 0.08649  0.70201  0.71792  Biso   1.000  H
  C142     1.0000 0.09350  0.62688  0.71883  Biso   1.000  C
  C143     1.0000 0.16331  0.47559  0.31511  Biso   1.000  C
  H161     1.0000 0.11282  0.50860  0.39820  Biso   1.000  H
  H162     1.0000 0.07240  0.48922  0.32878  Biso   1.000  H
  C144     1.0000 0.02479  0.61561  0.27023  Biso   1.000  C
  C145     1.0000 0.02151  0.58253  0.39569  Biso   1.000  C
  H163     1.0000 0.18368  0.63862  0.17740  Biso   1.000  H
  H164     1.0000 0.16140  0.79452  0.67361  Biso   1.000  H
  C146     1.0000 0.01162  0.64392  0.58289  Biso   1.000  C
  C147     1.0000 0.99995  0.72466  0.62800  Biso   1.000  C
  H165     1.0000 0.09282  0.60060  0.68033  Biso   1.000  H
  H166     1.0000 0.13310  0.62502  0.74583  Biso   1.000  H
  C148     1.0000 0.04270  0.61812  0.77573  Biso   1.000  C
  C149     1.0000 0.16099  0.46461  0.22991  Biso   1.000  C
  H167     1.0000 0.16340  0.44451  0.34358  Biso   1.000  H
  H168     1.0000 0.20181  0.49271  0.32678  Biso   1.000  H
  O43      1.0000 0.05058  0.62328  0.19938  Biso   1.000  O
  C150     1.0000 0.97170  0.64014  0.28458  Biso   1.000  C
  H169     1.0000 0.03941  0.56312  0.43453  Biso   1.000  H
  C151     1.0000 0.96751  0.60696  0.41210  Biso   1.000  C
  C152     1.0000 0.95831  0.64665  0.53989  Biso   1.000  C
  H170     1.0000 0.03458  0.61470  0.58113  Biso   1.000  H
  C153     1.0000 0.94701  0.72916  0.58489  Biso   1.000  C
  O44      1.0000 0.01536  0.76555  0.66997  Biso   1.000  O
  H171     1.0000 0.04379  0.64392  0.81502  Biso   1.000  H
  H172     1.0000 0.00301  0.62041  0.74902  Biso   1.000  H
  C154     1.0000 0.04730  0.56952  0.81371  Biso   1.000  C
  H173     1.0000 0.12262  0.45011  0.21681  Biso   1.000  H
  H174     1.0000 0.19338  0.44262  0.21738  Biso   1.000  H
  H175     1.0000 0.16609  0.49431  0.20200  Biso   1.000  H
  H176     1.0000 0.08758  0.61950  0.20212  Biso   1.000  H
  C155     1.0000 0.94181  0.63560  0.35469  Biso   1.000  C
  O45      1.0000 0.94919  0.67104  0.23031  Biso   1.000  O
  C156     1.0000 0.93639  0.60470  0.48983  Biso   1.000  C
  C157     1.0000 0.92545  0.69041  0.54229  Biso   1.000  C
  O46      1.0000 0.91429  0.77173  0.58272  Biso   1.000  O
  H177     1.0000 0.05240  0.76631  0.67623  Biso   1.000  H
  H178     1.0000 0.03071  0.54520  0.78051  Biso   1.000  H
  H179     1.0000 0.02470  0.56999  0.86053  Biso   1.000  H
  H180     1.0000 0.08922  0.56221  0.82419  Biso   1.000  H
  O47      1.0000 0.88832  0.66028  0.35982  Biso   1.000  O
  H181     1.0000 0.91762  0.68351  0.24580  Biso   1.000  H
  H182     1.0000 0.89192  0.61012  0.48061  Biso   1.000  H
  C158     1.0000 0.94218  0.55520  0.52993  Biso   1.000  C
  O48      1.0000 0.87282  0.69380  0.50191  Biso   1.000  O
  H183     1.0000 0.93612  0.79379  0.56700  Biso   1.000  H
  H184     1.0000 0.88248  0.66850  0.40418  Biso   1.000  H
  H185     1.0000 0.93019  0.52910  0.49411  Biso   1.000  H
  H186     1.0000 0.98528  0.54982  0.54422  Biso   1.000  H
  C159     1.0000 0.90281  0.55196  0.60100  Biso   1.000  C
  H187     1.0000 0.85451  0.71851  0.51444  Biso   1.000  H
  H188     1.0000 0.86061  0.56170  0.58819  Biso   1.000  H
  H189     1.0000 0.91839  0.57479  0.63979  Biso   1.000  H
  C160     1.0000 0.90221  0.50049  0.63392  Biso   1.000  C
  H190     1.0000 0.89018  0.47799  0.59491  Biso   1.000  H
  H191     1.0000 0.87392  0.49882  0.67549  Biso   1.000  H
  H192     1.0000 0.94231  0.49220  0.65180  Biso   1.000  H
  O49      1.0000 0.58571  0.27175  0.41728  Biso   1.000  O
  C161     1.0000 0.55299  0.22914  0.41511  Biso   1.000  C
  H193     1.0000 0.56388  0.29381  0.43300  Biso   1.000  H
  C162     1.0000 0.50005  0.22464  0.37200  Biso   1.000  C
  C163     1.0000 0.57455  0.19040  0.45771  Biso   1.000  C
  C164     1.0000 0.46706  0.18167  0.37149  Biso   1.000  C
  O50      1.0000 0.48464  0.26557  0.33003  Biso   1.000  O
  C165     1.0000 0.54169  0.14667  0.46011  Biso   1.000  C
  O51      1.0000 0.62718  0.19378  0.49809  Biso   1.000  O
  C166     1.0000 0.41074  0.17651  0.32251  Biso   1.000  C
  C167     1.0000 0.48838  0.14391  0.41711  Biso   1.000  C
  H194     1.0000 0.44760  0.26629  0.32382  Biso   1.000  H
  C168     1.0000 0.56361  0.10469  0.51022  Biso   1.000  C
  H195     1.0000 0.64549  0.21849  0.48562  Biso   1.000  H
  C169     1.0000 0.35378  0.18734  0.36842  Biso   1.000  C
  H196     1.0000 0.41351  0.20199  0.28208  Biso   1.000  H
  C170     1.0000 0.40650  0.12686  0.28122  Biso   1.000  C
  H197     1.0000 0.46542  0.11472  0.41893  Biso   1.000  H
  C171     1.0000 0.53249  0.10694  0.58790  Biso   1.000  C
  H198     1.0000 0.60808  0.11010  0.51939  Biso   1.000  H
  C172     1.0000 0.55782  0.05521  0.47013  Biso   1.000  C
  C173     1.0000 0.32945  0.23460  0.36853  Biso   1.000  C
  C174     1.0000 0.32389  0.15227  0.41119  Biso   1.000  C
  H199     1.0000 0.40718  0.10061  0.31972  Biso   1.000  H
  H200     1.0000 0.36690  0.12500  0.25423  Biso   1.000  H
  C175     1.0000 0.45730  0.11810  0.22433  Biso   1.000  C
  C176     1.0000 0.55819  0.13562  0.64531  Biso   1.000  C
  C177     1.0000 0.47849  0.08255  0.60431  Biso   1.000  C
  H201     1.0000 0.56981  0.02912  0.50589  Biso   1.000  H
  H202     1.0000 0.51472  0.04980  0.45583  Biso   1.000  H
  C178     1.0000 0.59719  0.05194  0.39900  Biso   1.000  C
  C179     1.0000 0.27659  0.24507  0.40902  Biso   1.000  C
  O52      1.0000 0.35993  0.27011  0.32901  Biso   1.000  O
  C180     1.0000 0.27103  0.16132  0.45230  Biso   1.000  C
  H203     1.0000 0.34038  0.12039  0.41232  Biso   1.000  H
  H204     1.0000 0.45621  0.14391  0.18498  Biso   1.000  H
  H205     1.0000 0.49699  0.12039  0.25098  Biso   1.000  H
  C181     1.0000 0.45270  0.06950  0.18629  Biso   1.000  C
  C182     1.0000 0.52830  0.14013  0.71542  Biso   1.000  C
  O53      1.0000 0.61168  0.16030  0.64018  Biso   1.000  O
  C183     1.0000 0.44960  0.08524  0.67441  Biso   1.000  C
  H206     1.0000 0.46059  0.06310  0.56552  Biso   1.000  H
  H207     1.0000 0.63939  0.06168  0.41181  Biso   1.000  H
  H208     1.0000 0.58161  0.07481  0.36021  Biso   1.000  H
  C184     1.0000 0.59779  0.00051  0.36608  Biso   1.000  C
  C185     1.0000 0.24788  0.20883  0.45099  Biso   1.000  C
  O54      1.0000 0.25358  0.29203  0.41027  Biso   1.000  O
  H209     1.0000 0.33860  0.29450  0.32639  Biso   1.000  H
  C186     1.0000 0.23854  0.12061  0.49570  Biso   1.000  C
  H210     1.0000 0.46929  0.04522  0.21949  Biso   1.000  H
  H211     1.0000 0.47530  0.07001  0.13953  Biso   1.000  H
  H212     1.0000 0.41078  0.06219  0.17581  Biso   1.000  H
  C187     1.0000 0.47521  0.11559  0.72983  Biso   1.000  C
  O55      1.0000 0.55081  0.17106  0.76969  Biso   1.000  O
  H213     1.0000 0.61752  0.16851  0.59582  Biso   1.000  H
  C188     1.0000 0.39091  0.05787  0.69190  Biso   1.000  C
  H214     1.0000 0.60982  0.97801  0.40509  Biso   1.000  H
  H215     1.0000 0.62608  0.99880  0.32451  Biso   1.000  H
  H216     1.0000 0.55769  0.99222  0.34820  Biso   1.000  H
  O56      1.0000 0.19589  0.22180  0.48904  Biso   1.000  O
  H217     1.0000 0.22168  0.28999  0.43761  Biso   1.000  H
  H218     1.0000 0.19461  0.13020  0.49889  Biso   1.000  H
  C189     1.0000 0.26173  0.11741  0.57748  Biso   1.000  C
  C190     1.0000 0.24041  0.07117  0.45401  Biso   1.000  C
  O57      1.0000 0.44942  0.12330  0.80067  Biso   1.000  O
  H219     1.0000 0.58238  0.18349  0.75420  Biso   1.000  H
  C191     1.0000 0.33537  0.08746  0.67179  Biso   1.000  C
  H220     1.0000 0.38991  0.05369  0.74851  Biso   1.000  H
  C192     1.0000 0.38918  0.00607  0.65801  Biso   1.000  C
  H221     1.0000 0.19320  0.20610  0.52862  Biso   1.000  H
  C193     1.0000 0.23189  0.14165  0.63551  Biso   1.000  C
  C194     1.0000 0.31363  0.09051  0.59741  Biso   1.000  C
  H222     1.0000 0.28329  0.06019  0.45042  Biso   1.000  H
  H223     1.0000 0.21781  0.04689  0.48448  Biso   1.000  H
  C195     1.0000 0.21311  0.07310  0.37400  Biso   1.000  C
  H224     1.0000 0.41242  0.11952  0.79794  Biso   1.000  H
  C196     1.0000 0.30539  0.11497  0.72669  Biso   1.000  C
  H225     1.0000 0.38718  0.00861  0.60180  Biso   1.000  H
  H226     1.0000 0.42760  0.98920  0.67122  Biso   1.000  H
  C197     1.0000 0.33669  0.97557  0.68489  Biso   1.000  C
  C198     1.0000 0.25362  0.14162  0.70932  Biso   1.000  C
  O58      1.0000 0.17949  0.16731  0.61763  Biso   1.000  O
  H227     1.0000 0.33491  0.07372  0.55840  Biso   1.000  H
  H228     1.0000 0.17128  0.08651  0.37673  Biso   1.000  H
  H229     1.0000 0.23790  0.09502  0.34182  Biso   1.000  H
  C199     1.0000 0.21111  0.02352  0.33829  Biso   1.000  C
  O59      1.0000 0.32771  0.11421  0.79987  Biso   1.000  O
  H230     1.0000 0.33660  0.94449  0.65642  Biso   1.000  H
  H231     1.0000 0.29819  0.99269  0.67322  Biso   1.000  H
  C200     1.0000 0.33901  0.96460  0.77009  Biso   1.000  C
  O60      1.0000 0.22232  0.16677  0.76519  Biso   1.000  O
  H232     1.0000 0.16399  0.17782  0.65681  Biso   1.000  H
  H233     1.0000 0.24528  0.00440  0.35469  Biso   1.000  H
  H234     1.0000 0.21220  0.02701  0.28390  Biso   1.000  H
  H235     1.0000 0.17402  0.00749  0.35281  Biso   1.000  H
  H236     1.0000 0.31632  0.13860  0.82260  Biso   1.000  H
  H237     1.0000 0.37738  0.95009  0.78319  Biso   1.000  H
  H238     1.0000 0.30662  0.94260  0.78262  Biso   1.000  H
  H239     1.0000 0.33391  0.99429  0.79800  Biso   1.000  H
  H240     1.0000 0.24661  0.17720  0.79669  Biso   1.000  H
  O61      1.0000 0.41429  0.72829  0.41728  Biso   1.000  O
  C201     1.0000 0.44701  0.77086  0.41511  Biso   1.000  C
  H241     1.0000 0.43612  0.70619  0.43300  Biso   1.000  H
  C202     1.0000 0.42545  0.80960  0.45771  Biso   1.000  C
  C203     1.0000 0.49995  0.77536  0.37200  Biso   1.000  C
  C204     1.0000 0.45831  0.85337  0.46011  Biso   1.000  C
  O62      1.0000 0.37282  0.80622  0.49809  Biso   1.000  O
  C205     1.0000 0.53294  0.81836  0.37149  Biso   1.000  C
  O63      1.0000 0.51536  0.73447  0.33003  Biso   1.000  O
  C206     1.0000 0.43639  0.89531  0.51022  Biso   1.000  C
  C207     1.0000 0.51162  0.85609  0.41711  Biso   1.000  C
  H242     1.0000 0.35451  0.78151  0.48562  Biso   1.000  H
  C208     1.0000 0.58926  0.82349  0.32251  Biso   1.000  C
  H243     1.0000 0.55240  0.73371  0.32382  Biso   1.000  H
  C209     1.0000 0.46751  0.89306  0.58790  Biso   1.000  C
  H244     1.0000 0.39192  0.88990  0.51939  Biso   1.000  H
  C210     1.0000 0.44218  0.94482  0.47013  Biso   1.000  C
  H245     1.0000 0.53458  0.88532  0.41893  Biso   1.000  H
  C211     1.0000 0.64622  0.81266  0.36842  Biso   1.000  C
  H246     1.0000 0.58649  0.79801  0.28208  Biso   1.000  H
  C212     1.0000 0.59350  0.87314  0.28122  Biso   1.000  C
  C213     1.0000 0.44181  0.86438  0.64531  Biso   1.000  C
  C214     1.0000 0.52151  0.91749  0.60431  Biso   1.000  C
  H247     1.0000 0.43019  0.97092  0.50589  Biso   1.000  H
  H248     1.0000 0.48528  0.95020  0.45583  Biso   1.000  H
  C215     1.0000 0.40281  0.94806  0.39900  Biso   1.000  C
  C216     1.0000 0.67055  0.76540  0.36853  Biso   1.000  C
  C217     1.0000 0.67611  0.84773  0.41119  Biso   1.000  C
  H249     1.0000 0.59282  0.89942  0.31972  Biso   1.000  H
  H250     1.0000 0.63310  0.87500  0.25423  Biso   1.000  H
  C218     1.0000 0.54270  0.88190  0.22433  Biso   1.000  C
  C219     1.0000 0.47170  0.85987  0.71542  Biso   1.000  C
  O64      1.0000 0.38832  0.83974  0.64018  Biso   1.000  O
  C220     1.0000 0.55040  0.91480  0.67441  Biso   1.000  C
  H251     1.0000 0.53941  0.93690  0.56552  Biso   1.000  H
  H252     1.0000 0.36061  0.93832  0.41181  Biso   1.000  H
  H253     1.0000 0.41839  0.92519  0.36021  Biso   1.000  H
  C221     1.0000 0.40221  0.99953  0.36608  Biso   1.000  C
  C222     1.0000 0.72341  0.75493  0.40902  Biso   1.000  C
  O65      1.0000 0.64007  0.72993  0.32901  Biso   1.000  O
  C223     1.0000 0.72897  0.83872  0.45230  Biso   1.000  C
  H254     1.0000 0.65962  0.87961  0.41232  Biso   1.000  H
  H255     1.0000 0.54379  0.85609  0.18498  Biso   1.000  H
  H256     1.0000 0.50301  0.87961  0.25098  Biso   1.000  H
  C224     1.0000 0.54730  0.93050  0.18629  Biso   1.000  C
  C225     1.0000 0.52479  0.88441  0.72983  Biso   1.000  C
  O66      1.0000 0.44919  0.82898  0.76969  Biso   1.000  O
  H257     1.0000 0.38248  0.83152  0.59582  Biso   1.000  H
  C226     1.0000 0.60909  0.94213  0.69190  Biso   1.000  C
  H258     1.0000 0.39018  0.02199  0.40509  Biso   1.000  H
  H259     1.0000 0.37392  0.00120  0.32451  Biso   1.000  H
  H260     1.0000 0.44231  0.00782  0.34820  Biso   1.000  H
  C227     1.0000 0.75212  0.79117  0.45099  Biso   1.000  C
  O67      1.0000 0.74642  0.70797  0.41027  Biso   1.000  O
  H261     1.0000 0.66140  0.70550  0.32639  Biso   1.000  H
  C228     1.0000 0.76146  0.87939  0.49570  Biso   1.000  C
  H262     1.0000 0.53071  0.95482  0.21949  Biso   1.000  H
  H263     1.0000 0.52470  0.93003  0.13953  Biso   1.000  H
  H264     1.0000 0.58922  0.93781  0.17581  Biso   1.000  H
  O68      1.0000 0.55058  0.87674  0.80067  Biso   1.000  O
  H265     1.0000 0.41762  0.81651  0.75420  Biso   1.000  H
  C229     1.0000 0.66463  0.91254  0.67179  Biso   1.000  C
  H266     1.0000 0.61009  0.94631  0.74851  Biso   1.000  H
  C230     1.0000 0.61082  0.99397  0.65801  Biso   1.000  C
  O69      1.0000 0.80411  0.77823  0.48904  Biso   1.000  O
  H267     1.0000 0.77832  0.71001  0.43761  Biso   1.000  H
  H268     1.0000 0.80539  0.86980  0.49889  Biso   1.000  H
  C231     1.0000 0.73827  0.88259  0.57748  Biso   1.000  C
  C232     1.0000 0.75959  0.92886  0.45401  Biso   1.000  C
  H269     1.0000 0.58758  0.88052  0.79794  Biso   1.000  H
  C233     1.0000 0.69461  0.88503  0.72669  Biso   1.000  C
  C234     1.0000 0.68637  0.90949  0.59741  Biso   1.000  C
  H270     1.0000 0.61282  0.99142  0.60180  Biso   1.000  H
  H271     1.0000 0.57240  0.01080  0.67122  Biso   1.000  H
  C235     1.0000 0.66331  0.02443  0.68489  Biso   1.000  C
  H272     1.0000 0.80680  0.79390  0.52862  Biso   1.000  H
  C236     1.0000 0.76811  0.85838  0.63551  Biso   1.000  C
  H273     1.0000 0.71671  0.93981  0.45042  Biso   1.000  H
  H274     1.0000 0.78219  0.95311  0.48448  Biso   1.000  H
  C237     1.0000 0.78689  0.92690  0.37400  Biso   1.000  C
  C238     1.0000 0.74638  0.85842  0.70932  Biso   1.000  C
  O70      1.0000 0.67229  0.88583  0.79987  Biso   1.000  O
  H275     1.0000 0.66509  0.92632  0.55840  Biso   1.000  H
  H276     1.0000 0.66340  0.05551  0.65642  Biso   1.000  H
  H277     1.0000 0.70181  0.00731  0.67322  Biso   1.000  H
  C239     1.0000 0.66099  0.03540  0.77009  Biso   1.000  C
  O71      1.0000 0.82051  0.83269  0.61763  Biso   1.000  O
  H278     1.0000 0.82872  0.91353  0.37673  Biso   1.000  H
  H279     1.0000 0.76210  0.90502  0.34182  Biso   1.000  H
  C240     1.0000 0.78889  0.97652  0.33829  Biso   1.000  C
  O72      1.0000 0.77768  0.83323  0.76519  Biso   1.000  O
  H280     1.0000 0.68368  0.86140  0.82260  Biso   1.000  H
  H281     1.0000 0.62262  0.04991  0.78319  Biso   1.000  H
  H282     1.0000 0.69338  0.05740  0.78262  Biso   1.000  H
  H283     1.0000 0.66609  0.00571  0.79800  Biso   1.000  H
  H284     1.0000 0.83601  0.82222  0.65681  Biso   1.000  H
  H285     1.0000 0.75472  0.99560  0.35469  Biso   1.000  H
  H286     1.0000 0.78780  0.97299  0.28390  Biso   1.000  H
  H287     1.0000 0.82598  0.99251  0.35281  Biso   1.000  H
  H288     1.0000 0.75339  0.82280  0.79669  Biso   1.000  H
  O73      1.0000 0.73681  0.17924  0.73336  Biso   1.000  O
  C241     1.0000 0.76237  0.14878  0.78683  Biso   1.000  C
  H289     1.0000 0.71831  0.20112  0.75500  Biso   1.000  H
  C242     1.0000 0.81518  0.12377  0.76713  Biso   1.000  C
  C243     1.0000 0.73713  0.14362  0.85842  Biso   1.000  C
  C244     1.0000 0.84270  0.09233  0.81929  Biso   1.000  C
  O74      1.0000 0.83724  0.13267  0.69497  Biso   1.000  O
  C245     1.0000 0.76492  0.11399  0.91264  Biso   1.000  C
  O75      1.0000 0.68327  0.16782  0.86901  Biso   1.000  O
  C246     1.0000 0.89875  0.06245  0.79549  Biso   1.000  C
  C247     1.0000 0.81696  0.08906  0.89174  Biso   1.000  C
  H290     1.0000 0.87369  0.12639  0.69360  Biso   1.000  H
  C248     1.0000 0.73836  0.11192  0.99300  Biso   1.000  C
  H291     1.0000 0.68158  0.17800  0.91281  Biso   1.000  H
  C249     1.0000 0.95753  0.08873  0.81519  Biso   1.000  C
  H292     1.0000 0.89752  0.05969  0.73882  Biso   1.000  H
  C250     1.0000 0.89729  0.01003  0.82704  Biso   1.000  C
  H293     1.0000 0.83610  0.06881  0.92830  Biso   1.000  H
  H294     1.0000 0.69402  0.11952  0.98844  Biso   1.000  H
  C251     1.0000 0.76675  0.15205  0.04231  Biso   1.000  C
  C252     1.0000 0.74310  0.06107  0.02922  Biso   1.000  C
  C253     1.0000 0.98715  0.11632  0.75933  Biso   1.000  C
  C254     1.0000 0.98314  0.08727  0.88764  Biso   1.000  C
  H295     1.0000 0.89561  0.01130  0.88331  Biso   1.000  H
  H296     1.0000 0.93548  0.99331  0.81263  Biso   1.000  H
  C255     1.0000 0.84298  0.98041  0.79771  Biso   1.000  C
  C256     1.0000 0.73909  0.19756  0.04602  Biso   1.000  C
  C257     1.0000 0.82074  0.14565  0.08138  Biso   1.000  C
  H297     1.0000 0.72341  0.03711  0.99510  Biso   1.000  H
  H298     1.0000 0.78661  0.05209  0.03400  Biso   1.000  H
  C258     1.0000 0.71298  0.05849  0.10798  Biso   1.000  C
  O76      1.0000 0.96022  0.12032  0.68893  Biso   1.000  O
  C259     1.0000 0.04165  0.13925  0.77533  Biso   1.000  C
  H299     1.0000 0.96232  0.07019  0.92682  Biso   1.000  H
  C260     1.0000 0.03814  0.10988  0.90512  Biso   1.000  C
  H300     1.0000 0.84339  0.94820  0.82300  Biso   1.000  H
  H301     1.0000 0.80488  0.99713  0.81280  Biso   1.000  H
  C261     1.0000 0.84211  0.97292  0.71439  Biso   1.000  C
  C262     1.0000 0.76611  0.23540  0.08571  Biso   1.000  C
  O77      1.0000 0.68436  0.20461  0.00940  Biso   1.000  O
  C263     1.0000 0.84831  0.18233  0.12438  Biso   1.000  C
  H302     1.0000 0.84020  0.11479  0.07888  Biso   1.000  H
  H303     1.0000 0.73530  0.08019  0.14317  Biso   1.000  H
  H304     1.0000 0.67069  0.07070  0.10388  Biso   1.000  H
  C264     1.0000 0.71152  0.00821  0.14158  Biso   1.000  C
  H305     1.0000 0.97480  0.13038  0.64702  Biso   1.000  H
  C265     1.0000 0.06757  0.13529  0.84760  Biso   1.000  C
  O78      1.0000 0.07259  0.16619  0.72020  Biso   1.000  O
  C266     1.0000 0.06511  0.10897  0.98479  Biso   1.000  C
  H306     1.0000 0.83842  0.00382  0.68939  Biso   1.000  H
  H307     1.0000 0.80821  0.95271  0.70084  Biso   1.000  H
  H308     1.0000 0.87939  0.95751  0.69890  Biso   1.000  H
  C267     1.0000 0.82097  0.22820  0.12381  Biso   1.000  C
  O79      1.0000 0.73567  0.27891  0.08588  Biso   1.000  O
  H309     1.0000 0.67748  0.23380  0.00581  Biso   1.000  H
  C268     1.0000 0.90545  0.17277  0.17062  Biso   1.000  C
  H310     1.0000 0.69530  0.98582  0.10507  Biso   1.000  H
  H311     1.0000 0.75212  0.99851  0.15542  Biso   1.000  H
  H312     1.0000 0.68618  0.00851  0.18623  Biso   1.000  H
  O80      1.0000 0.12212  0.15801  0.86343  Biso   1.000  O
  H313     1.0000 0.04990  0.18720  0.70312  Biso   1.000  H
  H314     1.0000 0.10959  0.11570  0.97870  Biso   1.000  H
  C269     1.0000 0.04014  0.14987  0.03411  Biso   1.000  C
  C270     1.0000 0.06056  0.05874  0.02250  Biso   1.000  C
  O81      1.0000 0.84371  0.26767  0.16168  Biso   1.000  O
  H315     1.0000 0.76050  0.30159  0.07512  Biso   1.000  H
  H316     1.0000 0.90641  0.19781  0.21180  Biso   1.000  H
  C271     1.0000 0.96309  0.18022  0.12330  Biso   1.000  C
  C272     1.0000 0.90431  0.12304  0.21038  Biso   1.000  C
  H317     1.0000 0.15242  0.16081  0.83370  Biso   1.000  H
  C273     1.0000 0.98633  0.14427  0.07557  Biso   1.000  C
  C274     1.0000 0.06994  0.19450  0.03821  Biso   1.000  C
  H318     1.0000 0.07610  0.03391  0.98662  Biso   1.000  H
  H319     1.0000 0.01718  0.05140  0.03258  Biso   1.000  H
  C275     1.0000 0.09610  0.05521  0.09699  Biso   1.000  C
  H320     1.0000 0.88048  0.26419  0.16812  Biso   1.000  H
  C276     1.0000 0.99426  0.22431  0.12637  Biso   1.000  C
  H321     1.0000 0.86449  0.11901  0.23629  Biso   1.000  H
  H322     1.0000 0.90768  0.09720  0.17142  Biso   1.000  H
  C277     1.0000 0.95489  0.11654  0.26830  Biso   1.000  C
  H323     1.0000 0.96459  0.11450  0.07102  Biso   1.000  H
  C278     1.0000 0.04730  0.23180  0.08463  Biso   1.000  C
  O82      1.0000 0.12348  0.20494  0.00085  Biso   1.000  O
  H324     1.0000 0.13820  0.06721  0.08873  Biso   1.000  H
  H325     1.0000 0.07669  0.07641  0.13560  Biso   1.000  H
  C279     1.0000 0.09861  0.00440  0.12660  Biso   1.000  C
  O83      1.0000 0.97120  0.26080  0.17188  Biso   1.000  O
  H326     1.0000 0.95051  0.14129  0.30879  Biso   1.000  H
  H327     1.0000 0.99471  0.12181  0.24312  Biso   1.000  H
  C280     1.0000 0.95398  0.06561  0.30463  Biso   1.000  C
  O84      1.0000 0.07988  0.27378  0.09061  Biso   1.000  O
  H328     1.0000 0.12312  0.19040  0.96002  Biso   1.000  H
  H329     1.0000 0.05901  0.99491  0.14420  Biso   1.000  H
  H330     1.0000 0.11150  0.98292  0.08662  Biso   1.000  H
  H331     1.0000 0.12708  0.00291  0.16789  Biso   1.000  H
  H332     1.0000 0.99800  0.28091  0.18042  Biso   1.000  H
  H333     1.0000 0.92149  0.06408  0.34119  Biso   1.000  H
  H334     1.0000 0.99212  0.05939  0.32969  Biso   1.000  H
  H335     1.0000 0.94751  0.04151  0.26590  Biso   1.000  H
  H336     1.0000 0.05709  0.29712  0.08440  Biso   1.000  H
  O85      1.0000 0.26319  0.82076  0.73336  Biso   1.000  O
  C281     1.0000 0.23763  0.85122  0.78683  Biso   1.000  C
  H337     1.0000 0.28169  0.79892  0.75500  Biso   1.000  H
  C282     1.0000 0.18482  0.87623  0.76713  Biso   1.000  C
  C283     1.0000 0.26287  0.85638  0.85842  Biso   1.000  C
  C284     1.0000 0.15730  0.90771  0.81929  Biso   1.000  C
  O86      1.0000 0.16276  0.86733  0.69497  Biso   1.000  O
  C285     1.0000 0.23508  0.88601  0.91264  Biso   1.000  C
  O87      1.0000 0.31673  0.83218  0.86901  Biso   1.000  O
  C286     1.0000 0.10125  0.93755  0.79549  Biso   1.000  C
  C287     1.0000 0.18304  0.91094  0.89174  Biso   1.000  C
  H338     1.0000 0.12631  0.87361  0.69360  Biso   1.000  H
  C288     1.0000 0.26164  0.88812  0.99300  Biso   1.000  C
  H339     1.0000 0.31842  0.82200  0.91281  Biso   1.000  H
  C289     1.0000 0.04247  0.91127  0.81519  Biso   1.000  C
  H340     1.0000 0.10248  0.94031  0.73882  Biso   1.000  H
  C290     1.0000 0.10271  0.98997  0.82704  Biso   1.000  C
  H341     1.0000 0.16390  0.93123  0.92830  Biso   1.000  H
  H342     1.0000 0.30598  0.88052  0.98844  Biso   1.000  H
  C291     1.0000 0.23325  0.84795  0.04231  Biso   1.000  C
  C292     1.0000 0.25690  0.93897  0.02922  Biso   1.000  C
  C293     1.0000 0.01285  0.88368  0.75933  Biso   1.000  C
  C294     1.0000 0.01686  0.91273  0.88764  Biso   1.000  C
  H343     1.0000 0.10439  0.98870  0.88331  Biso   1.000  H
  H344     1.0000 0.06452  0.00669  0.81263  Biso   1.000  H
  C295     1.0000 0.15702  0.01959  0.79771  Biso   1.000  C
  C296     1.0000 0.26091  0.80244  0.04602  Biso   1.000  C
  C297     1.0000 0.17926  0.85435  0.08138  Biso   1.000  C
  H345     1.0000 0.27659  0.96292  0.99510  Biso   1.000  H
  H346     1.0000 0.21339  0.94791  0.03400  Biso   1.000  H
  C298     1.0000 0.28702  0.94151  0.10798  Biso   1.000  C
  O88      1.0000 0.03978  0.87972  0.68893  Biso   1.000  O
  C299     1.0000 0.95835  0.86075  0.77533  Biso   1.000  C
  H347     1.0000 0.03768  0.92981  0.92682  Biso   1.000  H
  C300     1.0000 0.96186  0.89012  0.90512  Biso   1.000  C
  H348     1.0000 0.15661  0.05180  0.82300  Biso   1.000  H
  H349     1.0000 0.19512  0.00291  0.81280  Biso   1.000  H
  C301     1.0000 0.15789  0.02712  0.71439  Biso   1.000  C
  C302     1.0000 0.23389  0.76460  0.08571  Biso   1.000  C
  O89      1.0000 0.31564  0.79539  0.00940  Biso   1.000  O
  C303     1.0000 0.15169  0.81767  0.12438  Biso   1.000  C
  H350     1.0000 0.15980  0.88521  0.07888  Biso   1.000  H
  H351     1.0000 0.26470  0.91981  0.14317  Biso   1.000  H
  H352     1.0000 0.32931  0.92930  0.10388  Biso   1.000  H
  C304     1.0000 0.28848  0.99182  0.14158  Biso   1.000  C
  H353     1.0000 0.02520  0.86962  0.64702  Biso   1.000  H
  C305     1.0000 0.93243  0.86471  0.84760  Biso   1.000  C
  O90      1.0000 0.92741  0.83381  0.72020  Biso   1.000  O
  C306     1.0000 0.93489  0.89103  0.98479  Biso   1.000  C
  H354     1.0000 0.16158  0.99622  0.68939  Biso   1.000  H
  H355     1.0000 0.19179  0.04729  0.70084  Biso   1.000  H
  H356     1.0000 0.12061  0.04249  0.69890  Biso   1.000  H
  C307     1.0000 0.17903  0.77184  0.12381  Biso   1.000  C
  O91      1.0000 0.26433  0.72109  0.08588  Biso   1.000  O
  H357     1.0000 0.32252  0.76620  0.00581  Biso   1.000  H
  C308     1.0000 0.09455  0.82723  0.17062  Biso   1.000  C
  H358     1.0000 0.31382  0.99149  0.18623  Biso   1.000  H
  H359     1.0000 0.30470  0.01421  0.10507  Biso   1.000  H
  H360     1.0000 0.24788  0.00149  0.15542  Biso   1.000  H
  O92      1.0000 0.87788  0.84199  0.86343  Biso   1.000  O
  H361     1.0000 0.95010  0.81280  0.70312  Biso   1.000  H
  H362     1.0000 0.89041  0.88430  0.97870  Biso   1.000  H
  C309     1.0000 0.95986  0.85013  0.03411  Biso   1.000  C
  C310     1.0000 0.93944  0.94126  0.02250  Biso   1.000  C
  O93      1.0000 0.15629  0.73236  0.16168  Biso   1.000  O
  H363     1.0000 0.23950  0.69841  0.07512  Biso   1.000  H
  H364     1.0000 0.09359  0.80222  0.21180  Biso   1.000  H
  C311     1.0000 0.03691  0.81978  0.12330  Biso   1.000  C
  C312     1.0000 0.09569  0.87696  0.21038  Biso   1.000  C
  H365     1.0000 0.84758  0.83919  0.83370  Biso   1.000  H
  C313     1.0000 0.93006  0.80550  0.03821  Biso   1.000  C
  C314     1.0000 0.01367  0.85577  0.07557  Biso   1.000  C
  H366     1.0000 0.92390  0.96612  0.98662  Biso   1.000  H
  H367     1.0000 0.98282  0.94860  0.03258  Biso   1.000  H
  C315     1.0000 0.90390  0.94479  0.09699  Biso   1.000  C
  H368     1.0000 0.11952  0.73581  0.16812  Biso   1.000  H
  C316     1.0000 0.00574  0.77569  0.12637  Biso   1.000  C
  H369     1.0000 0.13551  0.88099  0.23629  Biso   1.000  H
  H370     1.0000 0.09232  0.90280  0.17142  Biso   1.000  H
  C317     1.0000 0.04511  0.88346  0.26830  Biso   1.000  C
  C318     1.0000 0.95270  0.76820  0.08463  Biso   1.000  C
  O94      1.0000 0.87652  0.79506  0.00085  Biso   1.000  O
  H371     1.0000 0.03541  0.88550  0.07102  Biso   1.000  H
  H372     1.0000 0.86180  0.93283  0.08873  Biso   1.000  H
  H373     1.0000 0.92331  0.92359  0.13560  Biso   1.000  H
  C319     1.0000 0.90139  0.99560  0.12660  Biso   1.000  C
  O95      1.0000 0.02880  0.73923  0.17188  Biso   1.000  O
  H374     1.0000 0.04949  0.85871  0.30879  Biso   1.000  H
  H375     1.0000 0.00529  0.87819  0.24312  Biso   1.000  H
  C320     1.0000 0.04602  0.93443  0.30463  Biso   1.000  C
  O96      1.0000 0.92012  0.72625  0.09061  Biso   1.000  O
  H376     1.0000 0.87688  0.80960  0.96002  Biso   1.000  H
  H377     1.0000 0.87292  0.99713  0.16789  Biso   1.000  H
  H378     1.0000 0.94099  0.00509  0.14420  Biso   1.000  H
  H379     1.0000 0.88850  0.01708  0.08662  Biso   1.000  H
  H380     1.0000 0.00200  0.71909  0.18042  Biso   1.000  H
  H381     1.0000 0.07851  0.93592  0.34119  Biso   1.000  H
  H382     1.0000 0.00788  0.94061  0.32969  Biso   1.000  H
  H383     1.0000 0.05249  0.95853  0.26590  Biso   1.000  H
  H384     1.0000 0.94291  0.70292  0.08440  Biso   1.000  H
