data_image0
_cell_length_a       14.464
_cell_length_b       17.337
_cell_length_c       29.388
_cell_angle_alpha    90
_cell_angle_beta     90
_cell_angle_gamma    90

_symmetry_space_group_name_H-M    "P 1"
_symmetry_int_tables_number       1

loop_
  _symmetry_equiv_pos_as_xyz
  'x, y, z'

loop_
  _atom_site_label
  _atom_site_occupancy
  _atom_site_fract_x
  _atom_site_fract_y
  _atom_site_fract_z
  _atom_site_thermal_displace_type
  _atom_site_B_iso_or_equiv
  _atom_site_type_symbol
  O1       1.0000 0.56250  0.52022  0.51681  Biso   1.000  O
  C1       1.0000 0.59645  0.45971  0.54519  Biso   1.000  C
  H1       1.0000 0.54591  0.50182  0.49170  Biso   1.000  H
  C2       1.0000 0.68059  0.42199  0.52450  Biso   1.000  C
  C3       1.0000 0.62168  0.49472  0.59079  Biso   1.000  C
  H2       1.0000 0.54701  0.42008  0.54961  Biso   1.000  H
  O2       1.0000 0.65321  0.38640  0.48329  Biso   1.000  O
  H3       1.0000 0.72808  0.46242  0.51780  Biso   1.000  H
  C4       1.0000 0.72055  0.36367  0.55740  Biso   1.000  C
  C5       1.0000 0.66565  0.43491  0.62110  Biso   1.000  C
  H4       1.0000 0.66828  0.53631  0.58520  Biso   1.000  H
  O3       1.0000 0.54466  0.52852  0.61389  Biso   1.000  O
  C6       1.0000 0.68729  0.41512  0.44209  Biso   1.000  C
  O4       1.0000 0.74357  0.40070  0.59960  Biso   1.000  O
  H5       1.0000 0.67360  0.32260  0.56319  Biso   1.000  H
  C7       1.0000 0.80987  0.32630  0.54162  Biso   1.000  C
  O5       1.0000 0.59831  0.37729  0.63131  Biso   1.000  O
  H6       1.0000 0.68605  0.46000  0.64999  Biso   1.000  H
  H7       1.0000 0.52088  0.49582  0.63141  Biso   1.000  H
  C8       1.0000 0.61007  0.42603  0.40870  Biso   1.000  C
  O6       1.0000 0.75705  0.36581  0.42330  Biso   1.000  O
  H8       1.0000 0.71578  0.46669  0.44811  Biso   1.000  H
  H9       1.0000 0.85875  0.36621  0.54100  Biso   1.000  H
  H10      1.0000 0.80109  0.30790  0.51000  Biso   1.000  H
  S1       1.0000 0.84990  0.24699  0.57551  Biso   1.000  S
  C9       1.0000 0.57799  0.35958  0.67619  Biso   1.000  C
  C10      1.0000 0.57017  0.34879  0.39462  Biso   1.000  C
  H11      1.0000 0.63599  0.45158  0.38101  Biso   1.000  H
  O7       1.0000 0.54190  0.47500  0.42728  Biso   1.000  O
  C11      1.0000 0.72221  0.29071  0.41252  Biso   1.000  C
  C12      1.0000 0.75608  0.18152  0.56612  Biso   1.000  C
  C13      1.0000 0.47317  0.35369  0.67970  Biso   1.000  C
  H12      1.0000 0.60046  0.40197  0.69641  Biso   1.000  H
  C14      1.0000 0.62279  0.28379  0.69038  Biso   1.000  C
  C15      1.0000 0.64650  0.29671  0.37771  Biso   1.000  C
  H13      1.0000 0.54058  0.32428  0.42170  Biso   1.000  H
  O8       1.0000 0.50221  0.35889  0.36028  Biso   1.000  O
  H14      1.0000 0.50857  0.49247  0.40629  Biso   1.000  H
  H15      1.0000 0.69725  0.26608  0.44069  Biso   1.000  H
  C16      1.0000 0.80524  0.24370  0.39499  Biso   1.000  C
  H16      1.0000 0.70838  0.19011  0.58970  Biso   1.000  H
  H17      1.0000 0.72788  0.19288  0.53610  Biso   1.000  H
  C17      1.0000 0.78505  0.09800  0.56710  Biso   1.000  C
  C18      1.0000 0.44130  0.32139  0.72479  Biso   1.000  C
  H18      1.0000 0.45202  0.31730  0.65551  Biso   1.000  H
  O9       1.0000 0.43349  0.42810  0.66990  Biso   1.000  O
  O10      1.0000 0.59119  0.26158  0.73503  Biso   1.000  O
  H19      1.0000 0.60391  0.24301  0.66820  Biso   1.000  H
  C19      1.0000 0.72725  0.28580  0.69260  Biso   1.000  C
  O11      1.0000 0.60467  0.22178  0.36991  Biso   1.000  O
  H20      1.0000 0.67208  0.31718  0.34851  Biso   1.000  H
  H21      1.0000 0.45015  0.34620  0.37070  Biso   1.000  H
  H22      1.0000 0.83856  0.27583  0.37250  Biso   1.000  H
  H23      1.0000 0.78077  0.19819  0.37849  Biso   1.000  H
  S2       1.0000 0.88703  0.21042  0.43545  Biso   1.000  S
  C20      1.0000 0.81119  0.06120  0.52920  Biso   1.000  C
  C21      1.0000 0.78388  0.05768  0.60691  Biso   1.000  C
  C22      1.0000 0.49399  0.24820  0.73659  Biso   1.000  C
  H24      1.0000 0.45326  0.36067  0.74912  Biso   1.000  H
  O12      1.0000 0.34486  0.30397  0.72441  Biso   1.000  O
  H25      1.0000 0.37569  0.42401  0.66810  Biso   1.000  H
  H26      1.0000 0.75048  0.23539  0.70359  Biso   1.000  H
  H27      1.0000 0.75256  0.29457  0.66170  Biso   1.000  H
  O13      1.0000 0.75850  0.34568  0.72251  Biso   1.000  O
  C23      1.0000 0.62078  0.18400  0.32762  Biso   1.000  C
  C24      1.0000 0.96080  0.28938  0.44831  Biso   1.000  C
  H28      1.0000 0.81637  0.08981  0.50180  Biso   1.000  H
  C25      1.0000 0.83096  0.98252  0.52841  Biso   1.000  C
  H29      1.0000 0.76887  0.08358  0.63441  Biso   1.000  H
  C26      1.0000 0.80407  0.98022  0.60790  Biso   1.000  C
  O14      1.0000 0.46861  0.18890  0.70542  Biso   1.000  O
  H30      1.0000 0.47670  0.23170  0.76800  Biso   1.000  H
  H31      1.0000 0.32287  0.31401  0.69858  Biso   1.000  H
  H32      1.0000 0.75705  0.32981  0.74939  Biso   1.000  H
  C27      1.0000 0.52765  0.16099  0.30808  Biso   1.000  C
  H33      1.0000 0.65155  0.22080  0.30621  Biso   1.000  H
  O15      1.0000 0.67817  0.11911  0.33371  Biso   1.000  O
  C28      1.0000 0.98147  0.34810  0.41561  Biso   1.000  C
  C29      1.0000 0.95955  0.35600  0.42439  Biso   1.000  C
  C30      1.0000 0.00601  0.30790  0.48778  Biso   1.000  C
  C31      1.0000 0.00643  0.27508  0.48932  Biso   1.000  C
  H34      1.0000 0.84707  0.95841  0.50051  Biso   1.000  H
  C32      1.0000 0.82757  0.94013  0.56700  Biso   1.000  C
  H35      1.0000 0.80248  0.95311  0.63601  Biso   1.000  H
  C33      1.0000 0.44199  0.11559  0.72220  Biso   1.000  C
  O16      1.0000 0.46737  0.22501  0.30281  Biso   1.000  O
  H36      1.0000 0.53816  0.13762  0.27739  Biso   1.000  H
  C34      1.0000 0.48272  0.10031  0.33830  Biso   1.000  C
  C35      1.0000 0.64235  0.06253  0.36471  Biso   1.000  C
  H37      1.0000 0.95257  0.34279  0.38669  Biso   1.000  H
  H38      1.0000 0.92118  0.36500  0.39880  Biso   1.000  H
  C36      1.0000 0.03955  0.41270  0.42078  Biso   1.000  C
  C37      1.0000 0.02164  0.41028  0.44209  Biso   1.000  C
  H39      1.0000 0.99758  0.27312  0.51228  Biso   1.000  H
  C38      1.0000 0.06340  0.37129  0.49670  Biso   1.000  C
  C39      1.0000 0.06153  0.33478  0.50660  Biso   1.000  C
  H40      1.0000 0.00041  0.22720  0.50470  Biso   1.000  H
  C40      1.0000 0.84824  0.85459  0.56901  Biso   1.000  C
  C41      1.0000 0.34769  0.09742  0.70399  Biso   1.000  C
  C42      1.0000 0.51175  0.05382  0.71019  Biso   1.000  C
  H41      1.0000 0.43778  0.11888  0.75609  Biso   1.000  H
  H42      1.0000 0.49357  0.26510  0.31241  Biso   1.000  H
  H43      1.0000 0.46439  0.12482  0.36780  Biso   1.000  H
  O17      1.0000 0.40252  0.06979  0.31700  Biso   1.000  O
  C43      1.0000 0.54777  0.03490  0.34790  Biso   1.000  C
  H44      1.0000 0.63516  0.08640  0.39550  Biso   1.000  H
  C44      1.0000 0.71398  0.00081  0.36699  Biso   1.000  C
  C45      1.0000 0.07882  0.42412  0.46291  Biso   1.000  C
  H45      1.0000 0.05102  0.44708  0.39628  Biso   1.000  H
  H46      1.0000 0.03422  0.45469  0.42419  Biso   1.000  H
  C46      1.0000 0.06644  0.40399  0.48401  Biso   1.000  C
  H47      1.0000 0.09112  0.37757  0.52579  Biso   1.000  H
  H48      1.0000 0.09541  0.32739  0.53399  Biso   1.000  H
  H49      1.0000 0.84430  0.83682  0.60048  Biso   1.000  H
  H50      1.0000 0.91067  0.84507  0.55730  Biso   1.000  H
  H51      1.0000 0.80330  0.82661  0.55029  Biso   1.000  H
  C47      1.0000 0.31928  0.01661  0.71560  Biso   1.000  C
  H52      1.0000 0.35039  0.10157  0.67010  Biso   1.000  H
  O18      1.0000 0.28070  0.15268  0.71999  Biso   1.000  O
  O19      1.0000 0.47712  0.97872  0.72220  Biso   1.000  O
  H53      1.0000 0.52205  0.05508  0.67660  Biso   1.000  H
  C48      1.0000 0.60599  0.06299  0.73390  Biso   1.000  C
  H54      1.0000 0.35709  0.09869  0.32231  Biso   1.000  H
  H55      1.0000 0.55628  0.00381  0.31948  Biso   1.000  H
  O20      1.0000 0.50567  0.98748  0.38213  Biso   1.000  O
  O21      1.0000 0.79515  0.02648  0.38839  Biso   1.000  O
  H56      1.0000 0.68888  0.95622  0.38400  Biso   1.000  H
  H57      1.0000 0.72884  0.98327  0.33578  Biso   1.000  H
  H58      1.0000 0.11636  0.46807  0.46849  Biso   1.000  H
  H59      1.0000 0.09942  0.44639  0.49650  Biso   1.000  H
  C49      1.0000 0.39318  0.96009  0.70141  Biso   1.000  C
  H60      1.0000 0.31070  0.01292  0.74929  Biso   1.000  H
  O22      1.0000 0.23479  0.99700  0.69409  Biso   1.000  O
  H61      1.0000 0.30261  0.19738  0.71771  Biso   1.000  H
  H62      1.0000 0.64795  0.02123  0.72390  Biso   1.000  H
  H63      1.0000 0.63399  0.11288  0.72499  Biso   1.000  H
  O23      1.0000 0.59596  0.06039  0.78161  Biso   1.000  O
  C50      1.0000 0.49758  0.90812  0.37471  Biso   1.000  C
  H64      1.0000 0.83435  0.99071  0.38870  Biso   1.000  H
  O24      1.0000 0.40058  0.96262  0.65289  Biso   1.000  O
  H65      1.0000 0.37438  0.90702  0.71090  Biso   1.000  H
  H66      1.0000 0.19082  0.01898  0.70750  Biso   1.000  H
  H67      1.0000 0.58808  0.01448  0.78991  Biso   1.000  H
  H68      1.0000 0.51369  0.89589  0.34238  Biso   1.000  H
  O25      1.0000 0.55690  0.86641  0.40442  Biso   1.000  O
  C51      1.0000 0.39629  0.88649  0.38390  Biso   1.000  C
  C52      1.0000 0.39498  0.89202  0.62771  Biso   1.000  C
  C53      1.0000 0.54065  0.87968  0.45171  Biso   1.000  C
  H69      1.0000 0.38897  0.83048  0.37641  Biso   1.000  H
  O26      1.0000 0.33628  0.92802  0.35501  Biso   1.000  O
  C54      1.0000 0.37237  0.89652  0.43382  Biso   1.000  C
  C55      1.0000 0.48431  0.87829  0.60229  Biso   1.000  C
  C56      1.0000 0.31582  0.89981  0.59429  Biso   1.000  C
  H70      1.0000 0.38281  0.84813  0.64890  Biso   1.000  H
  C57      1.0000 0.44179  0.85672  0.46369  Biso   1.000  C
  H71      1.0000 0.55075  0.93540  0.45889  Biso   1.000  H
  C58      1.0000 0.61138  0.83059  0.47669  Biso   1.000  C
  H72      1.0000 0.34721  0.97543  0.35739  Biso   1.000  H
  H73      1.0000 0.37237  0.95282  0.44110  Biso   1.000  H
  O27      1.0000 0.28180  0.86711  0.44021  Biso   1.000  O
  O28      1.0000 0.47712  0.81167  0.57340  Biso   1.000  O
  H74      1.0000 0.49426  0.92392  0.58201  Biso   1.000  H
  C59      1.0000 0.57577  0.86549  0.62961  Biso   1.000  C
  C60      1.0000 0.31291  0.82932  0.56350  Biso   1.000  C
  H75      1.0000 0.32730  0.94630  0.57489  Biso   1.000  H
  O29      1.0000 0.22981  0.90979  0.61699  Biso   1.000  O
  O30      1.0000 0.42270  0.87801  0.50997  Biso   1.000  O
  H76      1.0000 0.43487  0.79962  0.46029  Biso   1.000  H
  H77      1.0000 0.67450  0.84692  0.46791  Biso   1.000  H
  H78      1.0000 0.60460  0.83821  0.50990  Biso   1.000  H
  O31      1.0000 0.59880  0.74961  0.46580  Biso   1.000  O
  H79      1.0000 0.26728  0.87080  0.46781  Biso   1.000  H
  C61      1.0000 0.40597  0.81640  0.54151  Biso   1.000  C
  H80      1.0000 0.62839  0.85580  0.60879  Biso   1.000  H
  H81      1.0000 0.59015  0.91088  0.64870  Biso   1.000  H
  O32      1.0000 0.55780  0.80072  0.65659  Biso   1.000  O
  H82      1.0000 0.29618  0.78289  0.58211  Biso   1.000  H
  O33      1.0000 0.24537  0.84040  0.52950  Biso   1.000  O
  H83      1.0000 0.23921  0.91533  0.64499  Biso   1.000  H
  H84      1.0000 0.62866  0.72250  0.48442  Biso   1.000  H
  H85      1.0000 0.40376  0.76680  0.52419  Biso   1.000  H
  H86      1.0000 0.57107  0.76051  0.64200  Biso   1.000  H
  H87      1.0000 0.20319  0.86889  0.53951  Biso   1.000  H
  C62      1.0000 0.33096  0.51751  0.47159  Biso   1.000  C
  C63      1.0000 0.31119  0.43877  0.47080  Biso   1.000  C
  H88      1.0000 0.34707  0.54162  0.49949  Biso   1.000  H
  C64      1.0000 0.32757  0.55990  0.43300  Biso   1.000  C
  C65      1.0000 0.28512  0.40197  0.43290  Biso   1.000  C
  H89      1.0000 0.31637  0.41022  0.49820  Biso   1.000  H
  C66      1.0000 0.30407  0.51981  0.39210  Biso   1.000  C
  C67      1.0000 0.34831  0.64538  0.43099  Biso   1.000  C
  C68      1.0000 0.25608  0.31851  0.43388  Biso   1.000  C
  C69      1.0000 0.28388  0.44229  0.39309  Biso   1.000  C
  H90      1.0000 0.30248  0.54692  0.36399  Biso   1.000  H
  H91      1.0000 0.34430  0.66321  0.39952  Biso   1.000  H
  H92      1.0000 0.41067  0.65490  0.44270  Biso   1.000  H
  H93      1.0000 0.30330  0.67342  0.44971  Biso   1.000  H
  S3       1.0000 0.34990  0.25304  0.42449  Biso   1.000  S
  H94      1.0000 0.20838  0.30992  0.41030  Biso   1.000  H
  H95      1.0000 0.22788  0.30709  0.46390  Biso   1.000  H
  H96      1.0000 0.26887  0.41639  0.36559  Biso   1.000  H
  C70      1.0000 0.30987  0.17367  0.45838  Biso   1.000  C
  C71      1.0000 0.22062  0.13630  0.44260  Biso   1.000  C
  H97      1.0000 0.35882  0.13382  0.45900  Biso   1.000  H
  H98      1.0000 0.30109  0.19207  0.49000  Biso   1.000  H
  O34      1.0000 0.24357  0.09933  0.40040  Biso   1.000  O
  C72      1.0000 0.18059  0.07798  0.47550  Biso   1.000  C
  H99      1.0000 0.17360  0.17742  0.43681  Biso   1.000  H
  C73      1.0000 0.16572  0.06512  0.37890  Biso   1.000  C
  C74      1.0000 0.09652  0.04032  0.45481  Biso   1.000  C
  H100     1.0000 0.22808  0.03761  0.48220  Biso   1.000  H
  O35      1.0000 0.15321  0.11357  0.51671  Biso   1.000  O
  O36      1.0000 0.09831  0.12269  0.36869  Biso   1.000  O
  H101     1.0000 0.18612  0.03997  0.35001  Biso   1.000  H
  C75      1.0000 0.12168  0.00531  0.40921  Biso   1.000  C
  H102     1.0000 0.04701  0.07989  0.45039  Biso   1.000  H
  O37      1.0000 0.06250  0.97981  0.48319  Biso   1.000  O
  C76      1.0000 0.18729  0.08491  0.55791  Biso   1.000  C
  C77      1.0000 0.07799  0.14039  0.32381  Biso   1.000  C
  H103     1.0000 0.16828  0.96372  0.41480  Biso   1.000  H
  O38      1.0000 0.04473  0.97151  0.38611  Biso   1.000  O
  H104     1.0000 0.04591  0.99821  0.50830  Biso   1.000  H
  H105     1.0000 0.21578  0.03328  0.55189  Biso   1.000  H
  O39      1.0000 0.25712  0.13422  0.57670  Biso   1.000  O
  C78      1.0000 0.11007  0.07400  0.59130  Biso   1.000  C
  C79      1.0000 0.12279  0.21619  0.30962  Biso   1.000  C
  H106     1.0000 0.10053  0.09800  0.30359  Biso   1.000  H
  C80      1.0000 0.97324  0.14628  0.32030  Biso   1.000  C
  H107     1.0000 0.02088  0.00421  0.36859  Biso   1.000  H
  C81      1.0000 0.22221  0.20932  0.58748  Biso   1.000  C
  H108     1.0000 0.13599  0.04839  0.61899  Biso   1.000  H
  O40      1.0000 0.04190  0.02498  0.57272  Biso   1.000  O
  C82      1.0000 0.07017  0.15118  0.60538  Biso   1.000  C
  C83      1.0000 0.22732  0.21422  0.30740  Biso   1.000  C
  O41      1.0000 0.09119  0.23839  0.26497  Biso   1.000  O
  H109     1.0000 0.10391  0.25702  0.33180  Biso   1.000  H
  C84      1.0000 0.94130  0.17858  0.27521  Biso   1.000  C
  H110     1.0000 0.95202  0.18267  0.34449  Biso   1.000  H
  O42      1.0000 0.93356  0.07193  0.33010  Biso   1.000  O
  C85      1.0000 0.14650  0.20332  0.62229  Biso   1.000  C
  H111     1.0000 0.19732  0.23389  0.55931  Biso   1.000  H
  C86      1.0000 0.30531  0.25627  0.60501  Biso   1.000  C
  H112     1.0000 0.00857  0.00750  0.59371  Biso   1.000  H
  H113     1.0000 0.04058  0.17569  0.57830  Biso   1.000  H
  O43      1.0000 0.00221  0.14109  0.63972  Biso   1.000  O
  O44      1.0000 0.25850  0.15429  0.27749  Biso   1.000  O
  H114     1.0000 0.25048  0.26458  0.29641  Biso   1.000  H
  H115     1.0000 0.25256  0.20540  0.33830  Biso   1.000  H
  C87      1.0000 0.99405  0.25177  0.26341  Biso   1.000  C
  H116     1.0000 0.95333  0.13930  0.25088  Biso   1.000  H
  O45      1.0000 0.84493  0.19600  0.27559  Biso   1.000  O
  H117     1.0000 0.87576  0.07602  0.33190  Biso   1.000  H
  O46      1.0000 0.10467  0.27819  0.63009  Biso   1.000  O
  H118     1.0000 0.17208  0.18279  0.65149  Biso   1.000  H
  H119     1.0000 0.33856  0.22420  0.62750  Biso   1.000  H
  H120     1.0000 0.28077  0.30178  0.62151  Biso   1.000  H
  S4       1.0000 0.38703  0.28955  0.56455  Biso   1.000  S
  H121     1.0000 0.95022  0.15378  0.62930  Biso   1.000  H
  H122     1.0000 0.25712  0.17021  0.25061  Biso   1.000  H
  O47      1.0000 0.96861  0.31113  0.29458  Biso   1.000  O
  H123     1.0000 0.97677  0.26833  0.23200  Biso   1.000  H
  H124     1.0000 0.82294  0.18602  0.30142  Biso   1.000  H
  C88      1.0000 0.12078  0.31597  0.67238  Biso   1.000  C
  C89      1.0000 0.46080  0.21059  0.55169  Biso   1.000  C
  C90      1.0000 0.94206  0.38438  0.27780  Biso   1.000  C
  H125     1.0000 0.15162  0.27917  0.69379  Biso   1.000  H
  O48      1.0000 0.17817  0.38092  0.66629  Biso   1.000  O
  C91      1.0000 0.02772  0.33899  0.69192  Biso   1.000  C
  C92      1.0000 0.50608  0.19207  0.51222  Biso   1.000  C
  C93      1.0000 0.48147  0.15187  0.58439  Biso   1.000  C
  C94      1.0000 0.50650  0.22489  0.51068  Biso   1.000  C
  C95      1.0000 0.45955  0.14403  0.57561  Biso   1.000  C
  C96      1.0000 0.01182  0.44621  0.28981  Biso   1.000  C
  C97      1.0000 0.84776  0.40261  0.29601  Biso   1.000  C
  H126     1.0000 0.93785  0.38109  0.24391  Biso   1.000  H
  C98      1.0000 0.14242  0.43750  0.63529  Biso   1.000  C
  H127     1.0000 0.03823  0.36240  0.72261  Biso   1.000  H
  O49      1.0000 0.96744  0.27502  0.69719  Biso   1.000  O
  C99      1.0000 0.98272  0.39972  0.66170  Biso   1.000  C
  H128     1.0000 0.49758  0.22691  0.48772  Biso   1.000  H
  C100     1.0000 0.56347  0.12868  0.50330  Biso   1.000  C
  C101     1.0000 0.56160  0.16520  0.49340  Biso   1.000  C
  C102     1.0000 0.53962  0.08733  0.57922  Biso   1.000  C
  H129     1.0000 0.45257  0.15718  0.61331  Biso   1.000  H
  C103     1.0000 0.52171  0.08969  0.55791  Biso   1.000  C
  H130     1.0000 0.42118  0.13497  0.60120  Biso   1.000  H
  H131     1.0000 0.50048  0.27283  0.49530  Biso   1.000  H
  H132     1.0000 0.02212  0.44489  0.32340  Biso   1.000  H
  C104     1.0000 0.10599  0.43698  0.26610  Biso   1.000  C
  O50      1.0000 0.97712  0.52131  0.27780  Biso   1.000  O
  C105     1.0000 0.81934  0.48342  0.28440  Biso   1.000  C
  H133     1.0000 0.85046  0.39840  0.32990  Biso   1.000  H
  O51      1.0000 0.78077  0.34729  0.28001  Biso   1.000  O
  C106     1.0000 0.04777  0.46507  0.65210  Biso   1.000  C
  H134     1.0000 0.13516  0.41362  0.60450  Biso   1.000  H
  C107     1.0000 0.21398  0.49922  0.63301  Biso   1.000  C
  H135     1.0000 0.99364  0.23487  0.68759  Biso   1.000  H
  H136     1.0000 0.96446  0.37521  0.63220  Biso   1.000  H
  O52      1.0000 0.90252  0.43018  0.68300  Biso   1.000  O
  H137     1.0000 0.59119  0.12240  0.47421  Biso   1.000  H
  C108     1.0000 0.57889  0.07591  0.53709  Biso   1.000  C
  H138     1.0000 0.59548  0.17258  0.46601  Biso   1.000  H
  C109     1.0000 0.56651  0.09598  0.51599  Biso   1.000  C
  H139     1.0000 0.55109  0.05289  0.60372  Biso   1.000  H
  H140     1.0000 0.53429  0.04528  0.57581  Biso   1.000  H
  H141     1.0000 0.14802  0.47880  0.27610  Biso   1.000  H
  H142     1.0000 0.13399  0.38709  0.27501  Biso   1.000  H
  O53      1.0000 0.09596  0.43958  0.21839  Biso   1.000  O
  C110     1.0000 0.89325  0.53989  0.29859  Biso   1.000  C
  H143     1.0000 0.81077  0.48711  0.25071  Biso   1.000  H
  O54      1.0000 0.73486  0.50303  0.30591  Biso   1.000  O
  H144     1.0000 0.80261  0.30259  0.28229  Biso   1.000  H
  O55      1.0000 0.00567  0.51249  0.61787  Biso   1.000  O
  H145     1.0000 0.05628  0.49622  0.68052  Biso   1.000  H
  H146     1.0000 0.18888  0.54381  0.61600  Biso   1.000  H
  H147     1.0000 0.22891  0.51670  0.66422  Biso   1.000  H
  O56      1.0000 0.29522  0.47350  0.61161  Biso   1.000  O
  H148     1.0000 0.85716  0.40128  0.67769  Biso   1.000  H
  H149     1.0000 0.61636  0.03190  0.53151  Biso   1.000  H
  H150     1.0000 0.59949  0.05358  0.50350  Biso   1.000  H
  H151     1.0000 0.08808  0.48549  0.21009  Biso   1.000  H
  O57      1.0000 0.90065  0.53741  0.34711  Biso   1.000  O
  H152     1.0000 0.87445  0.59301  0.28910  Biso   1.000  H
  H153     1.0000 0.69082  0.48099  0.29250  Biso   1.000  H
  C111     1.0000 0.99765  0.59191  0.62529  Biso   1.000  C
  H154     1.0000 0.33442  0.50932  0.61130  Biso   1.000  H
  C112     1.0000 0.89505  0.60801  0.37229  Biso   1.000  C
  O58      1.0000 0.05690  0.63362  0.59558  Biso   1.000  O
  C113     1.0000 0.89636  0.61349  0.61610  Biso   1.000  C
  H155     1.0000 0.01369  0.60408  0.65762  Biso   1.000  H
  C114     1.0000 0.81582  0.60022  0.40571  Biso   1.000  C
  H156     1.0000 0.88281  0.65190  0.35110  Biso   1.000  H
  C115     1.0000 0.98431  0.62168  0.39771  Biso   1.000  C
  C116     1.0000 0.04072  0.62029  0.54829  Biso   1.000  C
  C117     1.0000 0.87244  0.60351  0.56618  Biso   1.000  C
  H157     1.0000 0.88903  0.66949  0.62359  Biso   1.000  H
  O59      1.0000 0.83635  0.57201  0.64499  Biso   1.000  O
  C118     1.0000 0.81291  0.67070  0.43650  Biso   1.000  C
  H158     1.0000 0.82736  0.55367  0.42511  Biso   1.000  H
  O60      1.0000 0.72981  0.59018  0.38301  Biso   1.000  O
  C119     1.0000 0.07577  0.63448  0.37039  Biso   1.000  C
  O61      1.0000 0.97712  0.68830  0.42660  Biso   1.000  O
  H159     1.0000 0.99433  0.57611  0.41799  Biso   1.000  H
  C120     1.0000 0.94186  0.64331  0.53631  Biso   1.000  C
  H160     1.0000 0.05082  0.56457  0.54111  Biso   1.000  H
  C121     1.0000 0.11138  0.66938  0.52331  Biso   1.000  C
  H161     1.0000 0.87244  0.54721  0.55890  Biso   1.000  H
  O62      1.0000 0.78187  0.63292  0.55979  Biso   1.000  O
  H162     1.0000 0.84721  0.52460  0.64261  Biso   1.000  H
  C122     1.0000 0.90604  0.68362  0.45849  Biso   1.000  C
  H163     1.0000 0.79625  0.71708  0.41789  Biso   1.000  H
  O63      1.0000 0.74544  0.65957  0.47050  Biso   1.000  O
  H164     1.0000 0.73921  0.58470  0.35501  Biso   1.000  H
  H165     1.0000 0.12839  0.64417  0.39121  Biso   1.000  H
  H166     1.0000 0.09022  0.58909  0.35130  Biso   1.000  H
  O64      1.0000 0.05780  0.69931  0.34341  Biso   1.000  O
  O65      1.0000 0.92270  0.62202  0.49003  Biso   1.000  O
  H167     1.0000 0.93494  0.70041  0.53971  Biso   1.000  H
  H168     1.0000 0.17450  0.65311  0.53209  Biso   1.000  H
  H169     1.0000 0.10460  0.66182  0.49010  Biso   1.000  H
  O66      1.0000 0.09880  0.75042  0.53420  Biso   1.000  O
  H170     1.0000 0.76735  0.62917  0.53219  Biso   1.000  H
  H171     1.0000 0.90383  0.73317  0.47581  Biso   1.000  H
  H172     1.0000 0.70326  0.63108  0.46049  Biso   1.000  H
  H173     1.0000 0.07107  0.73952  0.35800  Biso   1.000  H
  H174     1.0000 0.12866  0.77753  0.51558  Biso   1.000  H
  O67      1.0000 0.40397  0.56042  0.71839  Biso   1.000  O
  C123     1.0000 0.39401  0.56302  0.76610  Biso   1.000  C
  H175     1.0000 0.41192  0.51451  0.71009  Biso   1.000  H
  C124     1.0000 0.48818  0.55379  0.78981  Biso   1.000  C
  H176     1.0000 0.35198  0.52120  0.77610  Biso   1.000  H
  H177     1.0000 0.36601  0.61291  0.77501  Biso   1.000  H
  O68      1.0000 0.52288  0.47869  0.77780  Biso   1.000  O
  C125     1.0000 0.55801  0.61562  0.77780  Biso   1.000  C
  H178     1.0000 0.47788  0.55511  0.82340  Biso   1.000  H
  C126     1.0000 0.60675  0.46011  0.79859  Biso   1.000  C
  O69      1.0000 0.53139  0.68887  0.79458  Biso   1.000  O
  C127     1.0000 0.65231  0.59739  0.79601  Biso   1.000  C
  H179     1.0000 0.56215  0.61891  0.74391  Biso   1.000  H
  O70      1.0000 0.59935  0.46259  0.84711  Biso   1.000  O
  H180     1.0000 0.62555  0.40699  0.78910  Biso   1.000  H
  C128     1.0000 0.68066  0.51658  0.78440  Biso   1.000  C
  C129     1.0000 0.50601  0.74823  0.76341  Biso   1.000  C
  H181     1.0000 0.64954  0.60160  0.82990  Biso   1.000  H
  O71      1.0000 0.71930  0.65271  0.78001  Biso   1.000  O
  C130     1.0000 0.60495  0.39199  0.87229  Biso   1.000  C
  H182     1.0000 0.68930  0.51289  0.75071  Biso   1.000  H
  O72      1.0000 0.76514  0.49697  0.80591  Biso   1.000  O
  H183     1.0000 0.52330  0.73167  0.73200  Biso   1.000  H
  O73      1.0000 0.40881  0.76161  0.76497  Biso   1.000  O
  C131     1.0000 0.55870  0.82142  0.77521  Biso   1.000  C
  H184     1.0000 0.69739  0.69741  0.78229  Biso   1.000  H
  C132     1.0000 0.68418  0.39978  0.90571  Biso   1.000  C
  H185     1.0000 0.61719  0.34810  0.85110  Biso   1.000  H
  C133     1.0000 0.51569  0.37832  0.89771  Biso   1.000  C
  H186     1.0000 0.80918  0.51901  0.79250  Biso   1.000  H
  C134     1.0000 0.37721  0.78381  0.80962  Biso   1.000  C
  H187     1.0000 0.54667  0.86070  0.75088  Biso   1.000  H
  O74      1.0000 0.65507  0.80400  0.77559  Biso   1.000  O
  C135     1.0000 0.52676  0.85372  0.82030  Biso   1.000  C
  C136     1.0000 0.68709  0.32930  0.93650  Biso   1.000  C
  H188     1.0000 0.67270  0.44633  0.92511  Biso   1.000  H
  O75      1.0000 0.77019  0.40982  0.88301  Biso   1.000  O
  O76      1.0000 0.52288  0.31170  0.92660  Biso   1.000  O
  H189     1.0000 0.50567  0.42389  0.91799  Biso   1.000  H
  C137     1.0000 0.42416  0.36552  0.87039  Biso   1.000  C
  C138     1.0000 0.42201  0.85961  0.82381  Biso   1.000  C
  H190     1.0000 0.39609  0.74298  0.83180  Biso   1.000  H
  C139     1.0000 0.27268  0.78578  0.80740  Biso   1.000  C
  H191     1.0000 0.67706  0.81398  0.80142  Biso   1.000  H
  H192     1.0000 0.54798  0.81733  0.84449  Biso   1.000  H
  O77      1.0000 0.56651  0.92807  0.83010  Biso   1.000  O
  C140     1.0000 0.59396  0.31638  0.95849  Biso   1.000  C
  H193     1.0000 0.70375  0.28292  0.91789  Biso   1.000  H
  O78      1.0000 0.75456  0.34043  0.97050  Biso   1.000  O
  H194     1.0000 0.76079  0.41530  0.85501  Biso   1.000  H
  H195     1.0000 0.37161  0.35583  0.89121  Biso   1.000  H
  H196     1.0000 0.40978  0.41091  0.85130  Biso   1.000  H
  O79      1.0000 0.44220  0.30069  0.84341  Biso   1.000  O
  O80      1.0000 0.40169  0.87731  0.86869  Biso   1.000  O
  H197     1.0000 0.39947  0.90200  0.80359  Biso   1.000  H
  H198     1.0000 0.24952  0.73542  0.79641  Biso   1.000  H
  H199     1.0000 0.24737  0.79460  0.83830  Biso   1.000  H
  O81      1.0000 0.24150  0.84571  0.77749  Biso   1.000  O
  H200     1.0000 0.62431  0.92398  0.83190  Biso   1.000  H
  O82      1.0000 0.57730  0.37798  0.99003  Biso   1.000  O
  H201     1.0000 0.59617  0.26683  0.97581  Biso   1.000  H
  H202     1.0000 0.79681  0.36892  0.96049  Biso   1.000  H
  H203     1.0000 0.42886  0.26048  0.85800  Biso   1.000  H
  C141     1.0000 0.33428  0.93488  0.87890  Biso   1.000  C
  H204     1.0000 0.24288  0.82979  0.75061  Biso   1.000  H
  C142     1.0000 0.55821  0.35669  0.03631  Biso   1.000  C
  H205     1.0000 0.31388  0.96003  0.85001  Biso   1.000  H
  O83      1.0000 0.25636  0.90067  0.90040  Biso   1.000  O
  C143     1.0000 0.37832  0.99469  0.90921  Biso   1.000  C
  C144     1.0000 0.62756  0.39649  0.06618  Biso   1.000  C
  H206     1.0000 0.56506  0.29959  0.03971  Biso   1.000  H
  C145     1.0000 0.45928  0.37971  0.04829  Biso   1.000  C
  C146     1.0000 0.27938  0.86370  0.94260  Biso   1.000  C
  C147     1.0000 0.40348  0.95968  0.95481  Biso   1.000  C
  H207     1.0000 0.33172  0.03628  0.91480  Biso   1.000  H
  O84      1.0000 0.45527  0.02849  0.88611  Biso   1.000  O
  C148     1.0000 0.60371  0.38651  0.11610  Biso   1.000  C
  H208     1.0000 0.62756  0.45279  0.05890  Biso   1.000  H
  O85      1.0000 0.71820  0.36708  0.05979  Biso   1.000  O
  O86      1.0000 0.44310  0.36638  0.09558  Biso   1.000  O
  H209     1.0000 0.44918  0.43543  0.04111  Biso   1.000  H
  C149     1.0000 0.38862  0.33062  0.02331  Biso   1.000  C
  C150     1.0000 0.31941  0.92202  0.97550  Biso   1.000  C
  H210     1.0000 0.32640  0.82258  0.93681  Biso   1.000  H
  C151     1.0000 0.19013  0.82633  0.95838  Biso   1.000  C
  H211     1.0000 0.45299  0.92011  0.95039  Biso   1.000  H
  O87      1.0000 0.43750  0.02019  0.98319  Biso   1.000  O
  H212     1.0000 0.47905  0.99579  0.86859  Biso   1.000  H
  C152     1.0000 0.50235  0.40809  0.12529  Biso   1.000  C
  H213     1.0000 0.61097  0.33051  0.12359  Biso   1.000  H
  O88      1.0000 0.66365  0.42799  0.14499  Biso   1.000  O
  H214     1.0000 0.73265  0.37083  0.03219  Biso   1.000  H
  H215     1.0000 0.39540  0.33818  0.99010  Biso   1.000  H
  H216     1.0000 0.32550  0.34689  0.03209  Biso   1.000  H
  O89      1.0000 0.40120  0.24958  0.03420  Biso   1.000  O
  H217     1.0000 0.27192  0.96239  0.98220  Biso   1.000  H
  O90      1.0000 0.34679  0.88643  0.01671  Biso   1.000  O
  H218     1.0000 0.14118  0.86618  0.95900  Biso   1.000  H
  H219     1.0000 0.19891  0.80793  0.99000  Biso   1.000  H
  S5       1.0000 0.15010  0.74696  0.92449  Biso   1.000  S
  H220     1.0000 0.45409  0.00179  0.00830  Biso   1.000  H
  O91      1.0000 0.49426  0.48751  0.11787  Biso   1.000  O
  H221     1.0000 0.48631  0.39592  0.15762  Biso   1.000  H
  H222     1.0000 0.65279  0.47540  0.14261  Biso   1.000  H
  H223     1.0000 0.37127  0.22247  0.01558  Biso   1.000  H
  C153     1.0000 0.31271  0.91509  0.05791  Biso   1.000  C
  C154     1.0000 0.24392  0.68149  0.93388  Biso   1.000  C
  C155     1.0000 0.45216  0.53493  0.15210  Biso   1.000  C
  H224     1.0000 0.28422  0.96672  0.05189  Biso   1.000  H
  O92      1.0000 0.24288  0.86578  0.07670  Biso   1.000  O
  C156     1.0000 0.38986  0.92600  0.09130  Biso   1.000  C
  H225     1.0000 0.29162  0.69008  0.91030  Biso   1.000  H
  H226     1.0000 0.27212  0.69291  0.96390  Biso   1.000  H
  C157     1.0000 0.21488  0.59803  0.93290  Biso   1.000  C
  C158     1.0000 0.51728  0.60028  0.16170  Biso   1.000  C
  H227     1.0000 0.44365  0.50378  0.18052  Biso   1.000  H
  C159     1.0000 0.35758  0.56250  0.13529  Biso   1.000  C
  C160     1.0000 0.27779  0.79068  0.08748  Biso   1.000  C
  H228     1.0000 0.36401  0.95161  0.11899  Biso   1.000  H
  O93      1.0000 0.45810  0.97502  0.07272  Biso   1.000  O
  C161     1.0000 0.42976  0.84882  0.10538  Biso   1.000  C
  C162     1.0000 0.18881  0.56123  0.97080  Biso   1.000  C
  C163     1.0000 0.21612  0.55771  0.89309  Biso   1.000  C
  C164     1.0000 0.47228  0.66101  0.19192  Biso   1.000  C
  H229     1.0000 0.53561  0.62479  0.13220  Biso   1.000  H
  O94      1.0000 0.59748  0.56982  0.18300  Biso   1.000  O
  O95      1.0000 0.32176  0.61908  0.16629  Biso   1.000  O
  H230     1.0000 0.36477  0.58638  0.10450  Biso   1.000  H
  C165     1.0000 0.28602  0.50078  0.13301  Biso   1.000  C
  C166     1.0000 0.35350  0.79668  0.12229  Biso   1.000  C
  H231     1.0000 0.30268  0.76611  0.05931  Biso   1.000  H
  C167     1.0000 0.19469  0.74373  0.10501  Biso   1.000  C
  H232     1.0000 0.49136  0.99250  0.09371  Biso   1.000  H
  H233     1.0000 0.45942  0.82431  0.07830  Biso   1.000  H
  O96      1.0000 0.49779  0.85891  0.13972  Biso   1.000  O
  H234     1.0000 0.18356  0.58978  0.99820  Biso   1.000  H
  C168     1.0000 0.16897  0.48249  0.97159  Biso   1.000  C
  C169     1.0000 0.19587  0.48019  0.89210  Biso   1.000  C
  H235     1.0000 0.23113  0.58361  0.86559  Biso   1.000  H
  C170     1.0000 0.37922  0.68403  0.17238  Biso   1.000  C
  H236     1.0000 0.46177  0.63760  0.22261  Biso   1.000  H
  O97      1.0000 0.53256  0.72498  0.19719  Biso   1.000  O
  H237     1.0000 0.64291  0.59872  0.17769  Biso   1.000  H
  H238     1.0000 0.31112  0.45619  0.11600  Biso   1.000  H
  H239     1.0000 0.27109  0.48330  0.16422  Biso   1.000  H
  O98      1.0000 0.20478  0.52650  0.11161  Biso   1.000  O
  O99      1.0000 0.39526  0.72181  0.13009  Biso   1.000  O
  H240     1.0000 0.32792  0.81721  0.15149  Biso   1.000  H
  H241     1.0000 0.16137  0.77580  0.12750  Biso   1.000  H
  H242     1.0000 0.21916  0.69822  0.12151  Biso   1.000  H
  S6       1.0000 0.11297  0.71045  0.06455  Biso   1.000  S
  H243     1.0000 0.54978  0.84622  0.12930  Biso   1.000  H
  H244     1.0000 0.15286  0.45838  0.99949  Biso   1.000  H
  C171     1.0000 0.17243  0.44010  0.93300  Biso   1.000  C
  H245     1.0000 0.19752  0.45308  0.86399  Biso   1.000  H
  H246     1.0000 0.34838  0.72083  0.19379  Biso   1.000  H
  H247     1.0000 0.50636  0.76513  0.18759  Biso   1.000  H
  H248     1.0000 0.16558  0.49068  0.11130  Biso   1.000  H
  C172     1.0000 0.03920  0.78941  0.05169  Biso   1.000  C
  C173     1.0000 0.15169  0.35462  0.93099  Biso   1.000  C
  C174     1.0000 0.99392  0.80793  0.01222  Biso   1.000  C
  C175     1.0000 0.99350  0.77511  0.01068  Biso   1.000  C
  C176     1.0000 0.01853  0.84813  0.08439  Biso   1.000  C
  C177     1.0000 0.04038  0.85597  0.07561  Biso   1.000  C
  H249     1.0000 0.15570  0.33679  0.89952  Biso   1.000  H
  H250     1.0000 0.08933  0.34510  0.94270  Biso   1.000  H
  H251     1.0000 0.19670  0.32658  0.94971  Biso   1.000  H
  H252     1.0000 0.00242  0.77309  0.98772  Biso   1.000  H
  C178     1.0000 0.93847  0.83480  0.99340  Biso   1.000  C
  C179     1.0000 0.93653  0.87132  0.00330  Biso   1.000  C
  H253     1.0000 0.99952  0.72717  0.99530  Biso   1.000  H
  C180     1.0000 0.96045  0.91267  0.07922  Biso   1.000  C
  C181     1.0000 0.97836  0.91031  0.05791  Biso   1.000  C
  H254     1.0000 0.04743  0.84282  0.11331  Biso   1.000  H
  H255     1.0000 0.07882  0.86503  0.10120  Biso   1.000  H
  H256     1.0000 0.90881  0.87760  0.97421  Biso   1.000  H
  H257     1.0000 0.90452  0.82742  0.96601  Biso   1.000  H
  C182     1.0000 0.93356  0.90402  0.01599  Biso   1.000  C
  C183     1.0000 0.92111  0.92409  0.03709  Biso   1.000  C
  H258     1.0000 0.94891  0.94711  0.10372  Biso   1.000  H
  H259     1.0000 0.96571  0.95472  0.07581  Biso   1.000  H
  H260     1.0000 0.90051  0.94642  0.00350  Biso   1.000  H
  H261     1.0000 0.88364  0.96810  0.03151  Biso   1.000  H
  O100     1.0000 0.74150  0.65432  0.22251  Biso   1.000  O
  C184     1.0000 0.77268  0.71420  0.19260  Biso   1.000  C
  H262     1.0000 0.74288  0.67019  0.24939  Biso   1.000  H
  C185     1.0000 0.87714  0.71621  0.19038  Biso   1.000  C
  H263     1.0000 0.74945  0.76461  0.20359  Biso   1.000  H
  H264     1.0000 0.74737  0.70543  0.16170  Biso   1.000  H
  O101     1.0000 0.90874  0.73842  0.23503  Biso   1.000  O
  C186     1.0000 0.92194  0.64042  0.17619  Biso   1.000  C
  H265     1.0000 0.89609  0.75699  0.16820  Biso   1.000  H
  C187     1.0000 0.00595  0.75180  0.23659  Biso   1.000  C
  O102     1.0000 0.90169  0.62271  0.13131  Biso   1.000  O
  H266     1.0000 0.89947  0.59803  0.19641  Biso   1.000  H
  C188     1.0000 0.02676  0.64631  0.17970  Biso   1.000  C
  O103     1.0000 0.03132  0.81110  0.20542  Biso   1.000  O
  H267     1.0000 0.02323  0.76830  0.26800  Biso   1.000  H
  C189     1.0000 0.05863  0.67861  0.22479  Biso   1.000  C
  C190     1.0000 0.83428  0.56509  0.12110  Biso   1.000  C
  H268     1.0000 0.04791  0.68270  0.15551  Biso   1.000  H
  O104     1.0000 0.06644  0.57190  0.16990  Biso   1.000  O
  C191     1.0000 0.05794  0.88441  0.22220  Biso   1.000  C
  H269     1.0000 0.04660  0.63933  0.24912  Biso   1.000  H
  O105     1.0000 0.15501  0.69603  0.22441  Biso   1.000  O
  H270     1.0000 0.81388  0.54000  0.14999  Biso   1.000  H
  O106     1.0000 0.75636  0.59930  0.09960  Biso   1.000  O
  C192     1.0000 0.87825  0.50528  0.09079  Biso   1.000  C
  H271     1.0000 0.12424  0.57599  0.16810  Biso   1.000  H
  C193     1.0000 0.98818  0.94618  0.21019  Biso   1.000  C
  C194     1.0000 0.15224  0.90258  0.20399  Biso   1.000  C
  H272     1.0000 0.06215  0.88112  0.25609  Biso   1.000  H
  H273     1.0000 0.17699  0.68599  0.19858  Biso   1.000  H
  C195     1.0000 0.77938  0.63633  0.05740  Biso   1.000  C
  H274     1.0000 0.83165  0.46369  0.08520  Biso   1.000  H
  O107     1.0000 0.95527  0.47148  0.11389  Biso   1.000  O
  C196     1.0000 0.90348  0.54029  0.04519  Biso   1.000  C
  H275     1.0000 0.97788  0.94492  0.17660  Biso   1.000  H
  C197     1.0000 0.89394  0.93701  0.23390  Biso   1.000  C
  O108     1.0000 0.02282  0.02128  0.22220  Biso   1.000  O
  C198     1.0000 0.18066  0.98339  0.21560  Biso   1.000  C
  H276     1.0000 0.14954  0.89843  0.17010  Biso   1.000  H
  O109     1.0000 0.21923  0.84732  0.21999  Biso   1.000  O
  C199     1.0000 0.81934  0.57801  0.02450  Biso   1.000  C
  H277     1.0000 0.82640  0.67740  0.06319  Biso   1.000  H
  C200     1.0000 0.69006  0.67370  0.04162  Biso   1.000  C
  H278     1.0000 0.97905  0.50418  0.13141  Biso   1.000  H
  H279     1.0000 0.95299  0.57992  0.04961  Biso   1.000  H
  O110     1.0000 0.93750  0.47978  0.01681  Biso   1.000  O
  H280     1.0000 0.85198  0.97877  0.22390  Biso   1.000  H
  H281     1.0000 0.86594  0.88712  0.22499  Biso   1.000  H
  O111     1.0000 0.90397  0.93961  0.28161  Biso   1.000  O
  C201     1.0000 0.10675  0.03991  0.20141  Biso   1.000  C
  H282     1.0000 0.18923  0.98708  0.24929  Biso   1.000  H
  O112     1.0000 0.26514  0.00300  0.19409  Biso   1.000  O
  H283     1.0000 0.19732  0.80262  0.21771  Biso   1.000  H
  H284     1.0000 0.77185  0.53758  0.01780  Biso   1.000  H
  O113     1.0000 0.84679  0.61360  0.98329  Biso   1.000  O
  H285     1.0000 0.64118  0.63379  0.04100  Biso   1.000  H
  H286     1.0000 0.69891  0.69210  0.01000  Biso   1.000  H
  S7       1.0000 0.65010  0.75301  0.07551  Biso   1.000  S
  H287     1.0000 0.95409  0.49818  0.99170  Biso   1.000  H
  H288     1.0000 0.91185  0.98552  0.28991  Biso   1.000  H
  O114     1.0000 0.09935  0.03738  0.15289  Biso   1.000  O
  H289     1.0000 0.12555  0.09298  0.21090  Biso   1.000  H
  H290     1.0000 0.30911  0.98102  0.20750  Biso   1.000  H
  C202     1.0000 0.81264  0.58488  0.94209  Biso   1.000  C
  C203     1.0000 0.74385  0.81848  0.06612  Biso   1.000  C
  C204     1.0000 0.10495  0.10798  0.12771  Biso   1.000  C
  H291     1.0000 0.78415  0.53331  0.94811  Biso   1.000  H
  O115     1.0000 0.74288  0.63419  0.92330  Biso   1.000  O
  C205     1.0000 0.88986  0.57397  0.90870  Biso   1.000  C
  H292     1.0000 0.79155  0.80989  0.08970  Biso   1.000  H
  H293     1.0000 0.77205  0.80712  0.03610  Biso   1.000  H
  C206     1.0000 0.71488  0.90200  0.06710  Biso   1.000  C
  C207     1.0000 0.18411  0.10019  0.09429  Biso   1.000  C
  H294     1.0000 0.11712  0.15187  0.14890  Biso   1.000  H
  C208     1.0000 0.01562  0.12171  0.10229  Biso   1.000  C
  C209     1.0000 0.77779  0.70929  0.91252  Biso   1.000  C
  H295     1.0000 0.86394  0.54842  0.88101  Biso   1.000  H
  O116     1.0000 0.95803  0.52500  0.92728  Biso   1.000  O
  C210     1.0000 0.92976  0.65121  0.89462  Biso   1.000  C
  C211     1.0000 0.68874  0.93880  0.02920  Biso   1.000  C
  C212     1.0000 0.71605  0.94232  0.10691  Biso   1.000  C
  C213     1.0000 0.18702  0.17068  0.06350  Biso   1.000  C
  H296     1.0000 0.17264  0.05370  0.07489  Biso   1.000  H
  O117     1.0000 0.27012  0.09021  0.11699  Biso   1.000  O
  C214     1.0000 0.92416  0.13451  0.12961  Biso   1.000  C
  O118     1.0000 0.02282  0.18833  0.07340  Biso   1.000  O
  H297     1.0000 0.00560  0.07608  0.08201  Biso   1.000  H
  C215     1.0000 0.85350  0.70329  0.87771  Biso   1.000  C
  H298     1.0000 0.80268  0.73392  0.94069  Biso   1.000  H
  C216     1.0000 0.69469  0.75630  0.89499  Biso   1.000  C
  H299     1.0000 0.99136  0.50753  0.90629  Biso   1.000  H
  H300     1.0000 0.95935  0.67572  0.92170  Biso   1.000  H
  O119     1.0000 0.99779  0.64111  0.86028  Biso   1.000  O
  H301     1.0000 0.68356  0.91019  0.00180  Biso   1.000  H
  C217     1.0000 0.66897  0.01748  0.02841  Biso   1.000  C
  H302     1.0000 0.73106  0.91642  0.13441  Biso   1.000  H
  C218     1.0000 0.69587  0.01978  0.10790  Biso   1.000  C
  C219     1.0000 0.09396  0.18360  0.04151  Biso   1.000  C
  H303     1.0000 0.20375  0.21711  0.08211  Biso   1.000  H
  O120     1.0000 0.25449  0.15960  0.02950  Biso   1.000  O
  H304     1.0000 0.26072  0.08467  0.14499  Biso   1.000  H
  H305     1.0000 0.87154  0.14420  0.10879  Biso   1.000  H
  H306     1.0000 0.90978  0.08912  0.14870  Biso   1.000  H
  O121     1.0000 0.94220  0.19928  0.15659  Biso   1.000  O
  O122     1.0000 0.89526  0.77822  0.86991  Biso   1.000  O
  H307     1.0000 0.82785  0.68282  0.84851  Biso   1.000  H
  H308     1.0000 0.66137  0.72417  0.87250  Biso   1.000  H
  H309     1.0000 0.71916  0.80181  0.87849  Biso   1.000  H
  S8       1.0000 0.61290  0.78958  0.93545  Biso   1.000  S
  H310     1.0000 0.04971  0.65380  0.87070  Biso   1.000  H
  H311     1.0000 0.65286  0.04159  0.00051  Biso   1.000  H
  C220     1.0000 0.67236  0.05987  0.06700  Biso   1.000  C
  H312     1.0000 0.69746  0.04689  0.13601  Biso   1.000  H
  O123     1.0000 0.07723  0.12199  0.00997  Biso   1.000  O
  H313     1.0000 0.09610  0.23320  0.02419  Biso   1.000  H
  H314     1.0000 0.29674  0.13111  0.03951  Biso   1.000  H
  H315     1.0000 0.92886  0.23949  0.14200  Biso   1.000  H
  C221     1.0000 0.87915  0.81600  0.82762  Biso   1.000  C
  C222     1.0000 0.53920  0.71062  0.94831  Biso   1.000  C
  C223     1.0000 0.65169  0.14541  0.06901  Biso   1.000  C
  C224     1.0000 0.05814  0.14328  0.96369  Biso   1.000  C
  H316     1.0000 0.84838  0.77920  0.80621  Biso   1.000  H
  O124     1.0000 0.82176  0.88089  0.83371  Biso   1.000  O
  C225     1.0000 0.97228  0.83901  0.80808  Biso   1.000  C
  C226     1.0000 0.49392  0.69210  0.98778  Biso   1.000  C
  C227     1.0000 0.51846  0.65190  0.91561  Biso   1.000  C
  C228     1.0000 0.49350  0.72492  0.98932  Biso   1.000  C
  C229     1.0000 0.54038  0.64400  0.92439  Biso   1.000  C
  H317     1.0000 0.65570  0.16318  0.10048  Biso   1.000  H
  H318     1.0000 0.58926  0.15493  0.05730  Biso   1.000  H
  H319     1.0000 0.69670  0.17339  0.05029  Biso   1.000  H
  C230     1.0000 0.95928  0.12032  0.95171  Biso   1.000  C
  C231     1.0000 0.12756  0.10348  0.93382  Biso   1.000  C
  H320     1.0000 0.06506  0.20038  0.96029  Biso   1.000  H
  C232     1.0000 0.85758  0.93747  0.86471  Biso   1.000  C
  H321     1.0000 0.96177  0.86238  0.77739  Biso   1.000  H
  O125     1.0000 0.03256  0.77499  0.80281  Biso   1.000  O
  C233     1.0000 0.01722  0.89969  0.83830  Biso   1.000  C
  H322     1.0000 0.50235  0.72688  0.01228  Biso   1.000  H
  C234     1.0000 0.43840  0.66522  0.00660  Biso   1.000  C
  C235     1.0000 0.43646  0.62871  0.99670  Biso   1.000  C
  C236     1.0000 0.46038  0.58730  0.92078  Biso   1.000  C
  H323     1.0000 0.54736  0.65721  0.88669  Biso   1.000  H
  C237     1.0000 0.47829  0.58972  0.94209  Biso   1.000  C
  H324     1.0000 0.57875  0.63500  0.89880  Biso   1.000  H
  H325     1.0000 0.49952  0.77280  0.00470  Biso   1.000  H
  O126     1.0000 0.94310  0.13359  0.90442  Biso   1.000  O
  H326     1.0000 0.94918  0.06460  0.95889  Biso   1.000  H
  C238     1.0000 0.88855  0.16941  0.97669  Biso   1.000  C
  C239     1.0000 0.10364  0.11351  0.88390  Biso   1.000  C
  H327     1.0000 0.12756  0.04718  0.94110  Biso   1.000  H
  O127     1.0000 0.21813  0.13289  0.94021  Biso   1.000  O
  C240     1.0000 0.95216  0.96510  0.84790  Biso   1.000  C
  H328     1.0000 0.86477  0.91360  0.89550  Biso   1.000  H
  C241     1.0000 0.78595  0.99919  0.86699  Biso   1.000  C
  H329     1.0000 0.00636  0.73490  0.81241  Biso   1.000  H
  H330     1.0000 0.03554  0.87518  0.86780  Biso   1.000  H
  O128     1.0000 0.09741  0.93021  0.81700  Biso   1.000  O
  H331     1.0000 0.40881  0.62243  0.02579  Biso   1.000  H
  H332     1.0000 0.40445  0.67261  0.03399  Biso   1.000  H
  C242     1.0000 0.43349  0.59601  0.98401  Biso   1.000  C
  C243     1.0000 0.42111  0.57588  0.96291  Biso   1.000  C
  H333     1.0000 0.44891  0.55292  0.89628  Biso   1.000  H
  H334     1.0000 0.46571  0.54531  0.92419  Biso   1.000  H
  C244     1.0000 0.00235  0.09188  0.87471  Biso   1.000  C
  H335     1.0000 0.82550  0.15308  0.96791  Biso   1.000  H
  O129     1.0000 0.90120  0.25039  0.96580  Biso   1.000  O
  H336     1.0000 0.89540  0.16179  0.00990  Biso   1.000  H
  H337     1.0000 0.11090  0.16952  0.87641  Biso   1.000  H
  O130     1.0000 0.16365  0.07198  0.85501  Biso   1.000  O
  H338     1.0000 0.23265  0.12920  0.96781  Biso   1.000  H
  H339     1.0000 0.94365  0.99619  0.81948  Biso   1.000  H
  O131     1.0000 0.99426  0.01252  0.88213  Biso   1.000  O
  O132     1.0000 0.70478  0.97352  0.88839  Biso   1.000  O
  H340     1.0000 0.81105  0.04378  0.88400  Biso   1.000  H
  H341     1.0000 0.77109  0.01673  0.83578  Biso   1.000  H
  H342     1.0000 0.14284  0.90131  0.82231  Biso   1.000  H
  H343     1.0000 0.40051  0.55361  0.99650  Biso   1.000  H
  H344     1.0000 0.38357  0.53193  0.96849  Biso   1.000  H
  H345     1.0000 0.98624  0.10411  0.84238  Biso   1.000  H
  H346     1.0000 0.87127  0.27750  0.98442  Biso   1.000  H
  H347     1.0000 0.15272  0.02457  0.85739  Biso   1.000  H
  H348     1.0000 0.66558  0.00929  0.88870  Biso   1.000  H
  Ne1      1.0000 0.11259  0.34795  0.46889  Biso   1.000  Ne
  He1      1.0000 0.98965  0.38160  0.43160  Biso   1.000  He
  He2      1.0000 0.26489  0.57081  0.55267  Biso   1.000  He
  Ar1      1.0000 0.06613  0.38671  0.49176  Biso   1.000  Ar
  Ne2      1.0000 0.61256  0.15205  0.53111  Biso   1.000  Ne
  He3      1.0000 0.54672  0.11065  0.49498  Biso   1.000  He
  He4      1.0000 0.77090  0.92415  0.44567  Biso   1.000  He
  Ar2      1.0000 0.56607  0.11326  0.50822  Biso   1.000  Ar
  Ne3      1.0000 0.88738  0.84795  0.03111  Biso   1.000  Ne
  He5      1.0000 0.95135  0.89017  0.99489  Biso   1.000  He
  He6      1.0000 0.73077  0.07442  0.94615  Biso   1.000  He
  Ar3      1.0000 0.93388  0.88675  0.00822  Biso   1.000  Ar
  Ne4      1.0000 0.38741  0.65205  0.96889  Biso   1.000  Ne
  He7      1.0000 0.50264  0.61389  0.92997  Biso   1.000  He
  He8      1.0000 0.23069  0.42549  0.05389  Biso   1.000  He
  Ar4      1.0000 0.43387  0.61329  0.99176  Biso   1.000  Ar
