data_image0
_cell_length_a       42.201
_cell_length_b       15.139
_cell_length_c       25.498
_cell_angle_alpha    90
_cell_angle_beta     104.65
_cell_angle_gamma    90

_symmetry_space_group_name_H-M    "P 1"
_symmetry_int_tables_number       1

loop_
  _symmetry_equiv_pos_as_xyz
  'x, y, z'

loop_
  _atom_site_label
  _atom_site_occupancy
  _atom_site_fract_x
  _atom_site_fract_y
  _atom_site_fract_z
  _atom_site_thermal_displace_type
  _atom_site_B_iso_or_equiv
  _atom_site_type_symbol
  C1       1.0000 0.53768  0.53603  0.54250  Biso   1.000  C
  C2       1.0000 0.52715  0.50803  0.58790  Biso   1.000  C
  C3       1.0000 0.55232  0.47619  0.51259  Biso   1.000  C
  O1       1.0000 0.53497  0.62177  0.52357  Biso   1.000  O
  C4       1.0000 0.53087  0.42143  0.60229  Biso   1.000  C
  H1       1.0000 0.51771  0.54858  0.60801  Biso   1.000  H
  C5       1.0000 0.55552  0.38992  0.52981  Biso   1.000  C
  C6       1.0000 0.56186  0.50763  0.46350  Biso   1.000  C
  C7       1.0000 0.52071  0.68360  0.55178  Biso   1.000  C
  C8       1.0000 0.52104  0.38087  0.65029  Biso   1.000  C
  C9       1.0000 0.54535  0.35967  0.57461  Biso   1.000  C
  H2       1.0000 0.56511  0.34877  0.51019  Biso   1.000  H
  C10      1.0000 0.59731  0.54779  0.47699  Biso   1.000  C
  H3       1.0000 0.56071  0.45749  0.43812  Biso   1.000  H
  H4       1.0000 0.54599  0.55301  0.44509  Biso   1.000  H
  H5       1.0000 0.51999  0.74153  0.53439  Biso   1.000  H
  H6       1.0000 0.49841  0.66471  0.55130  Biso   1.000  H
  H7       1.0000 0.53380  0.68763  0.58940  Biso   1.000  H
  C11      1.0000 0.49803  0.30352  0.62621  Biso   1.000  C
  H8       1.0000 0.51099  0.42420  0.67088  Biso   1.000  H
  C12      1.0000 0.55247  0.33582  0.68552  Biso   1.000  C
  C13      1.0000 0.54695  0.26600  0.59670  Biso   1.000  C
  C14      1.0000 0.60110  0.63762  0.48632  Biso   1.000  C
  C15      1.0000 0.62439  0.49481  0.47959  Biso   1.000  C
  C16      1.0000 0.46667  0.29077  0.63160  Biso   1.000  C
  C17      1.0000 0.51220  0.24301  0.59751  Biso   1.000  C
  C18      1.0000 0.56649  0.27479  0.65661  Biso   1.000  C
  C19      1.0000 0.56659  0.35088  0.73919  Biso   1.000  C
  H9       1.0000 0.55680  0.22287  0.57570  Biso   1.000  H
  C20      1.0000 0.63219  0.67382  0.49888  Biso   1.000  C
  H10      1.0000 0.58251  0.67422  0.48389  Biso   1.000  H
  O2       1.0000 0.61847  0.40538  0.47112  Biso   1.000  O
  C21      1.0000 0.65610  0.53273  0.49021  Biso   1.000  C
  C22      1.0000 0.44829  0.21758  0.60651  Biso   1.000  C
  H11      1.0000 0.45750  0.33120  0.65219  Biso   1.000  H
  C23      1.0000 0.49460  0.17082  0.57339  Biso   1.000  C
  C24      1.0000 0.59454  0.23040  0.68138  Biso   1.000  C
  C25      1.0000 0.59542  0.30629  0.76501  Biso   1.000  C
  H12      1.0000 0.55690  0.39157  0.75889  Biso   1.000  H
  C26      1.0000 0.64115  0.77231  0.51161  Biso   1.000  C
  C27      1.0000 0.65952  0.62250  0.49970  Biso   1.000  C
  C28      1.0000 0.64556  0.34738  0.47939  Biso   1.000  C
  H13      1.0000 0.67471  0.49699  0.49070  Biso   1.000  H
  C29      1.0000 0.46150  0.15932  0.57870  Biso   1.000  C
  H14      1.0000 0.42639  0.20972  0.60931  Biso   1.000  H
  H15      1.0000 0.50400  0.12953  0.55361  Biso   1.000  H
  H16      1.0000 0.60401  0.18878  0.66180  Biso   1.000  H
  C30      1.0000 0.60904  0.24777  0.73611  Biso   1.000  C
  C31      1.0000 0.61238  0.32591  0.82419  Biso   1.000  C
  C32      1.0000 0.66690  0.77502  0.56459  Biso   1.000  C
  C33      1.0000 0.65829  0.79893  0.46791  Biso   1.000  C
  H17      1.0000 0.62170  0.80989  0.51161  Biso   1.000  H
  C34      1.0000 0.69140  0.67290  0.51032  Biso   1.000  C
  H18      1.0000 0.65609  0.35372  0.44951  Biso   1.000  H
  H19      1.0000 0.66130  0.36191  0.51368  Biso   1.000  H
  H20      1.0000 0.63811  0.28628  0.48068  Biso   1.000  H
  H21      1.0000 0.44899  0.10972  0.56241  Biso   1.000  H
  O3       1.0000 0.63763  0.20807  0.76335  Biso   1.000  O
  H22      1.0000 0.62551  0.27373  0.84000  Biso   1.000  H
  H23      1.0000 0.59541  0.33490  0.84430  Biso   1.000  H
  C35      1.0000 0.63422  0.40472  0.83250  Biso   1.000  C
  C36      1.0000 0.69385  0.71980  0.56459  Biso   1.000  C
  C37      1.0000 0.66574  0.82218  0.61020  Biso   1.000  C
  C38      1.0000 0.68571  0.74582  0.46791  Biso   1.000  C
  C39      1.0000 0.64845  0.86670  0.43050  Biso   1.000  C
  H24      1.0000 0.71070  0.63478  0.51019  Biso   1.000  H
  C40      1.0000 0.64924  0.13429  0.73760  Biso   1.000  C
  C41      1.0000 0.62238  0.49032  0.83720  Biso   1.000  C
  C42      1.0000 0.66759  0.39527  0.83611  Biso   1.000  C
  C43      1.0000 0.71899  0.71260  0.61129  Biso   1.000  C
  H25      1.0000 0.64779  0.86043  0.60979  Biso   1.000  H
  C44      1.0000 0.69121  0.81333  0.65669  Biso   1.000  C
  C45      1.0000 0.70327  0.76101  0.43042  Biso   1.000  C
  C46      1.0000 0.66704  0.87952  0.39179  Biso   1.000  C
  H26      1.0000 0.63009  0.90277  0.43070  Biso   1.000  H
  H27      1.0000 0.65611  0.15510  0.70578  Biso   1.000  H
  H28      1.0000 0.66791  0.10681  0.76331  Biso   1.000  H
  H29      1.0000 0.63159  0.09089  0.72630  Biso   1.000  H
  O4       1.0000 0.58916  0.49581  0.83335  Biso   1.000  O
  C47      1.0000 0.64378  0.56331  0.84839  Biso   1.000  C
  C48      1.0000 0.68886  0.46707  0.84661  Biso   1.000  C
  H30      1.0000 0.67601  0.33853  0.83120  Biso   1.000  H
  C49      1.0000 0.71809  0.75831  0.65811  Biso   1.000  C
  H31      1.0000 0.73719  0.67567  0.61129  Biso   1.000  H
  O5       1.0000 0.69185  0.85798  0.70461  Biso   1.000  O
  H32      1.0000 0.72189  0.72601  0.43042  Biso   1.000  H
  C50      1.0000 0.69360  0.82852  0.39211  Biso   1.000  C
  H33      1.0000 0.66079  0.92450  0.36519  Biso   1.000  H
  C51      1.0000 0.57498  0.57897  0.83408  Biso   1.000  C
  H34      1.0000 0.63570  0.62058  0.85289  Biso   1.000  H
  C52      1.0000 0.67616  0.55017  0.85281  Biso   1.000  C
  C53      1.0000 0.72582  0.46628  0.85322  Biso   1.000  C
  C54      1.0000 0.74576  0.74767  0.70939  Biso   1.000  C
  C55      1.0000 0.66771  0.92490  0.70201  Biso   1.000  C
  H35      1.0000 0.70580  0.83883  0.36601  Biso   1.000  H
  H36      1.0000 0.57710  0.61292  0.80238  Biso   1.000  H
  H37      1.0000 0.55179  0.57210  0.83319  Biso   1.000  H
  H38      1.0000 0.58620  0.61028  0.86720  Biso   1.000  H
  C56      1.0000 0.70306  0.62131  0.86590  Biso   1.000  C
  H39      1.0000 0.73459  0.40637  0.84831  Biso   1.000  H
  C57      1.0000 0.74028  0.50552  0.90940  Biso   1.000  C
  C58      1.0000 0.73245  0.53458  0.81349  Biso   1.000  C
  C59      1.0000 0.74056  0.67270  0.74498  Biso   1.000  C
  H40      1.0000 0.74799  0.80329  0.73039  Biso   1.000  H
  H41      1.0000 0.76650  0.73770  0.69889  Biso   1.000  H
  H42      1.0000 0.66829  0.96638  0.67279  Biso   1.000  H
  H43      1.0000 0.64591  0.89762  0.69472  Biso   1.000  H
  H44      1.0000 0.67211  0.95667  0.73651  Biso   1.000  H
  C60      1.0000 0.72773  0.58888  0.91690  Biso   1.000  C
  H45      1.0000 0.69421  0.68129  0.87061  Biso   1.000  H
  C61      1.0000 0.72020  0.61801  0.82002  Biso   1.000  C
  C62      1.0000 0.76167  0.46218  0.95152  Biso   1.000  C
  C63      1.0000 0.74806  0.51800  0.77190  Biso   1.000  C
  C64      1.0000 0.72492  0.68558  0.78718  Biso   1.000  C
  C65      1.0000 0.75120  0.58861  0.73862  Biso   1.000  C
  C66      1.0000 0.73771  0.63148  0.96530  Biso   1.000  C
  H46      1.0000 0.76899  0.40412  0.94669  Biso   1.000  H
  C67      1.0000 0.77233  0.50591  0.00158  Biso   1.000  C
  H47      1.0000 0.75610  0.46099  0.76671  Biso   1.000  H
  H48      1.0000 0.71739  0.74311  0.79310  Biso   1.000  H
  O6       1.0000 0.76748  0.57738  0.69711  Biso   1.000  O
  H49      1.0000 0.73010  0.68941  0.96980  Biso   1.000  H
  C68      1.0000 0.75956  0.58782  0.00859  Biso   1.000  C
  H50      1.0000 0.78820  0.47929  0.03040  Biso   1.000  H
  C69      1.0000 0.76473  0.49310  0.67121  Biso   1.000  C
  H51      1.0000 0.76559  0.61523  0.04321  Biso   1.000  H
  H52      1.0000 0.76900  0.49931  0.63541  Biso   1.000  H
  H53      1.0000 0.78069  0.45228  0.69330  Biso   1.000  H
  H54      1.0000 0.74250  0.46991  0.66711  Biso   1.000  H
  C70      1.0000 0.46232  0.46397  0.45750  Biso   1.000  C
  C71      1.0000 0.44767  0.52381  0.48741  Biso   1.000  C
  O7       1.0000 0.46502  0.37823  0.47643  Biso   1.000  O
  C72      1.0000 0.47284  0.49197  0.41210  Biso   1.000  C
  C73      1.0000 0.43814  0.49237  0.53650  Biso   1.000  C
  C74      1.0000 0.44449  0.61008  0.47018  Biso   1.000  C
  C75      1.0000 0.47931  0.31640  0.44821  Biso   1.000  C
  H55      1.0000 0.48231  0.45142  0.39199  Biso   1.000  H
  C76      1.0000 0.46913  0.57857  0.39771  Biso   1.000  C
  C77      1.0000 0.40269  0.45221  0.52300  Biso   1.000  C
  H56      1.0000 0.43930  0.54251  0.56192  Biso   1.000  H
  H57      1.0000 0.45401  0.44699  0.55491  Biso   1.000  H
  C78      1.0000 0.45464  0.64033  0.42539  Biso   1.000  C
  H58      1.0000 0.43491  0.65123  0.48980  Biso   1.000  H
  H59      1.0000 0.48000  0.25847  0.46560  Biso   1.000  H
  H60      1.0000 0.50159  0.33529  0.44870  Biso   1.000  H
  H61      1.0000 0.46619  0.31237  0.41060  Biso   1.000  H
  C79      1.0000 0.47895  0.61913  0.34971  Biso   1.000  C
  C80      1.0000 0.39889  0.36238  0.51368  Biso   1.000  C
  C81      1.0000 0.37563  0.50519  0.52041  Biso   1.000  C
  C82      1.0000 0.45304  0.73400  0.40330  Biso   1.000  C
  C83      1.0000 0.44753  0.66418  0.31448  Biso   1.000  C
  H62      1.0000 0.48900  0.57580  0.32912  Biso   1.000  H
  C84      1.0000 0.50197  0.69648  0.37379  Biso   1.000  C
  C85      1.0000 0.36780  0.32618  0.50111  Biso   1.000  C
  H63      1.0000 0.41751  0.32578  0.51611  Biso   1.000  H
  C86      1.0000 0.34389  0.46727  0.50979  Biso   1.000  C
  O8       1.0000 0.38155  0.59462  0.52888  Biso   1.000  O
  C87      1.0000 0.43351  0.72521  0.34339  Biso   1.000  C
  C88      1.0000 0.48780  0.75699  0.40249  Biso   1.000  C
  H64      1.0000 0.44319  0.77713  0.42430  Biso   1.000  H
  C89      1.0000 0.43340  0.64912  0.26081  Biso   1.000  C
  C90      1.0000 0.53332  0.70923  0.36840  Biso   1.000  C
  C91      1.0000 0.35884  0.22769  0.48839  Biso   1.000  C
  C92      1.0000 0.34047  0.37750  0.50030  Biso   1.000  C
  H65      1.0000 0.32531  0.50301  0.50930  Biso   1.000  H
  C93      1.0000 0.35443  0.65262  0.52061  Biso   1.000  C
  C94      1.0000 0.40546  0.76960  0.31862  Biso   1.000  C
  C95      1.0000 0.50539  0.82918  0.42661  Biso   1.000  C
  C96      1.0000 0.40457  0.69371  0.23499  Biso   1.000  C
  H66      1.0000 0.44309  0.60843  0.24111  Biso   1.000  H
  H67      1.0000 0.54250  0.66880  0.34780  Biso   1.000  H
  C97      1.0000 0.55171  0.78242  0.39349  Biso   1.000  C
  C98      1.0000 0.33309  0.22498  0.43540  Biso   1.000  C
  C99      1.0000 0.34173  0.20107  0.53208  Biso   1.000  C
  H68      1.0000 0.37830  0.19011  0.48839  Biso   1.000  H
  C100     1.0000 0.30862  0.32710  0.48968  Biso   1.000  C
  H69      1.0000 0.34390  0.64628  0.55049  Biso   1.000  H
  H70      1.0000 0.33869  0.63809  0.48632  Biso   1.000  H
  H71      1.0000 0.36191  0.71372  0.51932  Biso   1.000  H
  C101     1.0000 0.39096  0.75223  0.26389  Biso   1.000  C
  H72      1.0000 0.39601  0.81122  0.33820  Biso   1.000  H
  C102     1.0000 0.53849  0.84068  0.42130  Biso   1.000  C
  H73      1.0000 0.49600  0.87047  0.44639  Biso   1.000  H
  C103     1.0000 0.38764  0.67409  0.17581  Biso   1.000  C
  H74      1.0000 0.57360  0.79028  0.39069  Biso   1.000  H
  C104     1.0000 0.30615  0.28020  0.43540  Biso   1.000  C
  C105     1.0000 0.33425  0.17782  0.38980  Biso   1.000  C
  C106     1.0000 0.31429  0.25418  0.53208  Biso   1.000  C
  C107     1.0000 0.35155  0.13330  0.56950  Biso   1.000  C
  H75      1.0000 0.28930  0.36522  0.48980  Biso   1.000  H
  O9       1.0000 0.36239  0.79193  0.23665  Biso   1.000  O
  H76      1.0000 0.55100  0.89028  0.43759  Biso   1.000  H
  C108     1.0000 0.36580  0.59528  0.16750  Biso   1.000  C
  H77      1.0000 0.37449  0.72627  0.16000  Biso   1.000  H
  H78      1.0000 0.40459  0.66510  0.15570  Biso   1.000  H
  C109     1.0000 0.28100  0.28740  0.38871  Biso   1.000  C
  C110     1.0000 0.30878  0.18667  0.34330  Biso   1.000  C
  H79      1.0000 0.35220  0.13957  0.39021  Biso   1.000  H
  C111     1.0000 0.29673  0.23899  0.56958  Biso   1.000  C
  C112     1.0000 0.33296  0.12048  0.60821  Biso   1.000  C
  H80      1.0000 0.36990  0.09723  0.56930  Biso   1.000  H
  C113     1.0000 0.35075  0.86571  0.26239  Biso   1.000  C
  C114     1.0000 0.37762  0.50968  0.16280  Biso   1.000  C
  C115     1.0000 0.33241  0.60473  0.16389  Biso   1.000  C
  C116     1.0000 0.28191  0.24169  0.34189  Biso   1.000  C
  H81      1.0000 0.26281  0.32433  0.38871  Biso   1.000  H
  O10      1.0000 0.30814  0.14202  0.29539  Biso   1.000  O
  H82      1.0000 0.27810  0.27399  0.56958  Biso   1.000  H
  C117     1.0000 0.30642  0.17148  0.60789  Biso   1.000  C
  H83      1.0000 0.33920  0.07550  0.63480  Biso   1.000  H
  H84      1.0000 0.34391  0.84490  0.29422  Biso   1.000  H
  H85      1.0000 0.33211  0.89319  0.23669  Biso   1.000  H
  H86      1.0000 0.36840  0.90911  0.27370  Biso   1.000  H
  C118     1.0000 0.35622  0.43669  0.15161  Biso   1.000  C
  O11      1.0000 0.41084  0.50419  0.16665  Biso   1.000  O
  C119     1.0000 0.31116  0.53293  0.15339  Biso   1.000  C
  H87      1.0000 0.32401  0.66147  0.16879  Biso   1.000  H
  C120     1.0000 0.25424  0.25233  0.29061  Biso   1.000  C
  C121     1.0000 0.33231  0.07510  0.29798  Biso   1.000  C
  H88      1.0000 0.29420  0.16117  0.63399  Biso   1.000  H
  C122     1.0000 0.32386  0.44983  0.14719  Biso   1.000  C
  H89      1.0000 0.36430  0.37942  0.14711  Biso   1.000  H
  C123     1.0000 0.42501  0.42103  0.16592  Biso   1.000  C
  C124     1.0000 0.27418  0.53372  0.14678  Biso   1.000  C
  C125     1.0000 0.25944  0.32730  0.25502  Biso   1.000  C
  H90      1.0000 0.25200  0.19671  0.26961  Biso   1.000  H
  H91      1.0000 0.23350  0.26230  0.30111  Biso   1.000  H
  H92      1.0000 0.33170  0.03362  0.32721  Biso   1.000  H
  H93      1.0000 0.35411  0.10238  0.30528  Biso   1.000  H
  H94      1.0000 0.32789  0.04333  0.26349  Biso   1.000  H
  C126     1.0000 0.29693  0.37869  0.13410  Biso   1.000  C
  H95      1.0000 0.42291  0.38708  0.19762  Biso   1.000  H
  H96      1.0000 0.44821  0.42790  0.16681  Biso   1.000  H
  H97      1.0000 0.41379  0.38972  0.13280  Biso   1.000  H
  C127     1.0000 0.26755  0.46542  0.18651  Biso   1.000  C
  C128     1.0000 0.25972  0.49448  0.09060  Biso   1.000  C
  H98      1.0000 0.26540  0.59363  0.15169  Biso   1.000  H
  C129     1.0000 0.27507  0.31442  0.21282  Biso   1.000  C
  C130     1.0000 0.24880  0.41139  0.26138  Biso   1.000  C
  C131     1.0000 0.27980  0.38199  0.17998  Biso   1.000  C
  C132     1.0000 0.27229  0.41112  0.08310  Biso   1.000  C
  H99      1.0000 0.30581  0.31871  0.12939  Biso   1.000  H
  C133     1.0000 0.25196  0.48200  0.22810  Biso   1.000  C
  C134     1.0000 0.23833  0.53782  0.04848  Biso   1.000  C
  H100     1.0000 0.28261  0.25689  0.20690  Biso   1.000  H
  O12      1.0000 0.23251  0.42262  0.30289  Biso   1.000  O
  C135     1.0000 0.26229  0.36852  0.03470  Biso   1.000  C
  H101     1.0000 0.24389  0.53901  0.23329  Biso   1.000  H
  H102     1.0000 0.23101  0.59588  0.05331  Biso   1.000  H
  C136     1.0000 0.22767  0.49409  0.99842  Biso   1.000  C
  C137     1.0000 0.23529  0.50690  0.32879  Biso   1.000  C
  H103     1.0000 0.26989  0.31059  0.03020  Biso   1.000  H
  C138     1.0000 0.24043  0.41218  0.99141  Biso   1.000  C
  H104     1.0000 0.21179  0.52071  0.96960  Biso   1.000  H
  H105     1.0000 0.23099  0.50069  0.36459  Biso   1.000  H
  H106     1.0000 0.21930  0.54772  0.30670  Biso   1.000  H
  H107     1.0000 0.25750  0.53009  0.33289  Biso   1.000  H
  H108     1.0000 0.23441  0.38477  0.95679  Biso   1.000  H
  C139     1.0000 0.57498  0.42103  0.33410  Biso   1.000  C
  O13      1.0000 0.58915  0.50419  0.33337  Biso   1.000  O
  H109     1.0000 0.57710  0.38708  0.30240  Biso   1.000  H
  H110     1.0000 0.55181  0.42790  0.33321  Biso   1.000  H
  H111     1.0000 0.58619  0.38972  0.36718  Biso   1.000  H
  C140     1.0000 0.62239  0.50968  0.33718  Biso   1.000  C
  C141     1.0000 0.63421  0.59528  0.33248  Biso   1.000  C
  C142     1.0000 0.64380  0.43669  0.34841  Biso   1.000  C
  C143     1.0000 0.61237  0.67409  0.32421  Biso   1.000  C
  C144     1.0000 0.66758  0.60473  0.33609  Biso   1.000  C
  H112     1.0000 0.63569  0.37942  0.35291  Biso   1.000  H
  C145     1.0000 0.67615  0.44983  0.35279  Biso   1.000  C
  C146     1.0000 0.59543  0.69371  0.26499  Biso   1.000  C
  H113     1.0000 0.62549  0.72627  0.33998  Biso   1.000  H
  H114     1.0000 0.59540  0.66510  0.34432  Biso   1.000  H
  C147     1.0000 0.68885  0.53293  0.34659  Biso   1.000  C
  H115     1.0000 0.67600  0.66147  0.33118  Biso   1.000  H
  C148     1.0000 0.70305  0.37869  0.36588  Biso   1.000  C
  C149     1.0000 0.56661  0.64912  0.23921  Biso   1.000  C
  C150     1.0000 0.60903  0.75223  0.23609  Biso   1.000  C
  C151     1.0000 0.72580  0.53372  0.35320  Biso   1.000  C
  C152     1.0000 0.72772  0.41112  0.41692  Biso   1.000  C
  H116     1.0000 0.69420  0.31871  0.37059  Biso   1.000  H
  C153     1.0000 0.72019  0.38199  0.32000  Biso   1.000  C
  C154     1.0000 0.55248  0.66418  0.18550  Biso   1.000  C
  H117     1.0000 0.55690  0.60843  0.25891  Biso   1.000  H
  C155     1.0000 0.59456  0.76960  0.18140  Biso   1.000  C
  O14      1.0000 0.63762  0.79193  0.26337  Biso   1.000  O
  H118     1.0000 0.73460  0.59363  0.34829  Biso   1.000  H
  C156     1.0000 0.74030  0.49448  0.40942  Biso   1.000  C
  C157     1.0000 0.73247  0.46542  0.31351  Biso   1.000  C
  C158     1.0000 0.73770  0.36852  0.46528  Biso   1.000  C
  C159     1.0000 0.72491  0.31442  0.28720  Biso   1.000  C
  C160     1.0000 0.52106  0.61913  0.15031  Biso   1.000  C
  C161     1.0000 0.56650  0.72521  0.15659  Biso   1.000  C
  H119     1.0000 0.60400  0.81122  0.16178  Biso   1.000  H
  C162     1.0000 0.64925  0.86571  0.23759  Biso   1.000  C
  C163     1.0000 0.76166  0.53782  0.45150  Biso   1.000  C
  C164     1.0000 0.74805  0.48200  0.27192  Biso   1.000  C
  C165     1.0000 0.75958  0.41218  0.50861  Biso   1.000  C
  H120     1.0000 0.73010  0.31059  0.46982  Biso   1.000  H
  H121     1.0000 0.71740  0.25689  0.29308  Biso   1.000  H
  C166     1.0000 0.74057  0.32730  0.24500  Biso   1.000  C
  C167     1.0000 0.49804  0.69648  0.12619  Biso   1.000  C
  C168     1.0000 0.53086  0.57857  0.10231  Biso   1.000  C
  H122     1.0000 0.51101  0.57580  0.17090  Biso   1.000  H
  C169     1.0000 0.54694  0.73400  0.09668  Biso   1.000  C
  H123     1.0000 0.65610  0.84490  0.20580  Biso   1.000  H
  H124     1.0000 0.66790  0.89319  0.26329  Biso   1.000  H
  H125     1.0000 0.63161  0.90911  0.22632  Biso   1.000  H
  H126     1.0000 0.76900  0.59588  0.44671  Biso   1.000  H
  C170     1.0000 0.77234  0.49409  0.50160  Biso   1.000  C
  C171     1.0000 0.75118  0.41139  0.23860  Biso   1.000  C
  H127     1.0000 0.75609  0.53901  0.26669  Biso   1.000  H
  H128     1.0000 0.76560  0.38477  0.54319  Biso   1.000  H
  C172     1.0000 0.74575  0.25233  0.20941  Biso   1.000  C
  C173     1.0000 0.46666  0.70923  0.13158  Biso   1.000  C
  C174     1.0000 0.51218  0.75699  0.09749  Biso   1.000  C
  C175     1.0000 0.52714  0.49197  0.08788  Biso   1.000  C
  C176     1.0000 0.54537  0.64033  0.07459  Biso   1.000  C
  H129     1.0000 0.55679  0.77713  0.07568  Biso   1.000  H
  H130     1.0000 0.78819  0.52071  0.53038  Biso   1.000  H
  O15      1.0000 0.76747  0.42262  0.19709  Biso   1.000  O
  C177     1.0000 0.71808  0.24169  0.15809  Biso   1.000  C
  H131     1.0000 0.74801  0.19671  0.23041  Biso   1.000  H
  H132     1.0000 0.76649  0.26230  0.19891  Biso   1.000  H
  H133     1.0000 0.45749  0.66880  0.15222  Biso   1.000  H
  C178     1.0000 0.44828  0.78242  0.10649  Biso   1.000  C
  C179     1.0000 0.49462  0.82918  0.07341  Biso   1.000  C
  C180     1.0000 0.53766  0.46397  0.04248  Biso   1.000  C
  H134     1.0000 0.51770  0.45142  0.10799  Biso   1.000  H
  C181     1.0000 0.55551  0.61008  0.02979  Biso   1.000  C
  C182     1.0000 0.76472  0.50690  0.17119  Biso   1.000  C
  C183     1.0000 0.71901  0.28740  0.11131  Biso   1.000  C
  C184     1.0000 0.69121  0.18667  0.15671  Biso   1.000  C
  H135     1.0000 0.42641  0.79028  0.10929  Biso   1.000  H
  C185     1.0000 0.46149  0.84068  0.07868  Biso   1.000  C
  H136     1.0000 0.50401  0.87047  0.05359  Biso   1.000  H
  O16      1.0000 0.53499  0.37823  0.02359  Biso   1.000  O
  C186     1.0000 0.55234  0.52381  0.01261  Biso   1.000  C
  H137     1.0000 0.56510  0.65123  0.01022  Biso   1.000  H
  H138     1.0000 0.76899  0.50069  0.13539  Biso   1.000  H
  H139     1.0000 0.78071  0.54772  0.19332  Biso   1.000  H
  H140     1.0000 0.74251  0.53009  0.16709  Biso   1.000  H
  C187     1.0000 0.69386  0.28020  0.06462  Biso   1.000  C
  H141     1.0000 0.73721  0.32433  0.11131  Biso   1.000  H
  C188     1.0000 0.66574  0.17782  0.11022  Biso   1.000  C
  O17      1.0000 0.69184  0.14202  0.20459  Biso   1.000  O
  H142     1.0000 0.44900  0.89028  0.06239  Biso   1.000  H
  C189     1.0000 0.52070  0.31640  0.05181  Biso   1.000  C
  C190     1.0000 0.56188  0.49237  0.96352  Biso   1.000  C
  C191     1.0000 0.66690  0.22498  0.06462  Biso   1.000  C
  C192     1.0000 0.69139  0.32710  0.01030  Biso   1.000  C
  H143     1.0000 0.64781  0.13957  0.10981  Biso   1.000  H
  C193     1.0000 0.66770  0.07510  0.20199  Biso   1.000  C
  H144     1.0000 0.52001  0.25847  0.03442  Biso   1.000  H
  H145     1.0000 0.49840  0.33529  0.05132  Biso   1.000  H
  H146     1.0000 0.53379  0.31237  0.08938  Biso   1.000  H
  C194     1.0000 0.59733  0.45221  0.97702  Biso   1.000  C
  H147     1.0000 0.56069  0.54251  0.93810  Biso   1.000  H
  H148     1.0000 0.54601  0.44699  0.94511  Biso   1.000  H
  C195     1.0000 0.64114  0.22769  0.01159  Biso   1.000  C
  C196     1.0000 0.65954  0.37750  0.99972  Biso   1.000  C
  C197     1.0000 0.68572  0.25418  0.96789  Biso   1.000  C
  H149     1.0000 0.71069  0.36522  0.01022  Biso   1.000  H
  H150     1.0000 0.66831  0.03362  0.17281  Biso   1.000  H
  H151     1.0000 0.64590  0.10238  0.19470  Biso   1.000  H
  H152     1.0000 0.67209  0.04333  0.23649  Biso   1.000  H
  C198     1.0000 0.60111  0.36238  0.98630  Biso   1.000  C
  C199     1.0000 0.62438  0.50519  0.97961  Biso   1.000  C
  C200     1.0000 0.63221  0.32618  0.99891  Biso   1.000  C
  H153     1.0000 0.62171  0.19011  0.01159  Biso   1.000  H
  C201     1.0000 0.65828  0.20107  0.96789  Biso   1.000  C
  C202     1.0000 0.65612  0.46727  0.99019  Biso   1.000  C
  C203     1.0000 0.70328  0.23899  0.93040  Biso   1.000  C
  H154     1.0000 0.58250  0.32578  0.98391  Biso   1.000  H
  O18      1.0000 0.61846  0.59462  0.97110  Biso   1.000  O
  C204     1.0000 0.64847  0.13330  0.93052  Biso   1.000  C
  H155     1.0000 0.67470  0.50301  0.99072  Biso   1.000  H
  H156     1.0000 0.72191  0.27399  0.93040  Biso   1.000  H
  C205     1.0000 0.69359  0.17148  0.89209  Biso   1.000  C
  C206     1.0000 0.64558  0.65262  0.97941  Biso   1.000  C
  C207     1.0000 0.66705  0.12048  0.89181  Biso   1.000  C
  H157     1.0000 0.63010  0.09723  0.93068  Biso   1.000  H
  H158     1.0000 0.70581  0.16117  0.86599  Biso   1.000  H
  H159     1.0000 0.66130  0.63809  0.01370  Biso   1.000  H
  H160     1.0000 0.65610  0.64628  0.94949  Biso   1.000  H
  H161     1.0000 0.63810  0.71372  0.98070  Biso   1.000  H
  H162     1.0000 0.66081  0.07550  0.86522  Biso   1.000  H
  C208     1.0000 0.42502  0.57897  0.66590  Biso   1.000  C
  O19      1.0000 0.41084  0.49581  0.66663  Biso   1.000  O
  H163     1.0000 0.42290  0.61292  0.69760  Biso   1.000  H
  H164     1.0000 0.44819  0.57210  0.66679  Biso   1.000  H
  H165     1.0000 0.41380  0.61028  0.63282  Biso   1.000  H
  C209     1.0000 0.37763  0.49032  0.66281  Biso   1.000  C
  C210     1.0000 0.35620  0.56331  0.65159  Biso   1.000  C
  C211     1.0000 0.36579  0.40472  0.66752  Biso   1.000  C
  C212     1.0000 0.32385  0.55017  0.64721  Biso   1.000  C
  H166     1.0000 0.36430  0.62058  0.64709  Biso   1.000  H
  C213     1.0000 0.33242  0.39527  0.66391  Biso   1.000  C
  C214     1.0000 0.38762  0.32591  0.67579  Biso   1.000  C
  C215     1.0000 0.31115  0.46707  0.65341  Biso   1.000  C
  C216     1.0000 0.29694  0.62131  0.63411  Biso   1.000  C
  H167     1.0000 0.32400  0.33853  0.66881  Biso   1.000  H
  C217     1.0000 0.40456  0.30629  0.73501  Biso   1.000  C
  H168     1.0000 0.37450  0.27373  0.66002  Biso   1.000  H
  H169     1.0000 0.40460  0.33490  0.65568  Biso   1.000  H
  C218     1.0000 0.27419  0.46628  0.64680  Biso   1.000  C
  C219     1.0000 0.27228  0.58888  0.58312  Biso   1.000  C
  C220     1.0000 0.27981  0.61801  0.68000  Biso   1.000  C
  H170     1.0000 0.30580  0.68129  0.62941  Biso   1.000  H
  C221     1.0000 0.39097  0.24777  0.76391  Biso   1.000  C
  C222     1.0000 0.43341  0.35088  0.76079  Biso   1.000  C
  C223     1.0000 0.25970  0.50552  0.59062  Biso   1.000  C
  H171     1.0000 0.26539  0.40637  0.65171  Biso   1.000  H
  C224     1.0000 0.26753  0.53458  0.68649  Biso   1.000  C
  C225     1.0000 0.26230  0.63148  0.53472  Biso   1.000  C
  C226     1.0000 0.27508  0.68558  0.71280  Biso   1.000  C
  O20      1.0000 0.36237  0.20807  0.73663  Biso   1.000  O
  C227     1.0000 0.40544  0.23040  0.81860  Biso   1.000  C
  H172     1.0000 0.44310  0.39157  0.74109  Biso   1.000  H
  C228     1.0000 0.44754  0.33582  0.81450  Biso   1.000  C
  C229     1.0000 0.23834  0.46218  0.54850  Biso   1.000  C
  C230     1.0000 0.25195  0.51800  0.72812  Biso   1.000  C
  C231     1.0000 0.24042  0.58782  0.49139  Biso   1.000  C
  H173     1.0000 0.26991  0.68941  0.53022  Biso   1.000  H
  H174     1.0000 0.28259  0.74311  0.70692  Biso   1.000  H
  C232     1.0000 0.25942  0.67270  0.75500  Biso   1.000  C
  C233     1.0000 0.35074  0.13429  0.76241  Biso   1.000  C
  C234     1.0000 0.43352  0.27479  0.84341  Biso   1.000  C
  H175     1.0000 0.39600  0.18878  0.83822  Biso   1.000  H
  C235     1.0000 0.47896  0.38087  0.84969  Biso   1.000  C
  C236     1.0000 0.22765  0.50591  0.49840  Biso   1.000  C
  H176     1.0000 0.23099  0.40412  0.55328  Biso   1.000  H
  C237     1.0000 0.24881  0.58861  0.76140  Biso   1.000  C
  H177     1.0000 0.24390  0.46099  0.73331  Biso   1.000  H
  H178     1.0000 0.23440  0.61523  0.45681  Biso   1.000  H
  C238     1.0000 0.25424  0.74767  0.79059  Biso   1.000  C
  H179     1.0000 0.34389  0.15510  0.79419  Biso   1.000  H
  H180     1.0000 0.33210  0.10681  0.73671  Biso   1.000  H
  H181     1.0000 0.36839  0.09089  0.77368  Biso   1.000  H
  C239     1.0000 0.45305  0.26600  0.90332  Biso   1.000  C
  C240     1.0000 0.46914  0.42143  0.89768  Biso   1.000  C
  H182     1.0000 0.48901  0.42420  0.82910  Biso   1.000  H
  C241     1.0000 0.50198  0.30352  0.87381  Biso   1.000  C
  H183     1.0000 0.21181  0.47929  0.46962  Biso   1.000  H
  O21      1.0000 0.23253  0.57738  0.80291  Biso   1.000  O
  H184     1.0000 0.25201  0.80329  0.76959  Biso   1.000  H
  H185     1.0000 0.23350  0.73770  0.80109  Biso   1.000  H
  C242     1.0000 0.28192  0.75831  0.84191  Biso   1.000  C
  C243     1.0000 0.45465  0.35967  0.92541  Biso   1.000  C
  C244     1.0000 0.48781  0.24301  0.90251  Biso   1.000  C
  H186     1.0000 0.44321  0.22287  0.92432  Biso   1.000  H
  C245     1.0000 0.47286  0.50803  0.91212  Biso   1.000  C
  C246     1.0000 0.53333  0.29077  0.86842  Biso   1.000  C
  C247     1.0000 0.23528  0.49310  0.82881  Biso   1.000  C
  C248     1.0000 0.28099  0.71260  0.88869  Biso   1.000  C
  C249     1.0000 0.30879  0.81333  0.84328  Biso   1.000  C
  C250     1.0000 0.44448  0.38992  0.97020  Biso   1.000  C
  C251     1.0000 0.50540  0.17082  0.92659  Biso   1.000  C
  C252     1.0000 0.46233  0.53603  0.95752  Biso   1.000  C
  H187     1.0000 0.48230  0.54858  0.89201  Biso   1.000  H
  H188     1.0000 0.54250  0.33120  0.84778  Biso   1.000  H
  C253     1.0000 0.55172  0.21758  0.89351  Biso   1.000  C
  H189     1.0000 0.23101  0.49931  0.86461  Biso   1.000  H
  H190     1.0000 0.21929  0.45228  0.80672  Biso   1.000  H
  H191     1.0000 0.25751  0.46991  0.83291  Biso   1.000  H
  H192     1.0000 0.26279  0.67567  0.88869  Biso   1.000  H
  C254     1.0000 0.30616  0.71980  0.93538  Biso   1.000  C
  O22      1.0000 0.30815  0.85798  0.79541  Biso   1.000  O
  C255     1.0000 0.33426  0.82218  0.88982  Biso   1.000  C
  H193     1.0000 0.43489  0.34877  0.98978  Biso   1.000  H
  C256     1.0000 0.44768  0.47619  0.98739  Biso   1.000  C
  C257     1.0000 0.53850  0.15932  0.92132  Biso   1.000  C
  H194     1.0000 0.49601  0.12953  0.94641  Biso   1.000  H
  O23      1.0000 0.46503  0.62177  0.97641  Biso   1.000  O
  H195     1.0000 0.57361  0.20972  0.89071  Biso   1.000  H
  C258     1.0000 0.33310  0.77502  0.93538  Biso   1.000  C
  C259     1.0000 0.30860  0.67290  0.98970  Biso   1.000  C
  C260     1.0000 0.33229  0.92490  0.79800  Biso   1.000  C
  H196     1.0000 0.35219  0.86043  0.89018  Biso   1.000  H
  C261     1.0000 0.43812  0.50763  0.03648  Biso   1.000  C
  H197     1.0000 0.55099  0.10972  0.93761  Biso   1.000  H
  C262     1.0000 0.47929  0.68360  0.94819  Biso   1.000  C
  C263     1.0000 0.35885  0.77231  0.98841  Biso   1.000  C
  H198     1.0000 0.28930  0.63478  0.98978  Biso   1.000  H
  C264     1.0000 0.31428  0.74582  0.03210  Biso   1.000  C
  C265     1.0000 0.34048  0.62250  0.00028  Biso   1.000  C
  H199     1.0000 0.33171  0.96638  0.82719  Biso   1.000  H
  H200     1.0000 0.35410  0.89762  0.80530  Biso   1.000  H
  H201     1.0000 0.32790  0.95667  0.76351  Biso   1.000  H
  C266     1.0000 0.40267  0.54779  0.02298  Biso   1.000  C
  H202     1.0000 0.43930  0.45749  0.06190  Biso   1.000  H
  H203     1.0000 0.45399  0.55301  0.05489  Biso   1.000  H
  H204     1.0000 0.48001  0.74153  0.96558  Biso   1.000  H
  H205     1.0000 0.50160  0.66471  0.94872  Biso   1.000  H
  H206     1.0000 0.46621  0.68763  0.91062  Biso   1.000  H
  H207     1.0000 0.37831  0.80989  0.98841  Biso   1.000  H
  C267     1.0000 0.34172  0.79893  0.03210  Biso   1.000  C
  C268     1.0000 0.36778  0.67382  0.00109  Biso   1.000  C
  C269     1.0000 0.29671  0.76101  0.06960  Biso   1.000  C
  C270     1.0000 0.34388  0.53273  0.00981  Biso   1.000  C
  C271     1.0000 0.39890  0.63762  0.01370  Biso   1.000  C
  C272     1.0000 0.37561  0.49481  0.02039  Biso   1.000  C
  C273     1.0000 0.35155  0.86670  0.06948  Biso   1.000  C
  H208     1.0000 0.27809  0.72601  0.06960  Biso   1.000  H
  C274     1.0000 0.30641  0.82852  0.10791  Biso   1.000  C
  H209     1.0000 0.32529  0.49699  0.00928  Biso   1.000  H
  H210     1.0000 0.41749  0.67422  0.01609  Biso   1.000  H
  O24      1.0000 0.38154  0.40538  0.02890  Biso   1.000  O
  C275     1.0000 0.33294  0.87952  0.10819  Biso   1.000  C
  H211     1.0000 0.36989  0.90277  0.06932  Biso   1.000  H
  H212     1.0000 0.29419  0.83883  0.13401  Biso   1.000  H
  C276     1.0000 0.35441  0.34738  0.02059  Biso   1.000  C
  H213     1.0000 0.33919  0.92450  0.13478  Biso   1.000  H
  H214     1.0000 0.33870  0.36191  0.98630  Biso   1.000  H
  H215     1.0000 0.34389  0.35372  0.05051  Biso   1.000  H
  H216     1.0000 0.36189  0.28628  0.01929  Biso   1.000  H
  C277     1.0000 0.74043  0.08779  0.49139  Biso   1.000  C
  C278     1.0000 0.72766  0.00588  0.49840  Biso   1.000  C
  H217     1.0000 0.73441  0.11520  0.45681  Biso   1.000  H
  C279     1.0000 0.76229  0.13151  0.53472  Biso   1.000  C
  C280     1.0000 0.73835  0.96222  0.54850  Biso   1.000  C
  H218     1.0000 0.71180  0.97932  0.46962  Biso   1.000  H
  H219     1.0000 0.76989  0.18938  0.53022  Biso   1.000  H
  C281     1.0000 0.77229  0.08891  0.58312  Biso   1.000  C
  C282     1.0000 0.75972  0.00548  0.59062  Biso   1.000  C
  H220     1.0000 0.73100  0.90409  0.55328  Biso   1.000  H
  C283     1.0000 0.79693  0.12128  0.63411  Biso   1.000  C
  C284     1.0000 0.77420  0.96631  0.64680  Biso   1.000  C
  C285     1.0000 0.82386  0.05020  0.64721  Biso   1.000  C
  H221     1.0000 0.80581  0.18132  0.62941  Biso   1.000  H
  C286     1.0000 0.77982  0.11797  0.68000  Biso   1.000  C
  C287     1.0000 0.76754  0.03461  0.68649  Biso   1.000  C
  C288     1.0000 0.81116  0.96710  0.65341  Biso   1.000  C
  H222     1.0000 0.76540  0.90640  0.65171  Biso   1.000  H
  C289     1.0000 0.85621  0.06328  0.65159  Biso   1.000  C
  C290     1.0000 0.77507  0.18561  0.71280  Biso   1.000  C
  C291     1.0000 0.75196  0.01803  0.72812  Biso   1.000  C
  C292     1.0000 0.83243  0.89530  0.66391  Biso   1.000  C
  H223     1.0000 0.86429  0.12062  0.64709  Biso   1.000  H
  C293     1.0000 0.87762  0.99029  0.66281  Biso   1.000  C
  H224     1.0000 0.78261  0.24308  0.70692  Biso   1.000  H
  C294     1.0000 0.75943  0.17273  0.75500  Biso   1.000  C
  C295     1.0000 0.74880  0.08858  0.76140  Biso   1.000  C
  H225     1.0000 0.74389  0.96103  0.73331  Biso   1.000  H
  C296     1.0000 0.86580  0.90468  0.66752  Biso   1.000  C
  H226     1.0000 0.82401  0.83850  0.66881  Biso   1.000  H
  O25      1.0000 0.91083  0.99577  0.66663  Biso   1.000  O
  C297     1.0000 0.75423  0.24770  0.79059  Biso   1.000  C
  O26      1.0000 0.73251  0.07742  0.80291  Biso   1.000  O
  C298     1.0000 0.88763  0.82588  0.67579  Biso   1.000  C
  C299     1.0000 0.92503  0.07900  0.66590  Biso   1.000  C
  H227     1.0000 0.75199  0.30332  0.76959  Biso   1.000  H
  H228     1.0000 0.73349  0.23773  0.80109  Biso   1.000  H
  C300     1.0000 0.78193  0.25827  0.84191  Biso   1.000  C
  C301     1.0000 0.73529  0.99313  0.82881  Biso   1.000  C
  C302     1.0000 0.90457  0.80633  0.73501  Biso   1.000  C
  H229     1.0000 0.87451  0.77370  0.66002  Biso   1.000  H
  H230     1.0000 0.90461  0.83493  0.65568  Biso   1.000  H
  H231     1.0000 0.92291  0.11289  0.69760  Biso   1.000  H
  H232     1.0000 0.94820  0.07213  0.66679  Biso   1.000  H
  H233     1.0000 0.91379  0.11031  0.63282  Biso   1.000  H
  C303     1.0000 0.78100  0.21263  0.88869  Biso   1.000  C
  C304     1.0000 0.80878  0.31330  0.84328  Biso   1.000  C
  H234     1.0000 0.73099  0.99927  0.86461  Biso   1.000  H
  H235     1.0000 0.71930  0.95231  0.80672  Biso   1.000  H
  H236     1.0000 0.75750  0.96988  0.83291  Biso   1.000  H
  C305     1.0000 0.89098  0.74780  0.76391  Biso   1.000  C
  C306     1.0000 0.93339  0.85091  0.76079  Biso   1.000  C
  H237     1.0000 0.76280  0.17571  0.88869  Biso   1.000  H
  C307     1.0000 0.80614  0.21983  0.93538  Biso   1.000  C
  O27      1.0000 0.80814  0.35802  0.79541  Biso   1.000  O
  C308     1.0000 0.83425  0.32221  0.88982  Biso   1.000  C
  O28      1.0000 0.86238  0.70810  0.73663  Biso   1.000  O
  C309     1.0000 0.90545  0.73043  0.81860  Biso   1.000  C
  H238     1.0000 0.94311  0.89160  0.74109  Biso   1.000  H
  C310     1.0000 0.94753  0.83579  0.81450  Biso   1.000  C
  C311     1.0000 0.83309  0.27499  0.93538  Biso   1.000  C
  C312     1.0000 0.80862  0.17293  0.98970  Biso   1.000  C
  C313     1.0000 0.83231  0.42493  0.79800  Biso   1.000  C
  H239     1.0000 0.85220  0.36039  0.89018  Biso   1.000  H
  C314     1.0000 0.85075  0.63432  0.76241  Biso   1.000  C
  C315     1.0000 0.93351  0.77482  0.84341  Biso   1.000  C
  H240     1.0000 0.89601  0.68882  0.83822  Biso   1.000  H
  C316     1.0000 0.97895  0.88090  0.84969  Biso   1.000  C
  C317     1.0000 0.85884  0.27228  0.98841  Biso   1.000  C
  H241     1.0000 0.78929  0.13482  0.98978  Biso   1.000  H
  C318     1.0000 0.81429  0.24579  0.03210  Biso   1.000  C
  C319     1.0000 0.84047  0.12253  0.00028  Biso   1.000  C
  H242     1.0000 0.83170  0.46641  0.82719  Biso   1.000  H
  H243     1.0000 0.85411  0.39758  0.80530  Biso   1.000  H
  H244     1.0000 0.82791  0.45670  0.76351  Biso   1.000  H
  H245     1.0000 0.84390  0.65513  0.79419  Biso   1.000  H
  H246     1.0000 0.83211  0.60678  0.73671  Biso   1.000  H
  H247     1.0000 0.86840  0.59092  0.77368  Biso   1.000  H
  C320     1.0000 0.95304  0.76597  0.90332  Biso   1.000  C
  C321     1.0000 0.96915  0.92140  0.89768  Biso   1.000  C
  H248     1.0000 0.98900  0.92417  0.82910  Biso   1.000  H
  C322     1.0000 0.00197  0.80349  0.87381  Biso   1.000  C
  H249     1.0000 0.87830  0.30993  0.98841  Biso   1.000  H
  C323     1.0000 0.84171  0.29890  0.03210  Biso   1.000  C
  C324     1.0000 0.86780  0.17379  0.00109  Biso   1.000  C
  C325     1.0000 0.79673  0.26098  0.06960  Biso   1.000  C
  C326     1.0000 0.84389  0.03270  0.00981  Biso   1.000  C
  C327     1.0000 0.95464  0.85970  0.92541  Biso   1.000  C
  C328     1.0000 0.98782  0.74298  0.90251  Biso   1.000  C
  H250     1.0000 0.94319  0.72290  0.92432  Biso   1.000  H
  C329     1.0000 0.97285  0.00799  0.91212  Biso   1.000  C
  C330     1.0000 0.03332  0.79081  0.86842  Biso   1.000  C
  C331     1.0000 0.85154  0.36667  0.06948  Biso   1.000  C
  C332     1.0000 0.89889  0.13759  0.01370  Biso   1.000  C
  H251     1.0000 0.77810  0.22597  0.06960  Biso   1.000  H
  C333     1.0000 0.80639  0.32849  0.10791  Biso   1.000  C
  C334     1.0000 0.87560  0.99478  0.02039  Biso   1.000  C
  H252     1.0000 0.82530  0.99703  0.00928  Biso   1.000  H
  C335     1.0000 0.94450  0.88989  0.97020  Biso   1.000  C
  C336     1.0000 0.00539  0.67078  0.92659  Biso   1.000  C
  C337     1.0000 0.96234  0.03600  0.95752  Biso   1.000  C
  H253     1.0000 0.98231  0.04862  0.89201  Biso   1.000  H
  H254     1.0000 0.04249  0.83123  0.84778  Biso   1.000  H
  C338     1.0000 0.05171  0.71762  0.89351  Biso   1.000  C
  C339     1.0000 0.83295  0.37948  0.10819  Biso   1.000  C
  H255     1.0000 0.86990  0.40280  0.06932  Biso   1.000  H
  H256     1.0000 0.91750  0.17419  0.01609  Biso   1.000  H
  C340     1.0000 0.90268  0.04782  0.02298  Biso   1.000  C
  H257     1.0000 0.79420  0.33879  0.13401  Biso   1.000  H
  O29      1.0000 0.88155  0.90541  0.02890  Biso   1.000  O
  H258     1.0000 0.93490  0.84880  0.98978  Biso   1.000  H
  C341     1.0000 0.94767  0.97622  0.98739  Biso   1.000  C
  H259     1.0000 0.99600  0.62950  0.94641  Biso   1.000  H
  C342     1.0000 0.03849  0.65929  0.92132  Biso   1.000  C
  O30      1.0000 0.96502  0.12180  0.97641  Biso   1.000  O
  H260     1.0000 0.07360  0.70969  0.89071  Biso   1.000  H
  H261     1.0000 0.83920  0.42453  0.13478  Biso   1.000  H
  C343     1.0000 0.93813  0.00760  0.03648  Biso   1.000  C
  C344     1.0000 0.85442  0.84741  0.02059  Biso   1.000  C
  H262     1.0000 0.05101  0.60968  0.93761  Biso   1.000  H
  C345     1.0000 0.97931  0.18363  0.94819  Biso   1.000  C
  H263     1.0000 0.93929  0.95753  0.06190  Biso   1.000  H
  H264     1.0000 0.95400  0.05298  0.05489  Biso   1.000  H
  H265     1.0000 0.83871  0.86188  0.98630  Biso   1.000  H
  H266     1.0000 0.84390  0.85369  0.05051  Biso   1.000  H
  H267     1.0000 0.86190  0.78631  0.01929  Biso   1.000  H
  H268     1.0000 0.98000  0.24150  0.96558  Biso   1.000  H
  H269     1.0000 0.96619  0.18759  0.91062  Biso   1.000  H
  H270     1.0000 0.00161  0.16467  0.94872  Biso   1.000  H
  C346     1.0000 0.25957  0.91221  0.50861  Biso   1.000  C
  C347     1.0000 0.23771  0.86849  0.46528  Biso   1.000  C
  C348     1.0000 0.27233  0.99412  0.50160  Biso   1.000  C
  H271     1.0000 0.26561  0.88480  0.54319  Biso   1.000  H
  C349     1.0000 0.22773  0.91109  0.41692  Biso   1.000  C
  H272     1.0000 0.23011  0.81062  0.46982  Biso   1.000  H
  C350     1.0000 0.26167  0.03778  0.45150  Biso   1.000  C
  H273     1.0000 0.28820  0.02068  0.53038  Biso   1.000  H
  C351     1.0000 0.20306  0.87872  0.36588  Biso   1.000  C
  C352     1.0000 0.24028  0.99452  0.40942  Biso   1.000  C
  H274     1.0000 0.26899  0.09591  0.44671  Biso   1.000  H
  C353     1.0000 0.22020  0.88203  0.32000  Biso   1.000  C
  C354     1.0000 0.17616  0.94980  0.35279  Biso   1.000  C
  H275     1.0000 0.19421  0.81868  0.37059  Biso   1.000  H
  C355     1.0000 0.22582  0.03369  0.35320  Biso   1.000  C
  C356     1.0000 0.22493  0.81439  0.28720  Biso   1.000  C
  C357     1.0000 0.23245  0.96539  0.31351  Biso   1.000  C
  C358     1.0000 0.14378  0.93672  0.34841  Biso   1.000  C
  C359     1.0000 0.18886  0.03290  0.34659  Biso   1.000  C
  H276     1.0000 0.23459  0.09360  0.34829  Biso   1.000  H
  C360     1.0000 0.24056  0.82727  0.24500  Biso   1.000  C
  H277     1.0000 0.21739  0.75692  0.29308  Biso   1.000  H
  C361     1.0000 0.24806  0.98197  0.27192  Biso   1.000  C
  H278     1.0000 0.13570  0.87938  0.35291  Biso   1.000  H
  C362     1.0000 0.12238  0.00971  0.33718  Biso   1.000  C
  C363     1.0000 0.16759  0.10470  0.33609  Biso   1.000  C
  C364     1.0000 0.24576  0.75230  0.20941  Biso   1.000  C
  C365     1.0000 0.25119  0.91142  0.23860  Biso   1.000  C
  H279     1.0000 0.25610  0.03897  0.26669  Biso   1.000  H
  O31      1.0000 0.08917  0.00423  0.33337  Biso   1.000  O
  C366     1.0000 0.13422  0.09532  0.33248  Biso   1.000  C
  H280     1.0000 0.17601  0.16150  0.33118  Biso   1.000  H
  C367     1.0000 0.21809  0.74173  0.15809  Biso   1.000  C
  H281     1.0000 0.24800  0.69668  0.23041  Biso   1.000  H
  H282     1.0000 0.26650  0.76227  0.19891  Biso   1.000  H
  O32      1.0000 0.26748  0.92258  0.19709  Biso   1.000  O
  C368     1.0000 0.07499  0.92100  0.33410  Biso   1.000  C
  C369     1.0000 0.11236  0.17412  0.32421  Biso   1.000  C
  C370     1.0000 0.19122  0.68670  0.15671  Biso   1.000  C
  C371     1.0000 0.21900  0.78737  0.11131  Biso   1.000  C
  C372     1.0000 0.26471  0.00687  0.17119  Biso   1.000  C
  H283     1.0000 0.07711  0.88711  0.30240  Biso   1.000  H
  H284     1.0000 0.05180  0.92787  0.33321  Biso   1.000  H
  H285     1.0000 0.08620  0.88969  0.36718  Biso   1.000  H
  C373     1.0000 0.09542  0.19367  0.26499  Biso   1.000  C
  H286     1.0000 0.12551  0.22630  0.33998  Biso   1.000  H
  H287     1.0000 0.09541  0.16507  0.34432  Biso   1.000  H
  O33      1.0000 0.19185  0.64198  0.20459  Biso   1.000  O
  C374     1.0000 0.16575  0.67779  0.11022  Biso   1.000  C
  H288     1.0000 0.23719  0.82429  0.11131  Biso   1.000  H
  C375     1.0000 0.19385  0.78017  0.06462  Biso   1.000  C
  H289     1.0000 0.26900  0.00073  0.13539  Biso   1.000  H
  H290     1.0000 0.28070  0.04769  0.19332  Biso   1.000  H
  H291     1.0000 0.24250  0.03012  0.16709  Biso   1.000  H
  C376     1.0000 0.10904  0.25220  0.23609  Biso   1.000  C
  C377     1.0000 0.06660  0.14909  0.23921  Biso   1.000  C
  C378     1.0000 0.16769  0.57507  0.20199  Biso   1.000  C
  C379     1.0000 0.16691  0.72501  0.06462  Biso   1.000  C
  H292     1.0000 0.14780  0.63961  0.10981  Biso   1.000  H
  C380     1.0000 0.19138  0.82707  0.01030  Biso   1.000  C
  C381     1.0000 0.09454  0.26957  0.18140  Biso   1.000  C
  O34      1.0000 0.13761  0.29190  0.26337  Biso   1.000  O
  C382     1.0000 0.05247  0.16421  0.18550  Biso   1.000  C
  H293     1.0000 0.05691  0.10840  0.25891  Biso   1.000  H
  H294     1.0000 0.16830  0.53359  0.17281  Biso   1.000  H
  H295     1.0000 0.14591  0.60242  0.19470  Biso   1.000  H
  H296     1.0000 0.17211  0.54330  0.23649  Biso   1.000  H
  C383     1.0000 0.14115  0.72772  0.01159  Biso   1.000  C
  H297     1.0000 0.21070  0.86518  0.01022  Biso   1.000  H
  C384     1.0000 0.18571  0.75421  0.96789  Biso   1.000  C
  C385     1.0000 0.15953  0.87747  0.99972  Biso   1.000  C
  C386     1.0000 0.06649  0.22518  0.15659  Biso   1.000  C
  H298     1.0000 0.10399  0.31118  0.16178  Biso   1.000  H
  C387     1.0000 0.14924  0.36568  0.23759  Biso   1.000  C
  C388     1.0000 0.02105  0.11910  0.15031  Biso   1.000  C
  H299     1.0000 0.12170  0.69007  0.01159  Biso   1.000  H
  C389     1.0000 0.15829  0.70110  0.96789  Biso   1.000  C
  C390     1.0000 0.13220  0.82621  0.99891  Biso   1.000  C
  C391     1.0000 0.20327  0.73902  0.93040  Biso   1.000  C
  C392     1.0000 0.15610  0.96730  0.99019  Biso   1.000  C
  C393     1.0000 0.04695  0.23403  0.09668  Biso   1.000  C
  H300     1.0000 0.15609  0.34487  0.20580  Biso   1.000  H
  H301     1.0000 0.16791  0.39322  0.26329  Biso   1.000  H
  H302     1.0000 0.13160  0.40908  0.22632  Biso   1.000  H
  C394     1.0000 0.03087  0.07860  0.10231  Biso   1.000  C
  C395     1.0000 0.99803  0.19651  0.12619  Biso   1.000  C
  H303     1.0000 0.01100  0.07583  0.17090  Biso   1.000  H
  C396     1.0000 0.14845  0.63333  0.93052  Biso   1.000  C
  C397     1.0000 0.10110  0.86241  0.98630  Biso   1.000  C
  H304     1.0000 0.22189  0.77403  0.93040  Biso   1.000  H
  C398     1.0000 0.19360  0.67151  0.89209  Biso   1.000  C
  C399     1.0000 0.12439  0.00522  0.97961  Biso   1.000  C
  H305     1.0000 0.17471  0.00297  0.99072  Biso   1.000  H
  C400     1.0000 0.04535  0.14030  0.07459  Biso   1.000  C
  C401     1.0000 0.01220  0.25702  0.09749  Biso   1.000  C
  H306     1.0000 0.05680  0.27710  0.07568  Biso   1.000  H
  C402     1.0000 0.02715  0.99201  0.08788  Biso   1.000  C
  C403     1.0000 0.96667  0.20919  0.13158  Biso   1.000  C
  C404     1.0000 0.16704  0.62052  0.89181  Biso   1.000  C
  H307     1.0000 0.13009  0.59720  0.93068  Biso   1.000  H
  H308     1.0000 0.08252  0.82581  0.98391  Biso   1.000  H
  C405     1.0000 0.09734  0.95218  0.97702  Biso   1.000  C
  H309     1.0000 0.20580  0.66121  0.86599  Biso   1.000  H
  O35      1.0000 0.11847  0.09459  0.97110  Biso   1.000  O
  C406     1.0000 0.05550  0.11011  0.02979  Biso   1.000  C
  C407     1.0000 0.99461  0.32922  0.07341  Biso   1.000  C
  C408     1.0000 0.03768  0.96400  0.04248  Biso   1.000  C
  H310     1.0000 0.01769  0.95138  0.10799  Biso   1.000  H
  H311     1.0000 0.95750  0.16877  0.15222  Biso   1.000  H
  C409     1.0000 0.94829  0.28238  0.10649  Biso   1.000  C
  H312     1.0000 0.16080  0.57547  0.86522  Biso   1.000  H
  C410     1.0000 0.06189  0.99240  0.96352  Biso   1.000  C
  C411     1.0000 0.14557  0.15259  0.97941  Biso   1.000  C
  C412     1.0000 0.05233  0.02378  0.01261  Biso   1.000  C
  H313     1.0000 0.06511  0.15120  0.01022  Biso   1.000  H
  C413     1.0000 0.96150  0.34071  0.07868  Biso   1.000  C
  H314     1.0000 0.00399  0.37050  0.05359  Biso   1.000  H
  O36      1.0000 0.03498  0.87820  0.02359  Biso   1.000  O
  H315     1.0000 0.92639  0.29031  0.10929  Biso   1.000  H
  H316     1.0000 0.04600  0.94702  0.94511  Biso   1.000  H
  H317     1.0000 0.06071  0.04247  0.93810  Biso   1.000  H
  H318     1.0000 0.15609  0.14631  0.94949  Biso   1.000  H
  H319     1.0000 0.13811  0.21369  0.98070  Biso   1.000  H
  H320     1.0000 0.16131  0.13812  0.01370  Biso   1.000  H
  H321     1.0000 0.94899  0.39032  0.06239  Biso   1.000  H
  C414     1.0000 0.02071  0.81637  0.05181  Biso   1.000  C
  H322     1.0000 0.02000  0.75850  0.03442  Biso   1.000  H
  H323     1.0000 0.03380  0.81241  0.08938  Biso   1.000  H
  H324     1.0000 0.99841  0.83533  0.05132  Biso   1.000  H
  C415     1.0000 0.79674  0.73902  0.56958  Biso   1.000  C
  C416     1.0000 0.81428  0.75421  0.53208  Biso   1.000  C
  H325     1.0000 0.77809  0.77403  0.56958  Biso   1.000  H
  C417     1.0000 0.80641  0.67151  0.60789  Biso   1.000  C
  C418     1.0000 0.80860  0.82707  0.48968  Biso   1.000  C
  C419     1.0000 0.84172  0.70110  0.53208  Biso   1.000  C
  C420     1.0000 0.83297  0.62052  0.60821  Biso   1.000  C
  H326     1.0000 0.79419  0.66121  0.63399  Biso   1.000  H
  C421     1.0000 0.80616  0.78017  0.43540  Biso   1.000  C
  H327     1.0000 0.78931  0.86518  0.48980  Biso   1.000  H
  C422     1.0000 0.84049  0.87747  0.50030  Biso   1.000  C
  C423     1.0000 0.85885  0.72772  0.48839  Biso   1.000  C
  C424     1.0000 0.85156  0.63333  0.56950  Biso   1.000  C
  H328     1.0000 0.83919  0.57547  0.63480  Biso   1.000  H
  C425     1.0000 0.78099  0.78737  0.38871  Biso   1.000  C
  C426     1.0000 0.83310  0.72501  0.43540  Biso   1.000  C
  C427     1.0000 0.86781  0.82621  0.50111  Biso   1.000  C
  C428     1.0000 0.84388  0.96730  0.50979  Biso   1.000  C
  H329     1.0000 0.87831  0.69007  0.48839  Biso   1.000  H
  H330     1.0000 0.86989  0.59720  0.56930  Biso   1.000  H
  C429     1.0000 0.78192  0.74173  0.34189  Biso   1.000  C
  H331     1.0000 0.76279  0.82429  0.38871  Biso   1.000  H
  C430     1.0000 0.83426  0.67779  0.38980  Biso   1.000  C
  C431     1.0000 0.89890  0.86241  0.51368  Biso   1.000  C
  C432     1.0000 0.87562  0.00522  0.52041  Biso   1.000  C
  H332     1.0000 0.82530  0.00297  0.50930  Biso   1.000  H
  C433     1.0000 0.75425  0.75230  0.29061  Biso   1.000  C
  C434     1.0000 0.80879  0.68670  0.34330  Biso   1.000  C
  H333     1.0000 0.85219  0.63961  0.39021  Biso   1.000  H
  H334     1.0000 0.91750  0.82581  0.51611  Biso   1.000  H
  C435     1.0000 0.90267  0.95218  0.52300  Biso   1.000  C
  O37      1.0000 0.88153  0.09459  0.52888  Biso   1.000  O
  C436     1.0000 0.75943  0.82727  0.25502  Biso   1.000  C
  H335     1.0000 0.75201  0.69668  0.26961  Biso   1.000  H
  H336     1.0000 0.73351  0.76227  0.30111  Biso   1.000  H
  O38      1.0000 0.80815  0.64198  0.29539  Biso   1.000  O
  C437     1.0000 0.93812  0.99240  0.53650  Biso   1.000  C
  C438     1.0000 0.85444  0.15259  0.52061  Biso   1.000  C
  C439     1.0000 0.77509  0.81439  0.21282  Biso   1.000  C
  C440     1.0000 0.74881  0.91142  0.26138  Biso   1.000  C
  C441     1.0000 0.83229  0.57507  0.29798  Biso   1.000  C
  H337     1.0000 0.95399  0.94702  0.55491  Biso   1.000  H
  C442     1.0000 0.94766  0.02378  0.48741  Biso   1.000  C
  H338     1.0000 0.93931  0.04247  0.56192  Biso   1.000  H
  H339     1.0000 0.84389  0.14631  0.55049  Biso   1.000  H
  H340     1.0000 0.83870  0.13812  0.48632  Biso   1.000  H
  H341     1.0000 0.86190  0.21369  0.51932  Biso   1.000  H
  C443     1.0000 0.77981  0.88203  0.17998  Biso   1.000  C
  H342     1.0000 0.78259  0.75692  0.20690  Biso   1.000  H
  O39      1.0000 0.73252  0.92258  0.30289  Biso   1.000  O
  C444     1.0000 0.75195  0.98197  0.22810  Biso   1.000  C
  H343     1.0000 0.83171  0.53359  0.32721  Biso   1.000  H
  H344     1.0000 0.85410  0.60242  0.30528  Biso   1.000  H
  H345     1.0000 0.82790  0.54330  0.26349  Biso   1.000  H
  C445     1.0000 0.96233  0.96400  0.45750  Biso   1.000  C
  C446     1.0000 0.94448  0.11011  0.47018  Biso   1.000  C
  C447     1.0000 0.79694  0.87872  0.13410  Biso   1.000  C
  C448     1.0000 0.76754  0.96539  0.18651  Biso   1.000  C
  C449     1.0000 0.73527  0.00687  0.32879  Biso   1.000  C
  H346     1.0000 0.74390  0.03897  0.23329  Biso   1.000  H
  O40      1.0000 0.96501  0.87820  0.47643  Biso   1.000  O
  C450     1.0000 0.97286  0.99201  0.41210  Biso   1.000  C
  C451     1.0000 0.95463  0.14030  0.42539  Biso   1.000  C
  H347     1.0000 0.93490  0.15120  0.48980  Biso   1.000  H
  C452     1.0000 0.82385  0.94980  0.14719  Biso   1.000  C
  C453     1.0000 0.77228  0.91109  0.08310  Biso   1.000  C
  H348     1.0000 0.80580  0.81868  0.12939  Biso   1.000  H
  C454     1.0000 0.77419  0.03369  0.14678  Biso   1.000  C
  H349     1.0000 0.73101  0.00073  0.36459  Biso   1.000  H
  H350     1.0000 0.71929  0.04769  0.30670  Biso   1.000  H
  H351     1.0000 0.75749  0.03012  0.33289  Biso   1.000  H
  C455     1.0000 0.97930  0.81637  0.44821  Biso   1.000  C
  H352     1.0000 0.98230  0.95138  0.39199  Biso   1.000  H
  C456     1.0000 0.96914  0.07860  0.39771  Biso   1.000  C
  C457     1.0000 0.95305  0.23403  0.40330  Biso   1.000  C
  C458     1.0000 0.85620  0.93672  0.15161  Biso   1.000  C
  C459     1.0000 0.81115  0.03290  0.15339  Biso   1.000  C
  C460     1.0000 0.75970  0.99452  0.09060  Biso   1.000  C
  C461     1.0000 0.76230  0.86849  0.03470  Biso   1.000  C
  H353     1.0000 0.76539  0.09360  0.15169  Biso   1.000  H
  H354     1.0000 0.97999  0.75850  0.46560  Biso   1.000  H
  H355     1.0000 0.96621  0.81241  0.41060  Biso   1.000  H
  H356     1.0000 0.00160  0.83533  0.44870  Biso   1.000  H
  C462     1.0000 0.97896  0.11910  0.34971  Biso   1.000  C
  C463     1.0000 0.93352  0.22518  0.34339  Biso   1.000  C
  C464     1.0000 0.98781  0.25702  0.40249  Biso   1.000  C
  H357     1.0000 0.94321  0.27710  0.42430  Biso   1.000  H
  H358     1.0000 0.86431  0.87938  0.14711  Biso   1.000  H
  C465     1.0000 0.87763  0.00971  0.16280  Biso   1.000  C
  C466     1.0000 0.83242  0.10470  0.16389  Biso   1.000  C
  C467     1.0000 0.73834  0.03778  0.04848  Biso   1.000  C
  H359     1.0000 0.76990  0.81062  0.03020  Biso   1.000  H
  C468     1.0000 0.74045  0.91221  0.99141  Biso   1.000  C
  C469     1.0000 0.94754  0.16421  0.31448  Biso   1.000  C
  H360     1.0000 0.98899  0.07583  0.32912  Biso   1.000  H
  C470     1.0000 0.00198  0.19651  0.37379  Biso   1.000  C
  C471     1.0000 0.90545  0.26957  0.31862  Biso   1.000  C
  C472     1.0000 0.00538  0.32922  0.42661  Biso   1.000  C
  O41      1.0000 0.91085  0.00423  0.16665  Biso   1.000  O
  C473     1.0000 0.86579  0.09532  0.16750  Biso   1.000  C
  H361     1.0000 0.82400  0.16150  0.16879  Biso   1.000  H
  C474     1.0000 0.72768  0.99412  0.99842  Biso   1.000  C
  H362     1.0000 0.73100  0.09591  0.05331  Biso   1.000  H
  H363     1.0000 0.73440  0.88480  0.95679  Biso   1.000  H
  C475     1.0000 0.93341  0.14909  0.26081  Biso   1.000  C
  C476     1.0000 0.03333  0.20919  0.36840  Biso   1.000  C
  C477     1.0000 0.89097  0.25220  0.26389  Biso   1.000  C
  H364     1.0000 0.89600  0.31118  0.33820  Biso   1.000  H
  H365     1.0000 0.99599  0.37050  0.44639  Biso   1.000  H
  C478     1.0000 0.03850  0.34071  0.42130  Biso   1.000  C
  C479     1.0000 0.92502  0.92100  0.16592  Biso   1.000  C
  C480     1.0000 0.88763  0.17412  0.17581  Biso   1.000  C
  H366     1.0000 0.71181  0.02068  0.96960  Biso   1.000  H
  C481     1.0000 0.90456  0.19367  0.23499  Biso   1.000  C
  H367     1.0000 0.94310  0.10840  0.24111  Biso   1.000  H
  H368     1.0000 0.04251  0.16877  0.34780  Biso   1.000  H
  C482     1.0000 0.05172  0.28238  0.39349  Biso   1.000  C
  O42      1.0000 0.86238  0.29190  0.23665  Biso   1.000  O
  H369     1.0000 0.05099  0.39032  0.43759  Biso   1.000  H
  H370     1.0000 0.92290  0.88711  0.19762  Biso   1.000  H
  H371     1.0000 0.94819  0.92787  0.16681  Biso   1.000  H
  H372     1.0000 0.91380  0.88969  0.13280  Biso   1.000  H
  H373     1.0000 0.87450  0.22630  0.16000  Biso   1.000  H
  H374     1.0000 0.90460  0.16507  0.15570  Biso   1.000  H
  H375     1.0000 0.07359  0.29031  0.39069  Biso   1.000  H
  C483     1.0000 0.85074  0.36568  0.26239  Biso   1.000  C
  H376     1.0000 0.84390  0.34487  0.29422  Biso   1.000  H
  H377     1.0000 0.83210  0.39322  0.23669  Biso   1.000  H
  H378     1.0000 0.86839  0.40908  0.27370  Biso   1.000  H
  C484     1.0000 0.20328  0.26098  0.43042  Biso   1.000  C
  C485     1.0000 0.19359  0.32849  0.39211  Biso   1.000  C
  C486     1.0000 0.18572  0.24579  0.46791  Biso   1.000  C
  H379     1.0000 0.22191  0.22597  0.43042  Biso   1.000  H
  H380     1.0000 0.20581  0.33879  0.36601  Biso   1.000  H
  C487     1.0000 0.16705  0.37948  0.39179  Biso   1.000  C
  C488     1.0000 0.19139  0.17293  0.51032  Biso   1.000  C
  C489     1.0000 0.15828  0.29890  0.46791  Biso   1.000  C
  H381     1.0000 0.16080  0.42453  0.36519  Biso   1.000  H
  C490     1.0000 0.14846  0.36667  0.43050  Biso   1.000  C
  C491     1.0000 0.19386  0.21983  0.56459  Biso   1.000  C
  H382     1.0000 0.21071  0.13482  0.51019  Biso   1.000  H
  C492     1.0000 0.15951  0.12253  0.49970  Biso   1.000  C
  C493     1.0000 0.14114  0.27228  0.51161  Biso   1.000  C
  H383     1.0000 0.13010  0.40280  0.43070  Biso   1.000  H
  C494     1.0000 0.21900  0.21263  0.61129  Biso   1.000  C
  C495     1.0000 0.16689  0.27499  0.56459  Biso   1.000  C
  C496     1.0000 0.13221  0.17379  0.49888  Biso   1.000  C
  C497     1.0000 0.15612  0.03270  0.49021  Biso   1.000  C
  H384     1.0000 0.12171  0.30993  0.51161  Biso   1.000  H
  C498     1.0000 0.21808  0.25827  0.65811  Biso   1.000  C
  H385     1.0000 0.23720  0.17571  0.61129  Biso   1.000  H
  C499     1.0000 0.16573  0.32221  0.61020  Biso   1.000  C
  C500     1.0000 0.10109  0.13759  0.48632  Biso   1.000  C
  C501     1.0000 0.12438  0.99478  0.47959  Biso   1.000  C
  H386     1.0000 0.17470  0.99703  0.49070  Biso   1.000  H
  C502     1.0000 0.24577  0.24770  0.70939  Biso   1.000  C
  C503     1.0000 0.19120  0.31330  0.65669  Biso   1.000  C
  H387     1.0000 0.14780  0.36039  0.60979  Biso   1.000  H
  H388     1.0000 0.08250  0.17419  0.48389  Biso   1.000  H
  C504     1.0000 0.09732  0.04782  0.47699  Biso   1.000  C
  O43      1.0000 0.11846  0.90541  0.47112  Biso   1.000  O
  C505     1.0000 0.24057  0.17273  0.74498  Biso   1.000  C
  H389     1.0000 0.24801  0.30332  0.73039  Biso   1.000  H
  H390     1.0000 0.26651  0.23773  0.69889  Biso   1.000  H
  O44      1.0000 0.19184  0.35802  0.70461  Biso   1.000  O
  C506     1.0000 0.06187  0.00760  0.46350  Biso   1.000  C
  C507     1.0000 0.14558  0.84741  0.47939  Biso   1.000  C
  C508     1.0000 0.22491  0.18561  0.78718  Biso   1.000  C
  C509     1.0000 0.25118  0.08858  0.73862  Biso   1.000  C
  C510     1.0000 0.16770  0.42493  0.70201  Biso   1.000  C
  H391     1.0000 0.04600  0.05298  0.44509  Biso   1.000  H
  C511     1.0000 0.05233  0.97622  0.51259  Biso   1.000  C
  H392     1.0000 0.06069  0.95753  0.43812  Biso   1.000  H
  H393     1.0000 0.15611  0.85369  0.44951  Biso   1.000  H
  H394     1.0000 0.16129  0.86188  0.51368  Biso   1.000  H
  H395     1.0000 0.13810  0.78631  0.48068  Biso   1.000  H
  C512     1.0000 0.22019  0.11797  0.82002  Biso   1.000  C
  H396     1.0000 0.21740  0.24308  0.79310  Biso   1.000  H
  O45      1.0000 0.26747  0.07742  0.69711  Biso   1.000  O
  C513     1.0000 0.24805  0.01803  0.77190  Biso   1.000  C
  H397     1.0000 0.16831  0.46641  0.67279  Biso   1.000  H
  H398     1.0000 0.14590  0.39758  0.69472  Biso   1.000  H
  H399     1.0000 0.17210  0.45670  0.73651  Biso   1.000  H
  C514     1.0000 0.03766  0.03600  0.54250  Biso   1.000  C
  C515     1.0000 0.05551  0.88989  0.52981  Biso   1.000  C
  C516     1.0000 0.20305  0.12128  0.86590  Biso   1.000  C
  C517     1.0000 0.23246  0.03461  0.81349  Biso   1.000  C
  C518     1.0000 0.26472  0.99313  0.67121  Biso   1.000  C
  H400     1.0000 0.25609  0.96103  0.76671  Biso   1.000  H
  O46      1.0000 0.03499  0.12180  0.52357  Biso   1.000  O
  C519     1.0000 0.02716  0.00799  0.58790  Biso   1.000  C
  C520     1.0000 0.04537  0.85970  0.57461  Biso   1.000  C
  H401     1.0000 0.06510  0.84880  0.51019  Biso   1.000  H
  C521     1.0000 0.17615  0.05020  0.85281  Biso   1.000  C
  C522     1.0000 0.22772  0.08891  0.91690  Biso   1.000  C
  H402     1.0000 0.19420  0.18132  0.87061  Biso   1.000  H
  C523     1.0000 0.22581  0.96631  0.85322  Biso   1.000  C
  H403     1.0000 0.26901  0.99927  0.63541  Biso   1.000  H
  H404     1.0000 0.28070  0.95231  0.69330  Biso   1.000  H
  H405     1.0000 0.24251  0.96988  0.66711  Biso   1.000  H
  C524     1.0000 0.02069  0.18363  0.55178  Biso   1.000  C
  H406     1.0000 0.01770  0.04862  0.60801  Biso   1.000  H
  C525     1.0000 0.03085  0.92140  0.60229  Biso   1.000  C
  C526     1.0000 0.04694  0.76597  0.59670  Biso   1.000  C
  C527     1.0000 0.14379  0.06328  0.84839  Biso   1.000  C
  C528     1.0000 0.18885  0.96710  0.84661  Biso   1.000  C
  C529     1.0000 0.24029  0.00548  0.90940  Biso   1.000  C
  C530     1.0000 0.23772  0.13151  0.96530  Biso   1.000  C
  H407     1.0000 0.23461  0.90640  0.84831  Biso   1.000  H
  H408     1.0000 0.02000  0.24150  0.53439  Biso   1.000  H
  H409     1.0000 0.03379  0.18759  0.58940  Biso   1.000  H
  H410     1.0000 0.99839  0.16467  0.55130  Biso   1.000  H
  C531     1.0000 0.02106  0.88090  0.65029  Biso   1.000  C
  C532     1.0000 0.01219  0.74298  0.59751  Biso   1.000  C
  H411     1.0000 0.05679  0.72290  0.57570  Biso   1.000  H
  C533     1.0000 0.06650  0.77482  0.65661  Biso   1.000  C
  H412     1.0000 0.13569  0.12062  0.85289  Biso   1.000  H
  C534     1.0000 0.12239  0.99029  0.83720  Biso   1.000  C
  C535     1.0000 0.16758  0.89530  0.83611  Biso   1.000  C
  C536     1.0000 0.26166  0.96222  0.95152  Biso   1.000  C
  H413     1.0000 0.23009  0.18938  0.96980  Biso   1.000  H
  C537     1.0000 0.25957  0.08779  0.00859  Biso   1.000  C
  C538     1.0000 0.99804  0.80349  0.62621  Biso   1.000  C
  H414     1.0000 0.01100  0.92417  0.67088  Biso   1.000  H
  C539     1.0000 0.05248  0.83579  0.68552  Biso   1.000  C
  C540     1.0000 0.99461  0.67078  0.57339  Biso   1.000  C
  C541     1.0000 0.09455  0.73043  0.68138  Biso   1.000  C
  O47      1.0000 0.08915  0.99577  0.83335  Biso   1.000  O
  C542     1.0000 0.13421  0.90468  0.83250  Biso   1.000  C
  H415     1.0000 0.17600  0.83850  0.83120  Biso   1.000  H
  H416     1.0000 0.26900  0.90409  0.94669  Biso   1.000  H
  C543     1.0000 0.27234  0.00588  0.00158  Biso   1.000  C
  H417     1.0000 0.26560  0.11520  0.04321  Biso   1.000  H
  C544     1.0000 0.96666  0.79081  0.63160  Biso   1.000  C
  C545     1.0000 0.06661  0.85091  0.73919  Biso   1.000  C
  C546     1.0000 0.96149  0.65929  0.57870  Biso   1.000  C
  H418     1.0000 0.00401  0.62950  0.55361  Biso   1.000  H
  H419     1.0000 0.10400  0.68882  0.66180  Biso   1.000  H
  C547     1.0000 0.10903  0.74780  0.73611  Biso   1.000  C
  C548     1.0000 0.07497  0.07900  0.83408  Biso   1.000  C
  C549     1.0000 0.11237  0.82588  0.82419  Biso   1.000  C
  H420     1.0000 0.28819  0.97932  0.03040  Biso   1.000  H
  H421     1.0000 0.95751  0.83123  0.65219  Biso   1.000  H
  C550     1.0000 0.94830  0.71762  0.60651  Biso   1.000  C
  C551     1.0000 0.09543  0.80633  0.76501  Biso   1.000  C
  H422     1.0000 0.05689  0.89160  0.75889  Biso   1.000  H
  H423     1.0000 0.94900  0.60968  0.56241  Biso   1.000  H
  O48      1.0000 0.13762  0.70810  0.76335  Biso   1.000  O
  H424     1.0000 0.07709  0.11289  0.80238  Biso   1.000  H
  H425     1.0000 0.05180  0.07213  0.83319  Biso   1.000  H
  H426     1.0000 0.08619  0.11031  0.86720  Biso   1.000  H
  H427     1.0000 0.12549  0.77370  0.84000  Biso   1.000  H
  H428     1.0000 0.09539  0.83493  0.84430  Biso   1.000  H
  H429     1.0000 0.92641  0.70969  0.60931  Biso   1.000  H
  C552     1.0000 0.14925  0.63432  0.73760  Biso   1.000  C
  H430     1.0000 0.15610  0.65513  0.70578  Biso   1.000  H
  H431     1.0000 0.16790  0.60678  0.76331  Biso   1.000  H
  H432     1.0000 0.13160  0.59092  0.72630  Biso   1.000  H
  Ne1      1.0000 0.36190  0.47109  0.33546  Biso   1.000  Ne
  He1      1.0000 0.29830  0.72688  0.36382  Biso   1.000  He
  He2      1.0000 0.40574  0.26946  0.29911  Biso   1.000  He
  Ar1      1.0000 0.36019  0.47141  0.33457  Biso   1.000  Ar
  Ne2      1.0000 0.13810  0.02891  0.66454  Biso   1.000  Ne
  He3      1.0000 0.09455  0.22961  0.70071  Biso   1.000  He
  He4      1.0000 0.20343  0.76861  0.63531  Biso   1.000  He
  Ar2      1.0000 0.13979  0.02860  0.66544  Biso   1.000  Ar
  Ne3      1.0000 0.13810  0.97109  0.16454  Biso   1.000  Ne
  He5      1.0000 0.09377  0.76794  0.20116  Biso   1.000  He
  He6      1.0000 0.17309  0.15219  0.15027  Biso   1.000  He
  Ar3      1.0000 0.13979  0.97140  0.16543  Biso   1.000  Ar
  Ne4      1.0000 0.36190  0.52891  0.83546  Biso   1.000  Ne
  He7      1.0000 0.32590  0.34518  0.85022  Biso   1.000  He
  He8      1.0000 0.40638  0.73253  0.79876  Biso   1.000  He
  Ar4      1.0000 0.36023  0.52860  0.83459  Biso   1.000  Ar
  Ne5      1.0000 0.63810  0.52891  0.66454  Biso   1.000  Ne
  He9      1.0000 0.59456  0.72964  0.70071  Biso   1.000  He
  He10     1.0000 0.70344  0.26859  0.63531  Biso   1.000  He
  Ar5      1.0000 0.63981  0.52859  0.66543  Biso   1.000  Ar
  Ne6      1.0000 0.63810  0.47109  0.16454  Biso   1.000  Ne
  He11     1.0000 0.59375  0.26791  0.20116  Biso   1.000  He
  He12     1.0000 0.67310  0.65217  0.15029  Biso   1.000  He
  Ar6      1.0000 0.63977  0.47140  0.16543  Biso   1.000  Ar
  Ne7      1.0000 0.86190  0.02891  0.83546  Biso   1.000  Ne
  He13     1.0000 0.82589  0.84516  0.85023  Biso   1.000  He
  He14     1.0000 0.90638  0.23248  0.79875  Biso   1.000  He
  Ar7      1.0000 0.86023  0.02860  0.83457  Biso   1.000  Ar
  Ne8      1.0000 0.86190  0.97109  0.33546  Biso   1.000  Ne
  He15     1.0000 0.79830  0.22686  0.36383  Biso   1.000  He
  He16     1.0000 0.90574  0.76947  0.29913  Biso   1.000  He
  Ar8      1.0000 0.86020  0.97141  0.33457  Biso   1.000  Ar
