data_image0
_cell_length_a       13.492
_cell_length_b       23.792
_cell_length_c       23.826
_cell_angle_alpha    64.44
_cell_angle_beta     73.88
_cell_angle_gamma    80.24

_symmetry_space_group_name_H-M    "P 1"
_symmetry_int_tables_number       1

loop_
  _symmetry_equiv_pos_as_xyz
  'x, y, z'

loop_
  _atom_site_label
  _atom_site_occupancy
  _atom_site_fract_x
  _atom_site_fract_y
  _atom_site_fract_z
  _atom_site_thermal_displace_type
  _atom_site_B_iso_or_equiv
  _atom_site_type_symbol
  O1       1.0000 0.60013  0.58446  0.46238  Biso   1.000  O
  C1       1.0000 0.60458  0.62832  0.40057  Biso   1.000  C
  C2       1.0000 0.52018  0.58971  0.51521  Biso   1.000  C
  C3       1.0000 0.52262  0.66570  0.37609  Biso   1.000  C
  C4       1.0000 0.70080  0.63110  0.35878  Biso   1.000  C
  H1       1.0000 0.45329  0.57851  0.51439  Biso   1.000  H
  H2       1.0000 0.51245  0.63312  0.51176  Biso   1.000  H
  C5       1.0000 0.55095  0.54600  0.57630  Biso   1.000  C
  C6       1.0000 0.53607  0.70608  0.31088  Biso   1.000  C
  O2       1.0000 0.42220  0.65856  0.41443  Biso   1.000  O
  C7       1.0000 0.71721  0.66931  0.29401  Biso   1.000  C
  O3       1.0000 0.78156  0.59039  0.38350  Biso   1.000  O
  C8       1.0000 0.53845  0.48211  0.60159  Biso   1.000  C
  C9       1.0000 0.58591  0.57013  0.61077  Biso   1.000  C
  C10      1.0000 0.44530  0.74609  0.28688  Biso   1.000  C
  C11      1.0000 0.63321  0.70699  0.27168  Biso   1.000  C
  C12      1.0000 0.38112  0.70280  0.44130  Biso   1.000  C
  C13      1.0000 0.82392  0.67141  0.24998  Biso   1.000  C
  C14      1.0000 0.85417  0.61520  0.39760  Biso   1.000  C
  H3       1.0000 0.51284  0.46524  0.57917  Biso   1.000  H
  C15      1.0000 0.56313  0.44372  0.65886  Biso   1.000  C
  C16      1.0000 0.61040  0.53133  0.66928  Biso   1.000  C
  H4       1.0000 0.59322  0.61381  0.59418  Biso   1.000  H
  C17      1.0000 0.44770  0.75588  0.21828  Biso   1.000  C
  C18      1.0000 0.43707  0.80592  0.29788  Biso   1.000  C
  H5       1.0000 0.38215  0.72288  0.31509  Biso   1.000  H
  H6       1.0000 0.64339  0.73440  0.22770  Biso   1.000  H
  O4       1.0000 0.32697  0.75599  0.40277  Biso   1.000  O
  H7       1.0000 0.43850  0.71721  0.44928  Biso   1.000  H
  H8       1.0000 0.33341  0.68181  0.48308  Biso   1.000  H
  H9       1.0000 0.85979  0.62959  0.26929  Biso   1.000  H
  C19      1.0000 0.88282  0.71799  0.25308  Biso   1.000  C
  C20      1.0000 0.82429  0.68107  0.18181  Biso   1.000  C
  H10      1.0000 0.87911  0.58241  0.43460  Biso   1.000  H
  H11      1.0000 0.81992  0.64970  0.40998  Biso   1.000  H
  O5       1.0000 0.94073  0.63804  0.34516  Biso   1.000  O
  H12      1.0000 0.55535  0.40023  0.67540  Biso   1.000  H
  C21      1.0000 0.59920  0.46700  0.69309  Biso   1.000  C
  C22      1.0000 0.64906  0.55604  0.70657  Biso   1.000  C
  C23      1.0000 0.34889  0.77278  0.20059  Biso   1.000  C
  H13      1.0000 0.49543  0.78899  0.18812  Biso   1.000  H
  H14      1.0000 0.47645  0.71690  0.21288  Biso   1.000  H
  C24      1.0000 0.48969  0.85798  0.25270  Biso   1.000  C
  C25      1.0000 0.38610  0.80612  0.35697  Biso   1.000  C
  C26      1.0000 0.88397  0.78118  0.21039  Biso   1.000  C
  C27      1.0000 0.93378  0.70001  0.30189  Biso   1.000  C
  H15      1.0000 0.77539  0.65319  0.18381  Biso   1.000  H
  H16      1.0000 0.80098  0.72471  0.15800  Biso   1.000  H
  C28      1.0000 0.93207  0.66718  0.14657  Biso   1.000  C
  H17      1.0000 0.61631  0.43962  0.73248  Biso   1.000  H
  C29      1.0000 0.58803  0.59641  0.73267  Biso   1.000  C
  C30      1.0000 0.74999  0.53881  0.71637  Biso   1.000  C
  C31      1.0000 0.35615  0.77379  0.13347  Biso   1.000  C
  H18      1.0000 0.32364  0.81461  0.19997  Biso   1.000  H
  H19      1.0000 0.29805  0.74250  0.23310  Biso   1.000  H
  H20      1.0000 0.52775  0.85760  0.21278  Biso   1.000  H
  C32      1.0000 0.48838  0.91088  0.26408  Biso   1.000  C
  C33      1.0000 0.38500  0.85721  0.37131  Biso   1.000  C
  H21      1.0000 0.84749  0.79460  0.17760  Biso   1.000  H
  C34      1.0000 0.93546  0.82491  0.21369  Biso   1.000  C
  C35      1.0000 0.98439  0.74350  0.30730  Biso   1.000  C
  H22      1.0000 0.98280  0.68669  0.15470  Biso   1.000  H
  H23      1.0000 0.94764  0.62150  0.16488  Biso   1.000  H
  C36      1.0000 0.94739  0.68979  0.07448  Biso   1.000  C
  C37      1.0000 0.62297  0.61762  0.76987  Biso   1.000  C
  O6       1.0000 0.48623  0.61115  0.72603  Biso   1.000  O
  C38      1.0000 0.78746  0.55923  0.75266  Biso   1.000  C
  O7       1.0000 0.81015  0.49791  0.69161  Biso   1.000  O
  C39      1.0000 0.25178  0.78360  0.11980  Biso   1.000  C
  H24      1.0000 0.39992  0.80779  0.10011  Biso   1.000  H
  H25      1.0000 0.38919  0.73379  0.13218  Biso   1.000  H
  C40      1.0000 0.43646  0.90961  0.32389  Biso   1.000  C
  C41      1.0000 0.54989  0.96738  0.21589  Biso   1.000  C
  O8       1.0000 0.33198  0.86016  0.42820  Biso   1.000  O
  C42      1.0000 0.92820  0.89430  0.17138  Biso   1.000  C
  C43      1.0000 0.98730  0.80410  0.26351  Biso   1.000  C
  O9       1.0000 0.03017  0.72519  0.35888  Biso   1.000  O
  H26      1.0000 0.93193  0.73549  0.05622  Biso   1.000  H
  C44      1.0000 0.88275  0.66017  0.05311  Biso   1.000  C
  H27      1.0000 0.02109  0.68197  0.05622  Biso   1.000  H
  C45      1.0000 0.55380  0.66140  0.79779  Biso   1.000  C
  C46      1.0000 0.72374  0.59891  0.77799  Biso   1.000  C
  C47      1.0000 0.46397  0.67223  0.68038  Biso   1.000  C
  C48      1.0000 0.89883  0.54253  0.75897  Biso   1.000  C
  C49      1.0000 0.88534  0.52513  0.63338  Biso   1.000  C
  C50      1.0000 0.17990  0.73277  0.15939  Biso   1.000  C
  H28      1.0000 0.21814  0.82219  0.12468  Biso   1.000  H
  H29      1.0000 0.26106  0.79120  0.07448  Biso   1.000  H
  O10      1.0000 0.43233  0.96153  0.33708  Biso   1.000  O
  C51      1.0000 0.65679  0.95746  0.22961  Biso   1.000  C
  C52      1.0000 0.55276  0.98178  0.14610  Biso   1.000  C
  H30      1.0000 0.51464  0.00439  0.22440  Biso   1.000  H
  C53      1.0000 0.36987  0.81652  0.48289  Biso   1.000  C
  C54      1.0000 0.83931  0.92339  0.20690  Biso   1.000  C
  H31      1.0000 0.99295  0.91217  0.16751  Biso   1.000  H
  C55      1.0000 0.91855  0.91001  0.10379  Biso   1.000  C
  O11      1.0000 0.04760  0.84455  0.26657  Biso   1.000  O
  C56      1.0000 0.12778  0.68950  0.35357  Biso   1.000  C
  H32      1.0000 0.80887  0.67181  0.06669  Biso   1.000  H
  H33      1.0000 0.89267  0.61420  0.07419  Biso   1.000  H
  C57      1.0000 0.91140  0.68064  0.98069  Biso   1.000  C
  C58      1.0000 0.56676  0.72793  0.74816  Biso   1.000  C
  H34      1.0000 0.48065  0.65194  0.80520  Biso   1.000  H
  C59      1.0000 0.57056  0.65203  0.86319  Biso   1.000  C
  H35      1.0000 0.74980  0.61402  0.80166  Biso   1.000  H
  O12      1.0000 0.43058  0.71762  0.70629  Biso   1.000  O
  H36      1.0000 0.52684  0.68613  0.64586  Biso   1.000  H
  H37      1.0000 0.40974  0.66961  0.66106  Biso   1.000  H
  H38      1.0000 0.91934  0.50164  0.75538  Biso   1.000  H
  C60      1.0000 0.96533  0.59092  0.70208  Biso   1.000  C
  C61      1.0000 0.91541  0.53445  0.82336  Biso   1.000  C
  H39      1.0000 0.89384  0.50030  0.60790  Biso   1.000  H
  H40      1.0000 0.85951  0.56784  0.60847  Biso   1.000  H
  O13      1.0000 0.98231  0.52821  0.64294  Biso   1.000  O
  C62      1.0000 0.22040  0.66830  0.16507  Biso   1.000  C
  H41      1.0000 0.11777  0.74341  0.14160  Biso   1.000  H
  H42      1.0000 0.15749  0.73200  0.20298  Biso   1.000  H
  C63      1.0000 0.51710  0.96711  0.35807  Biso   1.000  C
  C64      1.0000 0.73965  0.93227  0.19720  Biso   1.000  C
  C65      1.0000 0.67298  0.97341  0.27589  Biso   1.000  C
  H43      1.0000 0.58995  0.94659  0.13567  Biso   1.000  H
  H44      1.0000 0.48117  0.98529  0.14122  Biso   1.000  H
  C66      1.0000 0.60554  0.04206  0.09858  Biso   1.000  C
  H45      1.0000 0.43973  0.79949  0.46840  Biso   1.000  H
  H46      1.0000 0.32392  0.78130  0.50708  Biso   1.000  H
  C67      1.0000 0.37504  0.84661  0.52611  Biso   1.000  C
  C68      1.0000 0.85388  0.94078  0.25352  Biso   1.000  C
  H47      1.0000 0.90231  0.95548  0.08290  Biso   1.000  H
  H48      1.0000 0.85965  0.88829  0.10670  Biso   1.000  H
  C69      1.0000 0.01484  0.89227  0.06138  Biso   1.000  C
  C70      1.0000 0.99443  0.88129  0.30108  Biso   1.000  C
  H49      1.0000 0.18537  0.71779  0.33407  Biso   1.000  H
  H50      1.0000 0.13099  0.66780  0.32580  Biso   1.000  H
  C71      1.0000 0.13809  0.64329  0.41787  Biso   1.000  C
  H51      1.0000 0.90355  0.72672  0.95999  Biso   1.000  H
  H52      1.0000 0.98515  0.66823  0.96768  Biso   1.000  H
  C72      1.0000 0.84774  0.65364  0.95616  Biso   1.000  C
  C73      1.0000 0.50718  0.75262  0.70256  Biso   1.000  C
  C74      1.0000 0.63907  0.76452  0.74496  Biso   1.000  C
  H53      1.0000 0.64359  0.65862  0.85807  Biso   1.000  H
  H54      1.0000 0.52685  0.68370  0.87710  Biso   1.000  H
  C75      1.0000 0.54436  0.58751  0.91439  Biso   1.000  C
  C76      1.0000 0.00010  0.58390  0.64466  Biso   1.000  C
  C77      1.0000 0.98994  0.64501  0.70280  Biso   1.000  C
  H55      1.0000 0.99028  0.52652  0.82226  Biso   1.000  H
  H56      1.0000 0.89310  0.57393  0.82876  Biso   1.000  H
  C78      1.0000 0.85756  0.48152  0.88126  Biso   1.000  C
  C79      1.0000 0.25111  0.66639  0.10101  Biso   1.000  C
  H57      1.0000 0.28078  0.65579  0.18467  Biso   1.000  H
  H58      1.0000 0.16639  0.63839  0.19309  Biso   1.000  H
  H59      1.0000 0.54754  0.92478  0.38030  Biso   1.000  H
  H60      1.0000 0.49190  0.98630  0.38928  Biso   1.000  H
  O14      1.0000 0.59559  0.00366  0.30706  Biso   1.000  O
  H61      1.0000 0.72824  0.92029  0.16641  Biso   1.000  H
  C80      1.0000 0.77046  0.96360  0.28880  Biso   1.000  C
  H62      1.0000 0.57003  0.07679  0.11038  Biso   1.000  H
  H63      1.0000 0.67786  0.03779  0.10259  Biso   1.000  H
  C81      1.0000 0.60601  0.05906  0.02921  Biso   1.000  C
  C82      1.0000 0.31538  0.90092  0.52520  Biso   1.000  C
  C83      1.0000 0.43999  0.81902  0.56827  Biso   1.000  C
  O15      1.0000 0.95236  0.93879  0.26188  Biso   1.000  O
  C84      1.0000 0.99904  0.90701  0.99589  Biso   1.000  C
  H64      1.0000 0.07353  0.91527  0.05660  Biso   1.000  H
  H65      1.0000 0.03281  0.84709  0.08251  Biso   1.000  H
  H66      1.0000 0.93787  0.85752  0.33598  Biso   1.000  H
  H67      1.0000 0.04286  0.88951  0.32078  Biso   1.000  H
  C85      1.0000 0.19741  0.58789  0.42500  Biso   1.000  C
  C86      1.0000 0.09278  0.65499  0.47261  Biso   1.000  C
  H68      1.0000 0.77413  0.66724  0.96768  Biso   1.000  H
  H69      1.0000 0.85371  0.60754  0.97767  Biso   1.000  H
  C87      1.0000 0.87975  0.67294  0.88455  Biso   1.000  C
  C88      1.0000 0.51495  0.81450  0.65609  Biso   1.000  C
  C89      1.0000 0.65188  0.82552  0.69888  Biso   1.000  C
  H70      1.0000 0.68136  0.74772  0.77508  Biso   1.000  H
  H71      1.0000 0.57681  0.55632  0.89655  Biso   1.000  H
  H72      1.0000 0.46859  0.58434  0.92529  Biso   1.000  H
  C90      1.0000 0.57950  0.57102  0.97567  Biso   1.000  C
  C91      1.0000 0.06042  0.62703  0.58997  Biso   1.000  C
  C92      1.0000 0.04985  0.68963  0.65016  Biso   1.000  C
  H73      1.0000 0.96485  0.65183  0.74090  Biso   1.000  H
  H74      1.0000 0.78307  0.48782  0.88149  Biso   1.000  H
  H75      1.0000 0.88298  0.44144  0.87757  Biso   1.000  H
  C93      1.0000 0.87146  0.47803  0.94345  Biso   1.000  C
  H76      1.0000 0.27695  0.62400  0.10532  Biso   1.000  H
  H77      1.0000 0.30568  0.69539  0.07348  Biso   1.000  H
  H78      1.0000 0.19111  0.67848  0.08180  Biso   1.000  H
  O16      1.0000 0.78158  0.97516  0.33904  Biso   1.000  O
  C94      1.0000 0.68258  0.02112  0.99775  Biso   1.000  C
  H79      1.0000 0.53579  0.05435  0.02701  Biso   1.000  H
  H80      1.0000 0.62090  0.10356  0.00421  Biso   1.000  H
  H81      1.0000 0.27204  0.92080  0.49580  Biso   1.000  H
  C95      1.0000 0.32019  0.92523  0.56736  Biso   1.000  C
  C96      1.0000 0.44575  0.84383  0.61048  Biso   1.000  C
  H82      1.0000 0.48132  0.78243  0.56827  Biso   1.000  H
  H83      1.0000 0.94109  0.88308  0.00139  Biso   1.000  H
  H84      1.0000 0.97794  0.95194  0.97614  Biso   1.000  H
  C97      1.0000 0.09271  0.89271  0.94976  Biso   1.000  C
  H85      1.0000 0.22769  0.57860  0.38871  Biso   1.000  H
  C98      1.0000 0.21259  0.54630  0.48408  Biso   1.000  C
  C99      1.0000 0.10702  0.61392  0.53179  Biso   1.000  C
  H86      1.0000 0.05110  0.69232  0.46850  Biso   1.000  H
  H87      1.0000 0.83579  0.65390  0.87169  Biso   1.000  H
  H88      1.0000 0.95212  0.65892  0.87279  Biso   1.000  H
  H89      1.0000 0.87208  0.71850  0.86289  Biso   1.000  H
  C100     1.0000 0.58948  0.84879  0.65489  Biso   1.000  C
  C101     1.0000 0.73492  0.86642  0.69218  Biso   1.000  C
  H90      1.0000 0.65517  0.57464  0.96439  Biso   1.000  H
  H91      1.0000 0.56570  0.52669  0.00393  Biso   1.000  H
  C102     1.0000 0.53153  0.60840  0.01201  Biso   1.000  C
  C103     1.0000 0.08183  0.68071  0.59399  Biso   1.000  C
  C104     1.0000 0.07911  0.74761  0.65279  Biso   1.000  C
  H92      1.0000 0.94517  0.46714  0.94489  Biso   1.000  H
  H93      1.0000 0.85419  0.51984  0.94426  Biso   1.000  H
  C105     1.0000 0.80744  0.43207  0.00182  Biso   1.000  C
  C106     1.0000 0.85489  0.02081  0.32298  Biso   1.000  C
  H94      1.0000 0.66464  0.97689  0.02080  Biso   1.000  H
  C107     1.0000 0.68598  0.04231  0.92695  Biso   1.000  C
  H95      1.0000 0.75222  0.02346  0.00229  Biso   1.000  H
  H96      1.0000 0.27894  0.96183  0.56736  Biso   1.000  H
  C108     1.0000 0.38404  0.89763  0.60967  Biso   1.000  C
  H97      1.0000 0.11795  0.84872  0.97046  Biso   1.000  H
  H98      1.0000 0.14883  0.91963  0.94058  Biso   1.000  H
  C109     1.0000 0.06863  0.90322  0.88665  Biso   1.000  C
  H99      1.0000 0.25411  0.50893  0.48810  Biso   1.000  H
  C110     1.0000 0.16792  0.55841  0.53758  Biso   1.000  C
  O17      1.0000 0.60152  0.90982  0.60809  Biso   1.000  O
  C111     1.0000 0.83358  0.85523  0.64758  Biso   1.000  C
  H100     1.0000 0.71028  0.91081  0.67048  Biso   1.000  H
  C112     1.0000 0.75007  0.85831  0.75677  Biso   1.000  C
  H101     1.0000 0.55206  0.65205  0.98676  Biso   1.000  H
  H102     1.0000 0.45537  0.60840  0.02071  Biso   1.000  H
  C113     1.0000 0.56663  0.58088  0.07693  Biso   1.000  C
  O18      1.0000 0.14925  0.72161  0.54116  Biso   1.000  O
  C114     1.0000 0.00008  0.80009  0.62961  Biso   1.000  C
  H103     1.0000 0.14611  0.76013  0.62067  Biso   1.000  H
  C115     1.0000 0.09903  0.73401  0.71809  Biso   1.000  C
  H104     1.0000 0.82588  0.38920  0.00412  Biso   1.000  H
  H105     1.0000 0.73300  0.44178  0.00230  Biso   1.000  H
  C116     1.0000 0.83373  0.43889  0.05909  Biso   1.000  C
  C117     1.0000 0.92938  0.99492  0.36658  Biso   1.000  C
  H106     1.0000 0.81728  0.05889  0.32718  Biso   1.000  H
  H107     1.0000 0.89384  0.03259  0.27809  Biso   1.000  H
  H108     1.0000 0.61866  0.03432  0.92356  Biso   1.000  H
  H109     1.0000 0.69274  0.08803  0.90587  Biso   1.000  H
  C118     1.0000 0.76918  0.01309  0.89029  Biso   1.000  C
  H110     1.0000 0.38592  0.91512  0.63840  Biso   1.000  H
  H111     1.0000 0.03199  0.94471  0.86987  Biso   1.000  H
  H112     1.0000 0.13427  0.90342  0.85515  Biso   1.000  H
  C119     1.0000 0.00282  0.85391  0.89387  Biso   1.000  C
  H113     1.0000 0.17846  0.52932  0.57826  Biso   1.000  H
  C120     1.0000 0.68443  0.91780  0.55417  Biso   1.000  C
  C121     1.0000 0.84917  0.89132  0.58170  Biso   1.000  C
  C122     1.0000 0.91047  0.81052  0.67010  Biso   1.000  C
  H114     1.0000 0.76303  0.81354  0.78258  Biso   1.000  H
  H115     1.0000 0.81176  0.88022  0.74926  Biso   1.000  H
  C123     1.0000 0.65708  0.88370  0.79430  Biso   1.000  C
  H116     1.0000 0.52361  0.54529  0.10700  Biso   1.000  H
  H117     1.0000 0.63864  0.56358  0.06880  Biso   1.000  H
  C124     1.0000 0.56383  0.61408  0.10441  Biso   1.000  C
  C125     1.0000 0.10542  0.78003  0.50287  Biso   1.000  C
  C126     1.0000 0.01411  0.83782  0.56378  Biso   1.000  C
  H118     1.0000 0.03176  0.73023  0.74936  Biso   1.000  H
  H119     1.0000 0.13857  0.69331  0.73287  Biso   1.000  H
  C127     1.0000 0.15827  0.78372  0.71738  Biso   1.000  C
  H120     1.0000 0.89984  0.41520  0.06689  Biso   1.000  H
  H121     1.0000 0.84355  0.48337  0.04671  Biso   1.000  H
  C128     1.0000 0.75716  0.41770  0.11632  Biso   1.000  C
  C129     1.0000 0.90055  0.95100  0.42949  Biso   1.000  C
  C130     1.0000 0.02793  0.01667  0.34430  Biso   1.000  C
  H122     1.0000 0.76092  0.96751  0.91027  Biso   1.000  H
  H123     1.0000 0.83647  0.01972  0.89487  Biso   1.000  H
  C131     1.0000 0.77326  0.03620  0.82025  Biso   1.000  C
  H124     1.0000 0.93982  0.85141  0.92805  Biso   1.000  H
  C132     1.0000 0.97112  0.86571  0.83387  Biso   1.000  C
  H125     1.0000 0.04180  0.81291  0.90769  Biso   1.000  H
  H126     1.0000 0.66180  0.94882  0.51549  Biso   1.000  H
  H127     1.0000 0.70142  0.87772  0.54939  Biso   1.000  H
  O19      1.0000 0.77467  0.93766  0.55785  Biso   1.000  O
  C133     1.0000 0.94085  0.88531  0.53896  Biso   1.000  C
  H128     1.0000 0.90103  0.78641  0.71480  Biso   1.000  H
  H129     1.0000 0.64515  0.92872  0.76819  Biso   1.000  H
  H130     1.0000 0.59548  0.86252  0.80027  Biso   1.000  H
  C134     1.0000 0.66628  0.87611  0.85907  Biso   1.000  C
  H131     1.0000 0.49130  0.63031  0.11350  Biso   1.000  H
  H132     1.0000 0.60494  0.65038  0.07372  Biso   1.000  H
  C135     1.0000 0.60065  0.58858  0.16671  Biso   1.000  C
  O20      1.0000 0.10504  0.82822  0.52309  Biso   1.000  O
  H133     1.0000 0.14507  0.79292  0.45798  Biso   1.000  H
  H134     1.0000 0.03348  0.77460  0.50431  Biso   1.000  H
  H135     1.0000 0.22121  0.79213  0.68229  Biso   1.000  H
  H136     1.0000 0.11462  0.82302  0.70958  Biso   1.000  H
  C136     1.0000 0.18846  0.76222  0.78077  Biso   1.000  C
  H137     1.0000 0.74945  0.37260  0.13080  Biso   1.000  H
  H138     1.0000 0.69006  0.44018  0.10900  Biso   1.000  H
  C137     1.0000 0.78774  0.42919  0.16771  Biso   1.000  C
  C138     1.0000 0.96865  0.93100  0.47027  Biso   1.000  C
  H139     1.0000 0.83415  0.93470  0.44469  Biso   1.000  H
  C139     1.0000 0.09609  0.99688  0.38379  Biso   1.000  C
  H140     1.0000 0.04887  0.04570  0.30127  Biso   1.000  H
  H141     1.0000 0.82996  0.01360  0.80108  Biso   1.000  H
  H142     1.0000 0.78477  0.08089  0.79917  Biso   1.000  H
  H143     1.0000 0.70778  0.02921  0.81475  Biso   1.000  H
  H144     1.0000 0.92930  0.83193  0.84195  Biso   1.000  H
  H145     1.0000 0.93053  0.90552  0.82058  Biso   1.000  H
  H146     1.0000 0.03289  0.86732  0.79988  Biso   1.000  H
  H147     1.0000 0.60688  0.89931  0.87628  Biso   1.000  H
  H148     1.0000 0.73001  0.89521  0.85348  Biso   1.000  H
  C140     1.0000 0.66928  0.80903  0.90760  Biso   1.000  C
  H149     1.0000 0.58586  0.62021  0.18439  Biso   1.000  H
  H150     1.0000 0.67524  0.57821  0.15800  Biso   1.000  H
  H151     1.0000 0.56447  0.55101  0.19749  Biso   1.000  H
  H152     1.0000 0.12433  0.75673  0.81485  Biso   1.000  H
  H153     1.0000 0.22568  0.72069  0.78990  Biso   1.000  H
  C141     1.0000 0.25535  0.80484  0.78526  Biso   1.000  C
  H154     1.0000 0.82623  0.46711  0.14758  Biso   1.000  H
  H155     1.0000 0.83127  0.39349  0.18989  Biso   1.000  H
  H156     1.0000 0.72534  0.43422  0.19850  Biso   1.000  H
  C142     1.0000 0.06570  0.95528  0.44679  Biso   1.000  C
  H157     1.0000 0.16367  0.01171  0.36768  Biso   1.000  H
  H158     1.0000 0.61999  0.78602  0.90258  Biso   1.000  H
  H159     1.0000 0.73928  0.78963  0.89789  Biso   1.000  H
  C143     1.0000 0.64357  0.80120  0.97629  Biso   1.000  C
  H160     1.0000 0.31842  0.81231  0.75017  Biso   1.000  H
  H161     1.0000 0.21697  0.84552  0.77948  Biso   1.000  H
  C144     1.0000 0.28626  0.77761  0.84827  Biso   1.000  C
  H162     1.0000 0.11172  0.94319  0.47428  Biso   1.000  H
  H163     1.0000 0.56970  0.81462  0.98667  Biso   1.000  H
  C145     1.0000 0.69604  0.82973  0.99685  Biso   1.000  C
  H164     1.0000 0.64958  0.75576  0.00292  Biso   1.000  H
  H165     1.0000 0.32145  0.73604  0.85458  Biso   1.000  H
  H166     1.0000 0.22278  0.77152  0.88288  Biso   1.000  H
  C146     1.0000 0.35677  0.81671  0.85506  Biso   1.000  C
  H167     1.0000 0.69280  0.87481  0.96888  Biso   1.000  H
  H168     1.0000 0.76939  0.81471  0.98839  Biso   1.000  H
  C147     1.0000 0.66700  0.82416  0.06493  Biso   1.000  C
  H169     1.0000 0.32495  0.85961  0.84497  Biso   1.000  H
  H170     1.0000 0.42353  0.81935  0.82355  Biso   1.000  H
  C148     1.0000 0.37687  0.79023  0.92165  Biso   1.000  C
  H171     1.0000 0.71644  0.84568  0.07100  Biso   1.000  H
  H172     1.0000 0.66863  0.77999  0.09428  Biso   1.000  H
  H173     1.0000 0.59745  0.84319  0.07363  Biso   1.000  H
  H174     1.0000 0.42238  0.81711  0.92356  Biso   1.000  H
  H175     1.0000 0.41008  0.74812  0.93160  Biso   1.000  H
  H176     1.0000 0.31132  0.78832  0.95296  Biso   1.000  H
  O21      1.0000 0.40015  0.41553  0.53758  Biso   1.000  O
  C149     1.0000 0.47999  0.41031  0.48480  Biso   1.000  C
  C150     1.0000 0.39561  0.37172  0.59939  Biso   1.000  C
  C151     1.0000 0.44930  0.45401  0.42370  Biso   1.000  C
  H177     1.0000 0.54690  0.42152  0.48557  Biso   1.000  H
  H178     1.0000 0.48781  0.36691  0.48819  Biso   1.000  H
  C152     1.0000 0.29940  0.36893  0.64117  Biso   1.000  C
  C153     1.0000 0.47765  0.33434  0.62387  Biso   1.000  C
  C154     1.0000 0.41428  0.42991  0.38919  Biso   1.000  C
  C155     1.0000 0.46181  0.51792  0.39837  Biso   1.000  C
  C156     1.0000 0.28304  0.33070  0.70600  Biso   1.000  C
  O22      1.0000 0.21861  0.40963  0.61651  Biso   1.000  O
  C157     1.0000 0.46414  0.29391  0.68908  Biso   1.000  C
  O23      1.0000 0.57798  0.34145  0.58558  Biso   1.000  O
  C158     1.0000 0.38979  0.46871  0.33067  Biso   1.000  C
  H179     1.0000 0.40698  0.38623  0.40578  Biso   1.000  H
  C159     1.0000 0.43706  0.55631  0.34110  Biso   1.000  C
  H180     1.0000 0.48743  0.53479  0.42079  Biso   1.000  H
  C160     1.0000 0.36706  0.29304  0.72828  Biso   1.000  C
  C161     1.0000 0.17634  0.32862  0.74998  Biso   1.000  C
  C162     1.0000 0.14600  0.38481  0.60240  Biso   1.000  C
  C163     1.0000 0.55496  0.25395  0.71307  Biso   1.000  C
  C164     1.0000 0.61914  0.29723  0.55866  Biso   1.000  C
  C165     1.0000 0.35120  0.44399  0.29339  Biso   1.000  C
  C166     1.0000 0.40097  0.53301  0.30691  Biso   1.000  C
  H181     1.0000 0.44490  0.59978  0.32460  Biso   1.000  H
  H182     1.0000 0.35687  0.26563  0.77226  Biso   1.000  H
  H183     1.0000 0.14041  0.37044  0.73067  Biso   1.000  H
  C167     1.0000 0.11745  0.28205  0.74687  Biso   1.000  C
  C168     1.0000 0.17597  0.31890  0.81820  Biso   1.000  C
  H184     1.0000 0.12107  0.41760  0.56540  Biso   1.000  H
  H185     1.0000 0.18034  0.35033  0.58997  Biso   1.000  H
  O24      1.0000 0.05954  0.36200  0.65480  Biso   1.000  O
  C169     1.0000 0.56312  0.19412  0.70208  Biso   1.000  C
  H186     1.0000 0.61804  0.27715  0.68487  Biso   1.000  H
  C170     1.0000 0.55258  0.24412  0.78168  Biso   1.000  C
  O25      1.0000 0.67322  0.24399  0.59724  Biso   1.000  O
  H187     1.0000 0.56170  0.28283  0.55068  Biso   1.000  H
  H188     1.0000 0.66678  0.31823  0.51688  Biso   1.000  H
  C171     1.0000 0.41218  0.40359  0.26728  Biso   1.000  C
  C172     1.0000 0.25028  0.46123  0.28359  Biso   1.000  C
  H189     1.0000 0.38388  0.56041  0.26747  Biso   1.000  H
  C173     1.0000 0.06641  0.30003  0.69806  Biso   1.000  C
  C174     1.0000 0.11623  0.21885  0.78956  Biso   1.000  C
  H190     1.0000 0.22486  0.34682  0.81619  Biso   1.000  H
  H191     1.0000 0.19928  0.27532  0.84196  Biso   1.000  H
  C175     1.0000 0.06813  0.33285  0.85338  Biso   1.000  C
  C176     1.0000 0.61409  0.19391  0.64299  Biso   1.000  C
  C177     1.0000 0.51051  0.14205  0.74726  Biso   1.000  C
  H192     1.0000 0.50474  0.21103  0.81189  Biso   1.000  H
  H193     1.0000 0.52374  0.28313  0.78708  Biso   1.000  H
  C178     1.0000 0.65138  0.22725  0.79936  Biso   1.000  C
  C179     1.0000 0.37722  0.38242  0.23009  Biso   1.000  C
  O26      1.0000 0.51397  0.38888  0.27393  Biso   1.000  O
  C180     1.0000 0.21273  0.44081  0.24730  Biso   1.000  C
  O27      1.0000 0.19005  0.50208  0.30835  Biso   1.000  O
  C181     1.0000 0.01580  0.25653  0.69266  Biso   1.000  C
  C182     1.0000 0.06473  0.17513  0.78627  Biso   1.000  C
  H194     1.0000 0.15278  0.20543  0.82236  Biso   1.000  H
  H195     1.0000 0.01746  0.31334  0.84526  Biso   1.000  H
  H196     1.0000 0.05255  0.37853  0.83508  Biso   1.000  H
  C183     1.0000 0.05288  0.31025  0.92548  Biso   1.000  C
  C184     1.0000 0.61525  0.14281  0.62870  Biso   1.000  C
  C185     1.0000 0.51182  0.08911  0.73588  Biso   1.000  C
  H197     1.0000 0.47244  0.14244  0.78717  Biso   1.000  H
  H198     1.0000 0.67655  0.18543  0.79999  Biso   1.000  H
  H199     1.0000 0.70214  0.25754  0.76686  Biso   1.000  H
  C186     1.0000 0.64405  0.22624  0.86648  Biso   1.000  C
  C187     1.0000 0.44648  0.33859  0.20217  Biso   1.000  C
  C188     1.0000 0.27643  0.40110  0.22201  Biso   1.000  C
  C189     1.0000 0.53630  0.32780  0.31958  Biso   1.000  C
  C190     1.0000 0.10136  0.45751  0.24099  Biso   1.000  C
  C191     1.0000 0.11485  0.47491  0.36658  Biso   1.000  C
  O28      1.0000 0.97002  0.27485  0.64108  Biso   1.000  O
  C192     1.0000 0.01295  0.19592  0.73650  Biso   1.000  C
  C193     1.0000 0.07207  0.10573  0.82857  Biso   1.000  C
  H200     1.0000 0.06824  0.26452  0.94379  Biso   1.000  H
  C194     1.0000 0.11743  0.33985  0.94689  Biso   1.000  C
  H201     1.0000 0.97909  0.31805  0.94379  Biso   1.000  H
  O29      1.0000 0.66821  0.13987  0.57176  Biso   1.000  O
  C195     1.0000 0.56373  0.09043  0.67607  Biso   1.000  C
  C196     1.0000 0.45030  0.03266  0.78407  Biso   1.000  C
  H202     1.0000 0.60027  0.19225  0.89985  Biso   1.000  H
  H203     1.0000 0.61107  0.26625  0.86777  Biso   1.000  H
  C197     1.0000 0.74849  0.21643  0.88016  Biso   1.000  C
  C198     1.0000 0.43343  0.27210  0.25179  Biso   1.000  C
  H204     1.0000 0.51952  0.34808  0.19481  Biso   1.000  H
  C199     1.0000 0.42963  0.34801  0.13677  Biso   1.000  C
  H205     1.0000 0.25047  0.38602  0.19830  Biso   1.000  H
  O30      1.0000 0.56969  0.28241  0.29367  Biso   1.000  O
  H206     1.0000 0.47335  0.31391  0.35410  Biso   1.000  H
  H207     1.0000 0.59045  0.33042  0.33890  Biso   1.000  H
  H208     1.0000 0.08086  0.49839  0.24458  Biso   1.000  H
  C200     1.0000 0.03486  0.40912  0.29788  Biso   1.000  C
  C201     1.0000 0.08486  0.46559  0.17660  Biso   1.000  C
  H209     1.0000 0.10641  0.49972  0.39210  Biso   1.000  H
  H210     1.0000 0.14068  0.43220  0.39148  Biso   1.000  H
  O31      1.0000 0.01786  0.47181  0.35706  Biso   1.000  O
  C202     1.0000 0.87241  0.31053  0.64638  Biso   1.000  C
  O32      1.0000 0.95266  0.15548  0.73339  Biso   1.000  O
  C203     1.0000 0.16095  0.07665  0.79305  Biso   1.000  C
  H211     1.0000 0.00723  0.08784  0.83249  Biso   1.000  H
  C204     1.0000 0.08164  0.09003  0.89617  Biso   1.000  C
  H212     1.0000 0.19140  0.32823  0.93327  Biso   1.000  H
  H213     1.0000 0.10759  0.38584  0.92576  Biso   1.000  H
  C205     1.0000 0.08878  0.31937  0.01932  Biso   1.000  C
  C206     1.0000 0.63032  0.18351  0.51707  Biso   1.000  C
  O33      1.0000 0.56793  0.03851  0.66288  Biso   1.000  O
  C207     1.0000 0.34340  0.04251  0.77039  Biso   1.000  C
  C208     1.0000 0.44744  0.01826  0.85386  Biso   1.000  C
  H214     1.0000 0.48555  0.99564  0.77556  Biso   1.000  H
  H215     1.0000 0.78205  0.17785  0.87528  Biso   1.000  H
  H216     1.0000 0.73914  0.20883  0.92548  Biso   1.000  H
  C209     1.0000 0.82038  0.26722  0.84057  Biso   1.000  C
  C210     1.0000 0.36112  0.23552  0.25500  Biso   1.000  C
  C211     1.0000 0.49309  0.24741  0.29740  Biso   1.000  C
  H217     1.0000 0.35661  0.34142  0.14189  Biso   1.000  H
  H218     1.0000 0.47333  0.31631  0.12291  Biso   1.000  H
  C212     1.0000 0.45583  0.41247  0.08562  Biso   1.000  C
  C213     1.0000 0.01023  0.35501  0.29721  Biso   1.000  C
  C214     1.0000 0.00011  0.41609  0.35529  Biso   1.000  C
  H219     1.0000 0.00991  0.47351  0.17769  Biso   1.000  H
  H220     1.0000 0.10717  0.42610  0.17119  Biso   1.000  H
  C215     1.0000 0.14265  0.51847  0.11870  Biso   1.000  C
  C216     1.0000 0.86212  0.35670  0.58209  Biso   1.000  C
  H221     1.0000 0.81482  0.28224  0.66589  Biso   1.000  H
  H222     1.0000 0.86927  0.33223  0.67416  Biso   1.000  H
  C217     1.0000 0.00584  0.11875  0.69888  Biso   1.000  C
  C218     1.0000 0.14630  0.05923  0.74649  Biso   1.000  C
  C219     1.0000 0.26055  0.06773  0.80276  Biso   1.000  C
  H223     1.0000 0.09796  0.04456  0.91706  Biso   1.000  H
  H224     1.0000 0.14054  0.11174  0.89326  Biso   1.000  H
  C220     1.0000 0.98537  0.10772  0.93858  Biso   1.000  C
  H225     1.0000 0.09670  0.27330  0.04002  Biso   1.000  H
  H226     1.0000 0.01510  0.33179  0.03232  Biso   1.000  H
  C221     1.0000 0.15253  0.34639  0.04380  Biso   1.000  C
  C222     1.0000 0.62521  0.15341  0.47390  Biso   1.000  C
  H227     1.0000 0.56052  0.20053  0.53160  Biso   1.000  H
  H228     1.0000 0.67627  0.21873  0.49288  Biso   1.000  H
  C223     1.0000 0.48310  0.03292  0.64189  Biso   1.000  C
  C224     1.0000 0.32721  0.02662  0.72407  Biso   1.000  C
  H229     1.0000 0.41024  0.05345  0.86428  Biso   1.000  H
  H230     1.0000 0.51908  0.01473  0.85879  Biso   1.000  H
  C225     1.0000 0.39466  0.95793  0.90138  Biso   1.000  C
  H231     1.0000 0.88250  0.25663  0.85836  Biso   1.000  H
  H232     1.0000 0.84278  0.26803  0.79697  Biso   1.000  H
  C226     1.0000 0.77987  0.33174  0.83488  Biso   1.000  C
  H233     1.0000 0.31883  0.25232  0.22488  Biso   1.000  H
  C227     1.0000 0.34838  0.17452  0.30108  Biso   1.000  C
  C228     1.0000 0.48524  0.18554  0.34387  Biso   1.000  C
  H234     1.0000 0.42347  0.44367  0.10340  Biso   1.000  H
  H235     1.0000 0.53166  0.41568  0.07472  Biso   1.000  H
  C229     1.0000 0.42070  0.42901  0.02429  Biso   1.000  C
  C230     1.0000 0.95042  0.31041  0.34980  Biso   1.000  C
  H236     1.0000 0.03532  0.34819  0.25911  Biso   1.000  H
  C231     1.0000 0.93977  0.37300  0.40998  Biso   1.000  C
  H237     1.0000 0.21711  0.51219  0.11851  Biso   1.000  H
  H238     1.0000 0.11721  0.55859  0.12238  Biso   1.000  H
  C232     1.0000 0.12874  0.52197  0.05651  Biso   1.000  C
  C233     1.0000 0.90739  0.34502  0.52740  Biso   1.000  C
  C234     1.0000 0.80287  0.41211  0.57496  Biso   1.000  C
  O34      1.0000 0.04782  0.06123  0.73812  Biso   1.000  O
  H239     1.0000 0.06232  0.14252  0.66398  Biso   1.000  H
  H240     1.0000 0.95733  0.11052  0.67918  Biso   1.000  H
  C235     1.0000 0.22973  0.03643  0.71116  Biso   1.000  C
  H241     1.0000 0.27194  0.07973  0.83359  Biso   1.000  H
  H242     1.0000 0.92667  0.08476  0.94336  Biso   1.000  H
  H243     1.0000 0.96737  0.15293  0.91749  Biso   1.000  H
  C236     1.0000 0.00114  0.09301  0.00412  Biso   1.000  C
  H244     1.0000 0.22611  0.33277  0.03232  Biso   1.000  H
  H245     1.0000 0.14648  0.39249  0.02228  Biso   1.000  H
  C237     1.0000 0.12052  0.32709  0.11541  Biso   1.000  C
  C238     1.0000 0.56020  0.18101  0.43169  Biso   1.000  C
  C239     1.0000 0.68480  0.09910  0.47481  Biso   1.000  C
  H246     1.0000 0.45273  0.07525  0.61966  Biso   1.000  H
  H247     1.0000 0.50829  0.01373  0.61067  Biso   1.000  H
  O35      1.0000 0.40468  0.99637  0.69290  Biso   1.000  O
  H248     1.0000 0.43017  0.92324  0.88957  Biso   1.000  H
  H249     1.0000 0.32241  0.96225  0.89737  Biso   1.000  H
  C240     1.0000 0.39418  0.94097  0.97075  Biso   1.000  C
  H250     1.0000 0.71948  0.34424  0.81528  Biso   1.000  H
  H251     1.0000 0.83388  0.36165  0.80687  Biso   1.000  H
  C241     1.0000 0.74906  0.33363  0.89899  Biso   1.000  C
  C242     1.0000 0.41078  0.15118  0.34511  Biso   1.000  C
  C243     1.0000 0.26528  0.13361  0.30778  Biso   1.000  C
  C244     1.0000 0.55451  0.15620  0.38948  Biso   1.000  C
  H252     1.0000 0.34500  0.42537  0.03562  Biso   1.000  H
  H253     1.0000 0.43447  0.47333  0.99608  Biso   1.000  H
  C245     1.0000 0.46873  0.39164  0.98795  Biso   1.000  C
  C246     1.0000 0.92109  0.25243  0.34717  Biso   1.000  C
  C247     1.0000 0.91843  0.31932  0.40597  Biso   1.000  C
  C248     1.0000 0.89325  0.38611  0.46816  Biso   1.000  C
  H254     1.0000 0.05500  0.53288  0.05512  Biso   1.000  H
  H255     1.0000 0.14600  0.48019  0.05569  Biso   1.000  H
  C249     1.0000 0.19281  0.56794  0.99818  Biso   1.000  C
  H256     1.0000 0.94915  0.30770  0.53151  Biso   1.000  H
  C250     1.0000 0.78760  0.45373  0.51587  Biso   1.000  C
  H257     1.0000 0.77249  0.42142  0.61130  Biso   1.000  H
  O36      1.0000 0.21861  0.02487  0.66092  Biso   1.000  O
  H258     1.0000 0.05918  0.11696  0.99857  Biso   1.000  H
  C251     1.0000 0.90749  0.10728  0.05020  Biso   1.000  C
  H259     1.0000 0.02225  0.04810  0.02381  Biso   1.000  H
  H260     1.0000 0.16440  0.34607  0.12832  Biso   1.000  H
  H261     1.0000 0.04813  0.34109  0.12722  Biso   1.000  H
  H262     1.0000 0.12809  0.28152  0.13711  Biso   1.000  H
  H263     1.0000 0.51887  0.21761  0.43169  Biso   1.000  H
  C252     1.0000 0.68000  0.07480  0.43260  Biso   1.000  C
  H264     1.0000 0.72823  0.07923  0.50416  Biso   1.000  H
  H265     1.0000 0.46440  0.94562  0.97300  Biso   1.000  H
  H266     1.0000 0.37929  0.89647  0.99575  Biso   1.000  H
  C253     1.0000 0.31761  0.97891  0.00221  Biso   1.000  C
  H267     1.0000 0.72330  0.37602  0.89469  Biso   1.000  H
  H268     1.0000 0.69459  0.30465  0.92648  Biso   1.000  H
  H269     1.0000 0.80909  0.32155  0.91816  Biso   1.000  H
  O37      1.0000 0.39868  0.09018  0.39187  Biso   1.000  O
  C254     1.0000 0.16668  0.14481  0.35238  Biso   1.000  C
  H270     1.0000 0.28999  0.08923  0.32948  Biso   1.000  H
  C255     1.0000 0.25012  0.14172  0.24319  Biso   1.000  C
  C256     1.0000 0.61615  0.10240  0.39029  Biso   1.000  C
  H271     1.0000 0.44813  0.34798  0.01319  Biso   1.000  H
  H272     1.0000 0.54482  0.39163  0.97925  Biso   1.000  H
  C257     1.0000 0.43362  0.41914  0.92308  Biso   1.000  C
  C258     1.0000 0.00018  0.19989  0.37040  Biso   1.000  C
  H273     1.0000 0.85408  0.23991  0.37929  Biso   1.000  H
  C259     1.0000 0.90114  0.26601  0.28191  Biso   1.000  C
  O38      1.0000 0.85102  0.27843  0.45879  Biso   1.000  O
  C260     1.0000 0.83227  0.44163  0.46238  Biso   1.000  C
  H274     1.0000 0.17430  0.61082  0.99589  Biso   1.000  H
  H275     1.0000 0.26719  0.55826  0.99766  Biso   1.000  H
  C261     1.0000 0.16647  0.56115  0.94086  Biso   1.000  C
  H276     1.0000 0.74614  0.49109  0.51191  Biso   1.000  H
  C262     1.0000 0.14537  0.97922  0.67698  Biso   1.000  C
  H277     1.0000 0.88232  0.15131  0.02950  Biso   1.000  H
  H278     1.0000 0.85144  0.08040  0.05938  Biso   1.000  H
  C263     1.0000 0.93164  0.09682  0.11331  Biso   1.000  C
  H279     1.0000 0.72125  0.03821  0.43260  Biso   1.000  H
  H280     1.0000 0.33555  0.02315  0.97916  Biso   1.000  H
  H281     1.0000 0.24797  0.97658  0.99766  Biso   1.000  H
  C264     1.0000 0.31421  0.95772  0.07301  Biso   1.000  C
  C265     1.0000 0.31576  0.08224  0.44579  Biso   1.000  C
  C266     1.0000 0.08978  0.18949  0.32991  Biso   1.000  C
  C267     1.0000 0.15108  0.10870  0.41830  Biso   1.000  C
  H282     1.0000 0.23716  0.18650  0.21737  Biso   1.000  H
  H283     1.0000 0.18843  0.11981  0.25069  Biso   1.000  H
  C268     1.0000 0.34317  0.11632  0.20571  Biso   1.000  C
  H284     1.0000 0.61425  0.08490  0.36160  Biso   1.000  H
  H285     1.0000 0.47658  0.45474  0.89296  Biso   1.000  H
  H286     1.0000 0.36163  0.43645  0.93116  Biso   1.000  H
  C269     1.0000 0.43634  0.38593  0.89559  Biso   1.000  C
  C270     1.0000 0.98609  0.16222  0.43618  Biso   1.000  C
  H287     1.0000 0.96850  0.26980  0.25060  Biso   1.000  H
  H288     1.0000 0.86170  0.30672  0.26709  Biso   1.000  H
  C271     1.0000 0.84200  0.21631  0.28258  Biso   1.000  C
  C272     1.0000 0.89485  0.22001  0.49709  Biso   1.000  C
  H289     1.0000 0.82181  0.47072  0.42170  Biso   1.000  H
  H290     1.0000 0.10035  0.58483  0.93307  Biso   1.000  H
  H291     1.0000 0.15672  0.51666  0.95325  Biso   1.000  H
  C273     1.0000 0.24309  0.58231  0.88369  Biso   1.000  C
  C274     1.0000 0.07081  0.00512  0.63338  Biso   1.000  C
  H292     1.0000 0.18298  0.94114  0.67277  Biso   1.000  H
  H293     1.0000 0.10635  0.96745  0.72187  Biso   1.000  H
  H294     1.0000 0.96821  0.05532  0.13009  Biso   1.000  H
  H295     1.0000 0.86593  0.09661  0.14481  Biso   1.000  H
  C275     1.0000 0.99745  0.14612  0.10609  Biso   1.000  C
  H296     1.0000 0.38153  0.96571  0.07640  Biso   1.000  H
  H297     1.0000 0.30746  0.91200  0.09409  Biso   1.000  H
  C276     1.0000 0.23101  0.98688  0.10972  Biso   1.000  C
  H298     1.0000 0.33839  0.05122  0.48447  Biso   1.000  H
  H299     1.0000 0.29877  0.12231  0.45057  Biso   1.000  H
  O39      1.0000 0.22560  0.06237  0.44211  Biso   1.000  O
  H300     1.0000 0.09915  0.21361  0.28521  Biso   1.000  H
  C277     1.0000 0.05935  0.11472  0.46099  Biso   1.000  C
  H301     1.0000 0.35502  0.07130  0.23181  Biso   1.000  H
  H302     1.0000 0.40471  0.13751  0.19969  Biso   1.000  H
  C278     1.0000 0.33392  0.12393  0.14088  Biso   1.000  C
  H303     1.0000 0.50889  0.36972  0.88646  Biso   1.000  H
  H304     1.0000 0.39531  0.34963  0.92628  Biso   1.000  H
  C279     1.0000 0.39961  0.41145  0.83325  Biso   1.000  C
  O40      1.0000 0.89523  0.17181  0.47686  Biso   1.000  O
  H305     1.0000 0.77898  0.20791  0.31767  Biso   1.000  H
  H306     1.0000 0.88557  0.17701  0.29037  Biso   1.000  H
  C280     1.0000 0.81180  0.23781  0.21919  Biso   1.000  C
  H307     1.0000 0.85512  0.20712  0.54198  Biso   1.000  H
  H308     1.0000 0.96669  0.22542  0.49570  Biso   1.000  H
  H309     1.0000 0.25081  0.62744  0.86915  Biso   1.000  H
  H310     1.0000 0.31022  0.55982  0.89095  Biso   1.000  H
  C281     1.0000 0.21245  0.57084  0.83225  Biso   1.000  C
  C282     1.0000 0.09972  0.04903  0.57047  Biso   1.000  C
  C283     1.0000 0.97227  0.98332  0.65566  Biso   1.000  C
  H311     1.0000 0.95845  0.18710  0.09232  Biso   1.000  H
  H312     1.0000 0.06039  0.14858  0.07191  Biso   1.000  H
  C284     1.0000 0.02907  0.13433  0.16608  Biso   1.000  C
  H313     1.0000 0.16372  0.98032  0.10508  Biso   1.000  H
  C285     1.0000 0.22694  0.96379  0.17971  Biso   1.000  C
  H314     1.0000 0.23927  0.03252  0.08969  Biso   1.000  H
  C286     1.0000 0.03161  0.06903  0.52969  Biso   1.000  C
  H315     1.0000 0.39332  0.10072  0.12367  Biso   1.000  H
  H316     1.0000 0.27025  0.10482  0.14648  Biso   1.000  H
  C287     1.0000 0.33089  0.19099  0.09241  Biso   1.000  C
  H317     1.0000 0.41441  0.37982  0.81556  Biso   1.000  H
  H318     1.0000 0.32502  0.42182  0.84195  Biso   1.000  H
  H319     1.0000 0.43579  0.44903  0.80247  Biso   1.000  H
  H320     1.0000 0.87587  0.24330  0.18510  Biso   1.000  H
  H321     1.0000 0.77458  0.27928  0.21011  Biso   1.000  H
  C288     1.0000 0.74485  0.19519  0.21470  Biso   1.000  C
  H322     1.0000 0.17397  0.53293  0.85238  Biso   1.000  H
  H323     1.0000 0.16900  0.60654  0.81007  Biso   1.000  H
  H324     1.0000 0.27485  0.56581  0.80146  Biso   1.000  H
  H325     1.0000 0.16612  0.06533  0.55527  Biso   1.000  H
  C289     1.0000 0.90410  0.00315  0.61617  Biso   1.000  C
  H326     1.0000 0.95139  0.95433  0.69868  Biso   1.000  H
  H327     1.0000 0.96736  0.13269  0.20012  Biso   1.000  H
  H328     1.0000 0.07089  0.16811  0.15800  Biso   1.000  H
  H329     1.0000 0.06972  0.09450  0.17942  Biso   1.000  H
  H330     1.0000 0.17023  0.98643  0.19888  Biso   1.000  H
  H331     1.0000 0.21544  0.91910  0.20079  Biso   1.000  H
  H332     1.0000 0.29248  0.97083  0.18521  Biso   1.000  H
  C290     1.0000 0.93450  0.04472  0.55316  Biso   1.000  C
  H333     1.0000 0.38027  0.21401  0.09738  Biso   1.000  H
  H334     1.0000 0.26089  0.21039  0.10211  Biso   1.000  H
  C291     1.0000 0.35660  0.19881  0.02371  Biso   1.000  C
  H335     1.0000 0.68177  0.18773  0.24979  Biso   1.000  H
  H336     1.0000 0.78330  0.15452  0.22048  Biso   1.000  H
  C292     1.0000 0.71394  0.22243  0.15169  Biso   1.000  C
  H337     1.0000 0.83660  0.98832  0.63228  Biso   1.000  H
  H338     1.0000 0.88854  0.05685  0.52567  Biso   1.000  H
  H339     1.0000 0.43050  0.18541  0.01329  Biso   1.000  H
  C293     1.0000 0.30422  0.17030  0.00311  Biso   1.000  C
  H340     1.0000 0.35059  0.24425  0.99708  Biso   1.000  H
  H341     1.0000 0.67874  0.26399  0.14538  Biso   1.000  H
  H342     1.0000 0.77749  0.22851  0.11708  Biso   1.000  H
  C294     1.0000 0.64342  0.18332  0.14490  Biso   1.000  C
  H343     1.0000 0.30738  0.12521  0.03112  Biso   1.000  H
  H344     1.0000 0.23079  0.18531  0.01162  Biso   1.000  H
  C295     1.0000 0.33318  0.17585  0.93508  Biso   1.000  C
  H345     1.0000 0.67524  0.14043  0.15499  Biso   1.000  H
  H346     1.0000 0.57666  0.18069  0.17640  Biso   1.000  H
  C296     1.0000 0.62332  0.20980  0.07831  Biso   1.000  C
  H347     1.0000 0.28375  0.15435  0.92896  Biso   1.000  H
  H348     1.0000 0.33156  0.22004  0.90568  Biso   1.000  H
  H349     1.0000 0.40280  0.15682  0.92638  Biso   1.000  H
  H350     1.0000 0.57781  0.18292  0.07639  Biso   1.000  H
  H351     1.0000 0.59016  0.25189  0.06841  Biso   1.000  H
  H352     1.0000 0.68894  0.21172  0.04699  Biso   1.000  H
