data_image0
_cell_length_a       15.901
_cell_length_b       19.991
_cell_length_c       21.738
_cell_angle_alpha    90
_cell_angle_beta     95.53
_cell_angle_gamma    90

_symmetry_space_group_name_H-M    "P 1"
_symmetry_int_tables_number       1

loop_
  _symmetry_equiv_pos_as_xyz
  'x, y, z'

loop_
  _atom_site_label
  _atom_site_occupancy
  _atom_site_fract_x
  _atom_site_fract_y
  _atom_site_fract_z
  _atom_site_thermal_displace_type
  _atom_site_B_iso_or_equiv
  _atom_site_type_symbol
  C1       1.0000 0.59089  0.50583  0.56556  Biso   1.000  C
  N1       1.0000 0.51088  0.51258  0.58026  Biso   1.000  N
  O1       1.0000 0.62637  0.45260  0.55563  Biso   1.000  O
  C2       1.0000 0.63796  0.57091  0.56145  Biso   1.000  C
  C3       1.0000 0.45300  0.46131  0.59154  Biso   1.000  C
  H1       1.0000 0.49247  0.55380  0.58322  Biso   1.000  H
  N2       1.0000 0.60043  0.62658  0.57878  Biso   1.000  N
  C4       1.0000 0.71703  0.57031  0.53922  Biso   1.000  C
  C5       1.0000 0.46405  0.39468  0.57518  Biso   1.000  C
  C6       1.0000 0.38254  0.47982  0.62139  Biso   1.000  C
  C7       1.0000 0.64216  0.68436  0.57471  Biso   1.000  C
  H2       1.0000 0.74167  0.52949  0.52762  Biso   1.000  H
  C8       1.0000 0.75891  0.63048  0.53441  Biso   1.000  C
  C9       1.0000 0.40376  0.34791  0.58867  Biso   1.000  C
  H3       1.0000 0.51191  0.38142  0.55512  Biso   1.000  H
  C10      1.0000 0.32273  0.43244  0.63526  Biso   1.000  C
  H4       1.0000 0.37518  0.52529  0.63239  Biso   1.000  H
  C11      1.0000 0.72186  0.68846  0.55341  Biso   1.000  C
  C12      1.0000 0.60058  0.74774  0.59376  Biso   1.000  C
  H5       1.0000 0.81238  0.63193  0.51828  Biso   1.000  H
  C13      1.0000 0.33392  0.36621  0.61807  Biso   1.000  C
  H6       1.0000 0.41078  0.30239  0.57749  Biso   1.000  H
  C14      1.0000 0.25177  0.45080  0.67330  Biso   1.000  C
  H7       1.0000 0.75010  0.73023  0.55202  Biso   1.000  H
  O2       1.0000 0.64134  0.79976  0.59958  Biso   1.000  O
  N3       1.0000 0.51809  0.74138  0.60254  Biso   1.000  N
  H8       1.0000 0.29341  0.33340  0.62652  Biso   1.000  H
  N4       1.0000 0.20354  0.51108  0.65324  Biso   1.000  N
  H9       1.0000 0.21209  0.41259  0.67279  Biso   1.000  H
  H10      1.0000 0.27565  0.45731  0.71660  Biso   1.000  H
  H11      1.0000 0.49560  0.70152  0.59602  Biso   1.000  H
  C15      1.0000 0.46389  0.79216  0.62121  Biso   1.000  C
  C16      1.0000 0.15350  0.49687  0.59325  Biso   1.000  C
  C17      1.0000 0.14822  0.53119  0.69978  Biso   1.000  C
  C18      1.0000 0.49379  0.85073  0.65056  Biso   1.000  C
  C19      1.0000 0.37736  0.78185  0.60979  Biso   1.000  C
  C20      1.0000 0.12099  0.56330  0.55563  Biso   1.000  C
  H12      1.0000 0.18000  0.45841  0.57388  Biso   1.000  H
  H13      1.0000 0.09632  0.48252  0.60221  Biso   1.000  H
  C21      1.0000 0.14432  0.54790  0.55031  Biso   1.000  C
  C22      1.0000 0.21167  0.55410  0.75700  Biso   1.000  C
  H14      1.0000 0.11281  0.49322  0.71119  Biso   1.000  H
  H15      1.0000 0.11101  0.56851  0.68462  Biso   1.000  H
  C23      1.0000 0.16657  0.54780  0.76790  Biso   1.000  C
  H16      1.0000 0.55281  0.85824  0.65938  Biso   1.000  H
  C24      1.0000 0.43570  0.89770  0.66646  Biso   1.000  C
  C25      1.0000 0.31964  0.82867  0.62708  Biso   1.000  C
  H17      1.0000 0.35730  0.74193  0.58978  Biso   1.000  H
  N5       1.0000 0.05428  0.60192  0.58049  Biso   1.000  N
  H18      1.0000 0.17007  0.59312  0.55290  Biso   1.000  H
  H19      1.0000 0.10067  0.54980  0.51301  Biso   1.000  H
  H20      1.0000 0.11478  0.53059  0.51130  Biso   1.000  H
  N6       1.0000 0.09619  0.60412  0.57259  Biso   1.000  N
  H21      1.0000 0.20081  0.56380  0.54139  Biso   1.000  H
  C26      1.0000 0.16330  0.60217  0.79605  Biso   1.000  C
  H22      1.0000 0.23168  0.51473  0.78191  Biso   1.000  H
  H23      1.0000 0.26130  0.57691  0.74230  Biso   1.000  H
  C27      1.0000 0.22267  0.60852  0.77701  Biso   1.000  C
  H24      1.0000 0.19460  0.50913  0.78972  Biso   1.000  H
  H25      1.0000 0.11280  0.55630  0.78602  Biso   1.000  H
  H26      1.0000 0.45549  0.93812  0.68582  Biso   1.000  H
  C28      1.0000 0.34991  0.88740  0.65490  Biso   1.000  C
  C29      1.0000 0.22620  0.81567  0.61479  Biso   1.000  C
  C30      1.0000 0.03992  0.66670  0.54837  Biso   1.000  C
  C31      1.0000 0.97541  0.56420  0.57430  Biso   1.000  C
  C32      1.0000 0.11238  0.66350  0.53890  Biso   1.000  C
  C33      1.0000 0.00880  0.58611  0.56898  Biso   1.000  C
  N7       1.0000 0.14339  0.66645  0.76573  Biso   1.000  N
  H27      1.0000 0.11000  0.58051  0.80539  Biso   1.000  H
  H28      1.0000 0.19746  0.61042  0.83580  Biso   1.000  H
  N8       1.0000 0.17940  0.67020  0.75649  Biso   1.000  N
  H29      1.0000 0.24280  0.61263  0.82142  Biso   1.000  H
  H30      1.0000 0.27269  0.60242  0.75381  Biso   1.000  H
  H31      1.0000 0.31151  0.92061  0.66609  Biso   1.000  H
  N9       1.0000 0.20045  0.75714  0.65130  Biso   1.000  N
  H32      1.0000 0.19447  0.85584  0.62592  Biso   1.000  H
  H33      1.0000 0.21190  0.80691  0.57019  Biso   1.000  H
  C34      1.0000 0.08732  0.72313  0.56348  Biso   1.000  C
  H34      1.0000 0.04470  0.65800  0.50400  Biso   1.000  H
  C35      1.0000 0.11897  0.71482  0.56219  Biso   1.000  C
  H35      1.0000 0.06647  0.66740  0.50502  Biso   1.000  H
  H36      1.0000 0.98026  0.67891  0.55188  Biso   1.000  H
  H37      1.0000 0.00218  0.54540  0.59320  Biso   1.000  H
  H38      1.0000 0.98360  0.52138  0.59588  Biso   1.000  H
  H39      1.0000 0.95818  0.55610  0.53039  Biso   1.000  H
  H40      1.0000 0.93138  0.59002  0.59232  Biso   1.000  H
  H41      1.0000 0.98789  0.57801  0.52582  Biso   1.000  H
  H42      1.0000 0.97659  0.62263  0.58562  Biso   1.000  H
  H43      1.0000 0.13979  0.71972  0.54269  Biso   1.000  H
  H44      1.0000 0.16520  0.65560  0.51930  Biso   1.000  H
  C36      1.0000 0.21819  0.70792  0.76259  Biso   1.000  C
  C37      1.0000 0.08435  0.70122  0.80210  Biso   1.000  C
  C38      1.0000 0.23900  0.72533  0.75630  Biso   1.000  C
  C39      1.0000 0.11229  0.68691  0.79360  Biso   1.000  C
  C40      1.0000 0.11282  0.73928  0.63152  Biso   1.000  C
  C41      1.0000 0.20962  0.77295  0.71803  Biso   1.000  C
  H45      1.0000 0.05547  0.76199  0.54518  Biso   1.000  H
  H46      1.0000 0.07740  0.74303  0.53742  Biso   1.000  H
  H47      1.0000 0.17511  0.73093  0.55248  Biso   1.000  H
  H48      1.0000 0.26370  0.67921  0.74900  Biso   1.000  H
  H49      1.0000 0.23699  0.72333  0.80502  Biso   1.000  H
  H50      1.0000 0.24948  0.74383  0.79859  Biso   1.000  H
  H51      1.0000 0.29336  0.70862  0.74359  Biso   1.000  H
  H52      1.0000 0.03356  0.67380  0.80418  Biso   1.000  H
  H53      1.0000 0.06858  0.74423  0.78260  Biso   1.000  H
  H54      1.0000 0.11119  0.70902  0.84402  Biso   1.000  H
  H55      1.0000 0.08498  0.72833  0.77821  Biso   1.000  H
  H56      1.0000 0.13556  0.69311  0.83663  Biso   1.000  H
  H57      1.0000 0.07066  0.65059  0.79129  Biso   1.000  H
  H58      1.0000 0.07489  0.77840  0.63290  Biso   1.000  H
  H59      1.0000 0.09258  0.70302  0.65740  Biso   1.000  H
  H60      1.0000 0.15986  0.79931  0.72793  Biso   1.000  H
  H61      1.0000 0.26031  0.80141  0.72709  Biso   1.000  H
  N10      1.0000 0.48911  0.48747  0.41975  Biso   1.000  N
  C42      1.0000 0.40910  0.49422  0.43444  Biso   1.000  C
  H62      1.0000 0.50752  0.44620  0.41679  Biso   1.000  H
  C43      1.0000 0.54693  0.53869  0.40847  Biso   1.000  C
  C44      1.0000 0.36203  0.42909  0.43856  Biso   1.000  C
  O3       1.0000 0.37356  0.54745  0.44438  Biso   1.000  O
  C45      1.0000 0.53594  0.60537  0.42483  Biso   1.000  C
  C46      1.0000 0.61745  0.52018  0.37861  Biso   1.000  C
  N11      1.0000 0.39956  0.37342  0.42123  Biso   1.000  N
  C47      1.0000 0.28296  0.42974  0.46079  Biso   1.000  C
  C48      1.0000 0.59617  0.65209  0.41134  Biso   1.000  C
  H63      1.0000 0.48808  0.61863  0.44489  Biso   1.000  H
  C49      1.0000 0.67726  0.56756  0.36475  Biso   1.000  C
  H64      1.0000 0.62481  0.47471  0.36761  Biso   1.000  H
  C50      1.0000 0.35783  0.31564  0.42529  Biso   1.000  C
  C51      1.0000 0.24108  0.36957  0.46560  Biso   1.000  C
  H65      1.0000 0.25826  0.47051  0.47239  Biso   1.000  H
  C52      1.0000 0.66607  0.63379  0.38194  Biso   1.000  C
  H66      1.0000 0.58921  0.69761  0.42252  Biso   1.000  H
  C53      1.0000 0.74822  0.54920  0.32671  Biso   1.000  C
  C54      1.0000 0.39941  0.25231  0.40625  Biso   1.000  C
  C55      1.0000 0.27813  0.31154  0.44660  Biso   1.000  C
  H67      1.0000 0.18761  0.36812  0.48172  Biso   1.000  H
  H68      1.0000 0.70658  0.66660  0.37348  Biso   1.000  H
  N12      1.0000 0.79645  0.48892  0.34677  Biso   1.000  N
  H69      1.0000 0.78790  0.58741  0.32722  Biso   1.000  H
  H70      1.0000 0.72427  0.54269  0.28341  Biso   1.000  H
  O4       1.0000 0.35865  0.20024  0.40043  Biso   1.000  O
  N13      1.0000 0.48190  0.25862  0.39747  Biso   1.000  N
  H71      1.0000 0.24989  0.26982  0.44799  Biso   1.000  H
  C56      1.0000 0.84649  0.50313  0.40676  Biso   1.000  C
  C57      1.0000 0.85177  0.46881  0.30023  Biso   1.000  C
  H72      1.0000 0.50439  0.29848  0.40399  Biso   1.000  H
  C58      1.0000 0.53610  0.20789  0.37880  Biso   1.000  C
  C59      1.0000 0.87900  0.43670  0.44438  Biso   1.000  C
  C60      1.0000 0.85567  0.45210  0.44970  Biso   1.000  C
  H73      1.0000 0.81999  0.54159  0.42613  Biso   1.000  H
  H74      1.0000 0.90367  0.51748  0.39779  Biso   1.000  H
  C61      1.0000 0.78832  0.44595  0.24301  Biso   1.000  C
  C62      1.0000 0.83342  0.45220  0.23210  Biso   1.000  C
  H75      1.0000 0.88718  0.50683  0.28881  Biso   1.000  H
  H76      1.0000 0.88898  0.43149  0.31539  Biso   1.000  H
  C63      1.0000 0.50620  0.14927  0.34945  Biso   1.000  C
  C64      1.0000 0.62263  0.21815  0.39021  Biso   1.000  C
  N14      1.0000 0.94571  0.39813  0.41952  Biso   1.000  N
  N15      1.0000 0.90380  0.39593  0.42742  Biso   1.000  N
  H77      1.0000 0.82992  0.40688  0.44711  Biso   1.000  H
  H78      1.0000 0.89926  0.45020  0.48699  Biso   1.000  H
  H79      1.0000 0.88521  0.46941  0.48870  Biso   1.000  H
  H80      1.0000 0.79918  0.43620  0.45862  Biso   1.000  H
  C65      1.0000 0.83669  0.39783  0.20396  Biso   1.000  C
  C66      1.0000 0.77732  0.39153  0.22300  Biso   1.000  C
  H81      1.0000 0.73869  0.42309  0.25771  Biso   1.000  H
  H82      1.0000 0.76831  0.48532  0.21810  Biso   1.000  H
  H83      1.0000 0.80539  0.49092  0.21029  Biso   1.000  H
  H84      1.0000 0.88719  0.44370  0.21399  Biso   1.000  H
  H85      1.0000 0.44718  0.14181  0.34062  Biso   1.000  H
  C67      1.0000 0.56429  0.10230  0.33355  Biso   1.000  C
  C68      1.0000 0.68035  0.17133  0.37293  Biso   1.000  C
  H86      1.0000 0.64268  0.25812  0.41018  Biso   1.000  H
  C69      1.0000 0.96007  0.33330  0.45164  Biso   1.000  C
  C70      1.0000 0.02458  0.43580  0.42571  Biso   1.000  C
  C71      1.0000 0.88761  0.33650  0.46111  Biso   1.000  C
  C72      1.0000 0.99119  0.41389  0.43102  Biso   1.000  C
  N16      1.0000 0.85660  0.33355  0.23428  Biso   1.000  N
  N17      1.0000 0.82059  0.32980  0.24352  Biso   1.000  N
  H87      1.0000 0.88999  0.41949  0.19462  Biso   1.000  H
  H88      1.0000 0.80253  0.38963  0.16421  Biso   1.000  H
  H89      1.0000 0.75719  0.38742  0.17858  Biso   1.000  H
  H90      1.0000 0.72730  0.39763  0.24620  Biso   1.000  H
  H91      1.0000 0.54450  0.06188  0.31419  Biso   1.000  H
  C73      1.0000 0.65007  0.11260  0.34506  Biso   1.000  C
  C74      1.0000 0.77379  0.18438  0.38522  Biso   1.000  C
  C75      1.0000 0.91267  0.27692  0.43652  Biso   1.000  C
  C76      1.0000 0.88102  0.28523  0.43782  Biso   1.000  C
  H92      1.0000 0.95529  0.34200  0.49601  Biso   1.000  H
  H93      1.0000 0.93352  0.33260  0.49499  Biso   1.000  H
  H94      1.0000 0.01967  0.32109  0.44812  Biso   1.000  H
  H95      1.0000 0.99781  0.45460  0.40681  Biso   1.000  H
  H96      1.0000 0.04181  0.44390  0.46962  Biso   1.000  H
  H97      1.0000 0.01210  0.42199  0.47419  Biso   1.000  H
  H98      1.0000 0.02340  0.37742  0.41439  Biso   1.000  H
  H99      1.0000 0.01639  0.47862  0.40413  Biso   1.000  H
  H100     1.0000 0.06861  0.40998  0.40768  Biso   1.000  H
  H101     1.0000 0.86020  0.28033  0.45732  Biso   1.000  H
  H102     1.0000 0.83479  0.34440  0.48071  Biso   1.000  H
  C77      1.0000 0.78180  0.29208  0.23742  Biso   1.000  C
  C78      1.0000 0.91558  0.29878  0.19790  Biso   1.000  C
  C79      1.0000 0.76099  0.27472  0.24370  Biso   1.000  C
  C80      1.0000 0.88770  0.31309  0.20641  Biso   1.000  C
  H103     1.0000 0.68848  0.07939  0.33392  Biso   1.000  H
  N18      1.0000 0.79954  0.24286  0.34871  Biso   1.000  N
  H104     1.0000 0.80552  0.14421  0.37408  Biso   1.000  H
  H105     1.0000 0.78809  0.19309  0.42982  Biso   1.000  H
  C81      1.0000 0.88717  0.26072  0.36849  Biso   1.000  C
  H106     1.0000 0.94452  0.23801  0.45483  Biso   1.000  H
  H107     1.0000 0.92259  0.25702  0.46259  Biso   1.000  H
  H108     1.0000 0.82488  0.26912  0.44752  Biso   1.000  H
  C82      1.0000 0.79037  0.22705  0.28197  Biso   1.000  C
  H109     1.0000 0.73629  0.32079  0.25101  Biso   1.000  H
  H110     1.0000 0.76300  0.27672  0.19499  Biso   1.000  H
  H111     1.0000 0.75051  0.25622  0.20142  Biso   1.000  H
  H112     1.0000 0.70663  0.29138  0.25641  Biso   1.000  H
  H113     1.0000 0.96643  0.32620  0.19582  Biso   1.000  H
  H114     1.0000 0.93141  0.25582  0.21741  Biso   1.000  H
  H115     1.0000 0.88880  0.29098  0.15598  Biso   1.000  H
  H116     1.0000 0.91501  0.27172  0.22180  Biso   1.000  H
  H117     1.0000 0.86443  0.30689  0.16338  Biso   1.000  H
  H118     1.0000 0.92933  0.34941  0.20872  Biso   1.000  H
  H119     1.0000 0.92510  0.22160  0.36711  Biso   1.000  H
  H120     1.0000 0.90741  0.29698  0.34261  Biso   1.000  H
  H121     1.0000 0.84007  0.20069  0.27208  Biso   1.000  H
  H122     1.0000 0.73968  0.19859  0.27291  Biso   1.000  H
  C83      1.0000 0.72617  0.31564  0.61479  Biso   1.000  C
  N19      1.0000 0.70048  0.25712  0.65130  Biso   1.000  N
  C84      1.0000 0.81967  0.32870  0.62708  Biso   1.000  C
  H123     1.0000 0.69450  0.35581  0.62592  Biso   1.000  H
  H124     1.0000 0.71187  0.30689  0.57019  Biso   1.000  H
  C85      1.0000 0.61279  0.23926  0.63152  Biso   1.000  C
  C86      1.0000 0.70965  0.27297  0.71803  Biso   1.000  C
  C87      1.0000 0.84988  0.38742  0.65490  Biso   1.000  C
  C88      1.0000 0.87733  0.28188  0.60979  Biso   1.000  C
  C89      1.0000 0.58728  0.22310  0.56348  Biso   1.000  C
  C90      1.0000 0.61900  0.21480  0.56219  Biso   1.000  C
  H125     1.0000 0.57486  0.27843  0.63290  Biso   1.000  H
  H126     1.0000 0.59261  0.20299  0.65740  Biso   1.000  H
  H127     1.0000 0.65989  0.29928  0.72793  Biso   1.000  H
  H128     1.0000 0.76028  0.30139  0.72709  Biso   1.000  H
  C91      1.0000 0.71816  0.20789  0.76259  Biso   1.000  C
  C92      1.0000 0.73897  0.22530  0.75630  Biso   1.000  C
  C93      1.0000 0.93567  0.39773  0.66646  Biso   1.000  C
  H129     1.0000 0.81148  0.42059  0.66609  Biso   1.000  H
  C94      1.0000 0.96392  0.29213  0.62121  Biso   1.000  C
  H130     1.0000 0.85727  0.24191  0.58978  Biso   1.000  H
  C95      1.0000 0.53989  0.16673  0.54837  Biso   1.000  C
  C96      1.0000 0.61241  0.16352  0.53890  Biso   1.000  C
  H131     1.0000 0.55550  0.26202  0.54518  Biso   1.000  H
  H132     1.0000 0.63976  0.21970  0.54269  Biso   1.000  H
  H133     1.0000 0.57737  0.24301  0.53742  Biso   1.000  H
  H134     1.0000 0.67507  0.23090  0.55248  Biso   1.000  H
  N20      1.0000 0.64336  0.16642  0.76573  Biso   1.000  N
  H135     1.0000 0.76366  0.17918  0.74900  Biso   1.000  H
  H136     1.0000 0.73696  0.22330  0.80502  Biso   1.000  H
  H137     1.0000 0.74951  0.24381  0.79859  Biso   1.000  H
  H138     1.0000 0.79339  0.20859  0.74359  Biso   1.000  H
  N21      1.0000 0.67937  0.17023  0.75649  Biso   1.000  N
  C97      1.0000 0.99376  0.35076  0.65056  Biso   1.000  C
  H139     1.0000 0.95552  0.43810  0.68582  Biso   1.000  H
  N22      1.0000 0.01806  0.24136  0.60254  Biso   1.000  N
  N23      1.0000 0.55431  0.10190  0.58049  Biso   1.000  N
  H140     1.0000 0.54467  0.15802  0.50400  Biso   1.000  H
  H141     1.0000 0.48029  0.17888  0.55188  Biso   1.000  H
  C98      1.0000 0.50877  0.08609  0.56898  Biso   1.000  C
  H142     1.0000 0.56650  0.16743  0.50502  Biso   1.000  H
  N24      1.0000 0.59622  0.10410  0.57259  Biso   1.000  N
  H143     1.0000 0.66517  0.15562  0.51930  Biso   1.000  H
  C99      1.0000 0.66327  0.10220  0.79605  Biso   1.000  C
  C100     1.0000 0.72270  0.10850  0.77701  Biso   1.000  C
  C101     1.0000 0.58438  0.20119  0.80210  Biso   1.000  C
  C102     1.0000 0.61225  0.18688  0.79360  Biso   1.000  C
  H144     1.0000 0.05278  0.35821  0.65938  Biso   1.000  H
  H145     1.0000 0.99557  0.20149  0.59602  Biso   1.000  H
  C103     1.0000 0.10055  0.24771  0.59376  Biso   1.000  C
  C104     1.0000 0.47538  0.06418  0.57430  Biso   1.000  C
  C105     1.0000 0.62096  0.06328  0.55563  Biso   1.000  C
  H146     1.0000 0.45822  0.05613  0.53039  Biso   1.000  H
  H147     1.0000 0.50221  0.04542  0.59320  Biso   1.000  H
  H148     1.0000 0.48786  0.07799  0.52582  Biso   1.000  H
  H149     1.0000 0.47662  0.12261  0.58562  Biso   1.000  H
  H150     1.0000 0.67010  0.09309  0.55290  Biso   1.000  H
  C106     1.0000 0.64429  0.04792  0.55031  Biso   1.000  C
  C107     1.0000 0.71170  0.05407  0.75700  Biso   1.000  C
  C108     1.0000 0.66660  0.04782  0.76790  Biso   1.000  C
  H151     1.0000 0.61276  0.05633  0.78602  Biso   1.000  H
  H152     1.0000 0.60997  0.08049  0.80539  Biso   1.000  H
  H153     1.0000 0.69749  0.11040  0.83580  Biso   1.000  H
  H154     1.0000 0.76127  0.07688  0.74230  Biso   1.000  H
  H155     1.0000 0.74277  0.11260  0.82142  Biso   1.000  H
  H156     1.0000 0.77266  0.10240  0.75381  Biso   1.000  H
  H157     1.0000 0.53359  0.17378  0.80418  Biso   1.000  H
  H158     1.0000 0.56861  0.24421  0.78260  Biso   1.000  H
  H159     1.0000 0.61116  0.20899  0.84402  Biso   1.000  H
  H160     1.0000 0.58501  0.22830  0.77821  Biso   1.000  H
  H161     1.0000 0.63559  0.19309  0.83663  Biso   1.000  H
  H162     1.0000 0.57069  0.15062  0.79129  Biso   1.000  H
  O5       1.0000 0.14138  0.29973  0.59958  Biso   1.000  O
  C109     1.0000 0.14212  0.18433  0.57471  Biso   1.000  C
  H163     1.0000 0.48357  0.02141  0.59588  Biso   1.000  H
  H164     1.0000 0.43141  0.08999  0.59232  Biso   1.000  H
  H165     1.0000 0.60070  0.04982  0.51301  Biso   1.000  H
  H166     1.0000 0.61481  0.03061  0.51130  Biso   1.000  H
  C110     1.0000 0.65347  0.99685  0.59325  Biso   1.000  C
  H167     1.0000 0.70078  0.06378  0.54139  Biso   1.000  H
  C111     1.0000 0.64819  0.03116  0.69978  Biso   1.000  C
  H168     1.0000 0.73171  0.01471  0.78191  Biso   1.000  H
  H169     1.0000 0.69457  0.00910  0.78972  Biso   1.000  H
  N25      1.0000 0.10046  0.12661  0.57878  Biso   1.000  N
  C112     1.0000 0.22183  0.18843  0.55341  Biso   1.000  C
  N26      1.0000 0.70350  0.01105  0.65324  Biso   1.000  N
  H170     1.0000 0.67997  0.95838  0.57388  Biso   1.000  H
  H171     1.0000 0.59629  0.98249  0.60221  Biso   1.000  H
  H172     1.0000 0.61098  0.06848  0.68462  Biso   1.000  H
  H173     1.0000 0.61278  0.99320  0.71119  Biso   1.000  H
  C113     1.0000 0.13792  0.07093  0.56145  Biso   1.000  C
  C114     1.0000 0.25895  0.13046  0.53441  Biso   1.000  C
  H174     1.0000 0.25007  0.23020  0.55202  Biso   1.000  H
  C115     1.0000 0.75174  0.95078  0.67330  Biso   1.000  C
  C116     1.0000 0.09086  0.00580  0.56556  Biso   1.000  C
  C117     1.0000 0.21700  0.07028  0.53922  Biso   1.000  C
  H175     1.0000 0.31242  0.13191  0.51828  Biso   1.000  H
  H176     1.0000 0.71212  0.91261  0.67279  Biso   1.000  H
  H177     1.0000 0.77568  0.95728  0.71660  Biso   1.000  H
  C118     1.0000 0.82270  0.93247  0.63526  Biso   1.000  C
  N27      1.0000 0.01091  0.01256  0.58026  Biso   1.000  N
  O6       1.0000 0.12640  0.95258  0.55563  Biso   1.000  O
  H178     1.0000 0.24170  0.02951  0.52762  Biso   1.000  H
  C119     1.0000 0.83396  0.86619  0.61807  Biso   1.000  C
  C120     1.0000 0.88250  0.97984  0.62139  Biso   1.000  C
  C121     1.0000 0.95303  0.96128  0.59154  Biso   1.000  C
  H179     1.0000 0.99250  0.05382  0.58322  Biso   1.000  H
  H180     1.0000 0.79338  0.83338  0.62652  Biso   1.000  H
  C122     1.0000 0.90379  0.84793  0.58867  Biso   1.000  C
  H181     1.0000 0.87521  0.02531  0.63239  Biso   1.000  H
  C123     1.0000 0.96408  0.89465  0.57518  Biso   1.000  C
  H182     1.0000 0.91081  0.80241  0.57749  Biso   1.000  H
  H183     1.0000 0.01188  0.88140  0.55512  Biso   1.000  H
  C124     1.0000 0.27382  0.68436  0.38522  Biso   1.000  C
  C125     1.0000 0.18032  0.67135  0.37293  Biso   1.000  C
  N28      1.0000 0.29951  0.74288  0.34871  Biso   1.000  N
  H184     1.0000 0.30549  0.64419  0.37408  Biso   1.000  H
  H185     1.0000 0.28812  0.69311  0.42982  Biso   1.000  H
  C126     1.0000 0.15011  0.61258  0.34506  Biso   1.000  C
  C127     1.0000 0.12266  0.71817  0.39021  Biso   1.000  C
  C128     1.0000 0.38720  0.76074  0.36849  Biso   1.000  C
  C129     1.0000 0.29034  0.72708  0.28197  Biso   1.000  C
  C130     1.0000 0.06432  0.60232  0.33355  Biso   1.000  C
  H186     1.0000 0.18851  0.57941  0.33392  Biso   1.000  H
  C131     1.0000 0.03607  0.70787  0.37880  Biso   1.000  C
  H187     1.0000 0.14271  0.75809  0.41018  Biso   1.000  H
  H188     1.0000 0.42507  0.72162  0.36711  Biso   1.000  H
  H189     1.0000 0.40738  0.79701  0.34261  Biso   1.000  H
  C132     1.0000 0.41271  0.77690  0.43652  Biso   1.000  C
  C133     1.0000 0.38099  0.78520  0.43782  Biso   1.000  C
  H190     1.0000 0.34010  0.70072  0.27208  Biso   1.000  H
  H191     1.0000 0.23971  0.69861  0.27291  Biso   1.000  H
  C134     1.0000 0.28183  0.79211  0.23742  Biso   1.000  C
  C135     1.0000 0.26102  0.77470  0.24370  Biso   1.000  C
  C136     1.0000 0.00617  0.64929  0.34945  Biso   1.000  C
  H192     1.0000 0.04447  0.56190  0.31419  Biso   1.000  H
  N29      1.0000 0.98193  0.75864  0.39747  Biso   1.000  N
  H193     1.0000 0.44449  0.73803  0.45483  Biso   1.000  H
  H194     1.0000 0.36017  0.78030  0.45732  Biso   1.000  H
  C137     1.0000 0.46010  0.83332  0.45164  Biso   1.000  C
  C138     1.0000 0.38758  0.83653  0.46111  Biso   1.000  C
  H195     1.0000 0.42262  0.75699  0.46259  Biso   1.000  H
  H196     1.0000 0.32492  0.76910  0.44752  Biso   1.000  H
  N30      1.0000 0.35657  0.83358  0.23428  Biso   1.000  N
  H197     1.0000 0.23633  0.82082  0.25101  Biso   1.000  H
  H198     1.0000 0.26297  0.77670  0.19499  Biso   1.000  H
  H199     1.0000 0.25048  0.75619  0.20142  Biso   1.000  H
  H200     1.0000 0.20660  0.79141  0.25641  Biso   1.000  H
  N31      1.0000 0.32062  0.82982  0.24352  Biso   1.000  N
  H201     1.0000 0.94721  0.64179  0.34062  Biso   1.000  H
  H202     1.0000 0.00436  0.79851  0.40399  Biso   1.000  H
  C139     1.0000 0.89944  0.75229  0.40625  Biso   1.000  C
  N32      1.0000 0.44568  0.89810  0.41952  Biso   1.000  N
  H203     1.0000 0.45532  0.84203  0.49601  Biso   1.000  H
  H204     1.0000 0.51970  0.82112  0.44812  Biso   1.000  H
  C140     1.0000 0.49122  0.91391  0.43102  Biso   1.000  C
  H205     1.0000 0.43349  0.83262  0.49499  Biso   1.000  H
  N33      1.0000 0.40377  0.89590  0.42742  Biso   1.000  N
  H206     1.0000 0.33482  0.84443  0.48071  Biso   1.000  H
  C141     1.0000 0.41561  0.79881  0.19790  Biso   1.000  C
  C142     1.0000 0.33672  0.89785  0.20396  Biso   1.000  C
  C143     1.0000 0.27729  0.89150  0.22300  Biso   1.000  C
  C144     1.0000 0.38767  0.81312  0.20641  Biso   1.000  C
  O7       1.0000 0.85861  0.70027  0.40043  Biso   1.000  O
  C145     1.0000 0.85780  0.81567  0.42529  Biso   1.000  C
  C146     1.0000 0.52461  0.93582  0.42571  Biso   1.000  C
  C147     1.0000 0.37896  0.93672  0.44438  Biso   1.000  C
  H207     1.0000 0.54177  0.94392  0.46962  Biso   1.000  H
  H208     1.0000 0.49778  0.95463  0.40681  Biso   1.000  H
  H209     1.0000 0.51207  0.92201  0.47419  Biso   1.000  H
  H210     1.0000 0.52337  0.87739  0.41439  Biso   1.000  H
  H211     1.0000 0.32989  0.90691  0.44711  Biso   1.000  H
  C148     1.0000 0.35570  0.95213  0.44970  Biso   1.000  C
  H212     1.0000 0.46640  0.82622  0.19582  Biso   1.000  H
  H213     1.0000 0.43138  0.75579  0.21741  Biso   1.000  H
  H214     1.0000 0.38877  0.79101  0.15598  Biso   1.000  H
  H215     1.0000 0.41498  0.77170  0.22180  Biso   1.000  H
  H216     1.0000 0.36440  0.80691  0.16338  Biso   1.000  H
  H217     1.0000 0.42930  0.84943  0.20872  Biso   1.000  H
  H218     1.0000 0.39002  0.91951  0.19462  Biso   1.000  H
  H219     1.0000 0.30250  0.88960  0.16421  Biso   1.000  H
  C149     1.0000 0.28829  0.94593  0.24301  Biso   1.000  C
  C150     1.0000 0.33339  0.95223  0.23210  Biso   1.000  C
  H220     1.0000 0.38723  0.94372  0.21399  Biso   1.000  H
  H221     1.0000 0.23872  0.92312  0.25771  Biso   1.000  H
  H222     1.0000 0.25722  0.88740  0.17858  Biso   1.000  H
  H223     1.0000 0.22727  0.89760  0.24620  Biso   1.000  H
  N34      1.0000 0.89953  0.87344  0.42123  Biso   1.000  N
  C151     1.0000 0.77816  0.81157  0.44660  Biso   1.000  C
  H224     1.0000 0.51642  0.97859  0.40413  Biso   1.000  H
  H225     1.0000 0.56858  0.91001  0.40768  Biso   1.000  H
  H226     1.0000 0.39929  0.95023  0.48699  Biso   1.000  H
  H227     1.0000 0.38518  0.96944  0.48870  Biso   1.000  H
  C152     1.0000 0.34652  0.00315  0.40676  Biso   1.000  C
  H228     1.0000 0.29921  0.93622  0.45862  Biso   1.000  H
  H229     1.0000 0.26828  0.98529  0.21810  Biso   1.000  H
  C153     1.0000 0.35180  0.96884  0.30023  Biso   1.000  C
  H230     1.0000 0.30542  0.99090  0.21029  Biso   1.000  H
  C154     1.0000 0.86207  0.92912  0.43856  Biso   1.000  C
  C155     1.0000 0.74104  0.86954  0.46560  Biso   1.000  C
  H231     1.0000 0.74986  0.76980  0.44799  Biso   1.000  H
  N35      1.0000 0.29649  0.98895  0.34677  Biso   1.000  N
  H232     1.0000 0.32002  0.04162  0.42613  Biso   1.000  H
  H233     1.0000 0.40370  0.01751  0.39779  Biso   1.000  H
  H234     1.0000 0.38901  0.93152  0.31539  Biso   1.000  H
  H235     1.0000 0.38721  0.00680  0.28881  Biso   1.000  H
  C156     1.0000 0.90913  0.99420  0.43444  Biso   1.000  C
  C157     1.0000 0.78299  0.92972  0.46079  Biso   1.000  C
  H236     1.0000 0.68757  0.86809  0.48172  Biso   1.000  H
  C158     1.0000 0.24825  0.04922  0.32671  Biso   1.000  C
  N36      1.0000 0.98908  0.98744  0.41975  Biso   1.000  N
  O8       1.0000 0.87359  0.04742  0.44438  Biso   1.000  O
  H237     1.0000 0.75829  0.97054  0.47239  Biso   1.000  H
  H238     1.0000 0.28787  0.08744  0.32722  Biso   1.000  H
  H239     1.0000 0.22431  0.04272  0.28341  Biso   1.000  H
  C159     1.0000 0.17729  0.06758  0.36475  Biso   1.000  C
  H240     1.0000 0.00749  0.94623  0.41679  Biso   1.000  H
  C160     1.0000 0.04696  0.03872  0.40847  Biso   1.000  C
  C161     1.0000 0.11749  0.02021  0.37861  Biso   1.000  C
  C162     1.0000 0.16603  0.13381  0.38194  Biso   1.000  C
  C163     1.0000 0.03591  0.10535  0.42483  Biso   1.000  C
  H241     1.0000 0.12478  0.97474  0.36761  Biso   1.000  H
  C164     1.0000 0.09620  0.15212  0.41134  Biso   1.000  C
  H242     1.0000 0.20661  0.16662  0.37348  Biso   1.000  H
  H243     1.0000 0.98811  0.11860  0.44489  Biso   1.000  H
  H244     1.0000 0.08918  0.19764  0.42252  Biso   1.000  H
  C165     1.0000 0.77729  0.60852  0.72303  Biso   1.000  C
  C166     1.0000 0.78829  0.55410  0.74304  Biso   1.000  C
  C167     1.0000 0.83672  0.60217  0.70394  Biso   1.000  C
  H245     1.0000 0.73871  0.57691  0.75769  Biso   1.000  H
  N37      1.0000 0.85656  0.66645  0.73426  Biso   1.000  N
  C168     1.0000 0.83338  0.54780  0.73209  Biso   1.000  C
  N38      1.0000 0.82061  0.67020  0.74350  Biso   1.000  N
  H246     1.0000 0.75716  0.61263  0.67861  Biso   1.000  H
  H247     1.0000 0.72726  0.60242  0.74623  Biso   1.000  H
  H248     1.0000 0.76828  0.51473  0.71813  Biso   1.000  H
  C169     1.0000 0.85179  0.53119  0.80021  Biso   1.000  C
  H249     1.0000 0.80542  0.50913  0.71032  Biso   1.000  H
  H250     1.0000 0.89001  0.58051  0.69460  Biso   1.000  H
  H251     1.0000 0.80249  0.61042  0.66419  Biso   1.000  H
  H252     1.0000 0.88716  0.55630  0.71401  Biso   1.000  H
  C170     1.0000 0.78176  0.70792  0.73740  Biso   1.000  C
  C171     1.0000 0.91560  0.70122  0.69788  Biso   1.000  C
  C172     1.0000 0.76101  0.72533  0.74369  Biso   1.000  C
  C173     1.0000 0.88766  0.68691  0.70639  Biso   1.000  C
  N39      1.0000 0.79648  0.51108  0.84675  Biso   1.000  N
  H253     1.0000 0.88720  0.49322  0.78879  Biso   1.000  H
  H254     1.0000 0.88901  0.56851  0.81542  Biso   1.000  H
  C174     1.0000 0.79034  0.77295  0.78200  Biso   1.000  C
  H255     1.0000 0.73625  0.67921  0.75099  Biso   1.000  H
  H256     1.0000 0.76297  0.72333  0.69502  Biso   1.000  H
  H257     1.0000 0.75047  0.74383  0.70140  Biso   1.000  H
  H258     1.0000 0.70659  0.70862  0.75640  Biso   1.000  H
  H259     1.0000 0.96639  0.67380  0.69580  Biso   1.000  H
  H260     1.0000 0.93138  0.74423  0.71739  Biso   1.000  H
  H261     1.0000 0.88876  0.70902  0.65601  Biso   1.000  H
  H262     1.0000 0.91498  0.72833  0.72182  Biso   1.000  H
  H263     1.0000 0.86439  0.69311  0.66341  Biso   1.000  H
  H264     1.0000 0.92929  0.65059  0.70870  Biso   1.000  H
  C175     1.0000 0.84652  0.49687  0.90679  Biso   1.000  C
  C176     1.0000 0.74824  0.45080  0.82669  Biso   1.000  C
  N40      1.0000 0.79951  0.75714  0.84874  Biso   1.000  N
  H265     1.0000 0.84010  0.79931  0.77211  Biso   1.000  H
  H266     1.0000 0.73971  0.80141  0.77290  Biso   1.000  H
  C177     1.0000 0.87896  0.56330  0.94441  Biso   1.000  C
  H267     1.0000 0.82001  0.45841  0.92611  Biso   1.000  H
  H268     1.0000 0.90370  0.48252  0.89782  Biso   1.000  H
  C178     1.0000 0.85570  0.54790  0.94972  Biso   1.000  C
  H269     1.0000 0.78786  0.41259  0.82720  Biso   1.000  H
  H270     1.0000 0.72430  0.45731  0.78339  Biso   1.000  H
  C179     1.0000 0.67728  0.43244  0.86473  Biso   1.000  C
  C180     1.0000 0.77381  0.81567  0.88520  Biso   1.000  C
  C181     1.0000 0.88720  0.73928  0.86847  Biso   1.000  C
  N41      1.0000 0.94568  0.60192  0.91950  Biso   1.000  N
  H271     1.0000 0.82988  0.59312  0.94709  Biso   1.000  H
  H272     1.0000 0.89929  0.54980  0.98702  Biso   1.000  H
  H273     1.0000 0.88517  0.53059  0.98868  Biso   1.000  H
  N42      1.0000 0.90376  0.60412  0.92740  Biso   1.000  N
  H274     1.0000 0.79920  0.56380  0.95860  Biso   1.000  H
  C182     1.0000 0.66603  0.36621  0.88197  Biso   1.000  C
  C183     1.0000 0.61748  0.47982  0.87859  Biso   1.000  C
  C184     1.0000 0.68031  0.82867  0.87291  Biso   1.000  C
  H275     1.0000 0.80549  0.85584  0.87411  Biso   1.000  H
  H276     1.0000 0.78811  0.80691  0.92980  Biso   1.000  H
  H277     1.0000 0.92506  0.77840  0.86709  Biso   1.000  H
  H278     1.0000 0.90737  0.70302  0.84259  Biso   1.000  H
  C185     1.0000 0.91270  0.72313  0.93651  Biso   1.000  C
  C186     1.0000 0.88098  0.71482  0.93780  Biso   1.000  C
  C187     1.0000 0.96010  0.66670  0.95166  Biso   1.000  C
  C188     1.0000 0.02460  0.56420  0.92569  Biso   1.000  C
  C189     1.0000 0.88757  0.66350  0.96109  Biso   1.000  C
  C190     1.0000 0.99121  0.58611  0.93101  Biso   1.000  C
  H279     1.0000 0.70661  0.33340  0.87351  Biso   1.000  H
  C191     1.0000 0.59619  0.34791  0.91132  Biso   1.000  C
  C192     1.0000 0.54695  0.46131  0.90845  Biso   1.000  C
  H280     1.0000 0.62477  0.52529  0.86759  Biso   1.000  H
  C193     1.0000 0.65010  0.88740  0.84509  Biso   1.000  C
  C194     1.0000 0.62265  0.78185  0.89020  Biso   1.000  C
  H281     1.0000 0.86016  0.71972  0.95730  Biso   1.000  H
  H282     1.0000 0.94448  0.76199  0.95481  Biso   1.000  H
  H283     1.0000 0.92255  0.74303  0.96262  Biso   1.000  H
  H284     1.0000 0.82491  0.73093  0.94750  Biso   1.000  H
  H285     1.0000 0.95525  0.65800  0.99599  Biso   1.000  H
  H286     1.0000 0.93349  0.66740  0.99502  Biso   1.000  H
  H287     1.0000 0.01969  0.67891  0.94811  Biso   1.000  H
  H288     1.0000 0.99777  0.54540  0.90679  Biso   1.000  H
  H289     1.0000 0.01641  0.52138  0.90411  Biso   1.000  H
  H290     1.0000 0.04177  0.55610  0.96960  Biso   1.000  H
  H291     1.0000 0.06858  0.59002  0.90771  Biso   1.000  H
  H292     1.0000 0.01206  0.57801  0.97422  Biso   1.000  H
  H293     1.0000 0.02337  0.62263  0.91441  Biso   1.000  H
  H294     1.0000 0.83475  0.65560  0.98069  Biso   1.000  H
  H295     1.0000 0.58918  0.30239  0.92250  Biso   1.000  H
  C195     1.0000 0.53590  0.39468  0.92486  Biso   1.000  C
  N43      1.0000 0.48907  0.51258  0.91973  Biso   1.000  N
  C196     1.0000 0.56425  0.89770  0.83358  Biso   1.000  C
  H296     1.0000 0.68850  0.92061  0.83390  Biso   1.000  H
  C197     1.0000 0.53607  0.79216  0.87883  Biso   1.000  C
  H297     1.0000 0.64271  0.74193  0.91021  Biso   1.000  H
  H298     1.0000 0.48811  0.38142  0.94492  Biso   1.000  H
  H299     1.0000 0.50749  0.55380  0.91682  Biso   1.000  H
  C198     1.0000 0.40906  0.50583  0.93443  Biso   1.000  C
  C199     1.0000 0.50616  0.85073  0.84948  Biso   1.000  C
  H300     1.0000 0.54447  0.93812  0.81421  Biso   1.000  H
  N44      1.0000 0.48192  0.74138  0.89745  Biso   1.000  N
  O9       1.0000 0.37358  0.45260  0.94436  Biso   1.000  O
  C200     1.0000 0.36206  0.57091  0.93858  Biso   1.000  C
  H301     1.0000 0.44720  0.85824  0.84060  Biso   1.000  H
  H302     1.0000 0.50436  0.70152  0.90401  Biso   1.000  H
  C201     1.0000 0.39944  0.74774  0.90628  Biso   1.000  C
  N45      1.0000 0.39952  0.62658  0.92121  Biso   1.000  N
  C202     1.0000 0.28298  0.57031  0.96082  Biso   1.000  C
  C203     1.0000 0.35779  0.68436  0.92527  Biso   1.000  C
  O10      1.0000 0.35861  0.79976  0.90041  Biso   1.000  O
  H303     1.0000 0.25829  0.52949  0.97242  Biso   1.000  H
  C204     1.0000 0.24104  0.63048  0.96562  Biso   1.000  C
  C205     1.0000 0.27815  0.68846  0.94658  Biso   1.000  C
  H304     1.0000 0.18757  0.63193  0.98171  Biso   1.000  H
  H305     1.0000 0.24985  0.73023  0.94801  Biso   1.000  H
  C206     1.0000 0.22270  0.39153  0.27698  Biso   1.000  C
  N46      1.0000 0.17938  0.32980  0.25651  Biso   1.000  N
  C207     1.0000 0.16327  0.39783  0.29607  Biso   1.000  C
  N47      1.0000 0.14337  0.33355  0.26575  Biso   1.000  N
  C208     1.0000 0.21170  0.44595  0.25697  Biso   1.000  C
  C209     1.0000 0.16661  0.45220  0.26792  Biso   1.000  C
  H306     1.0000 0.26128  0.42309  0.24232  Biso   1.000  H
  H307     1.0000 0.24277  0.38742  0.32140  Biso   1.000  H
  H308     1.0000 0.27266  0.39763  0.25378  Biso   1.000  H
  C210     1.0000 0.23898  0.27472  0.25632  Biso   1.000  C
  C211     1.0000 0.21817  0.29208  0.26261  Biso   1.000  C
  C212     1.0000 0.11233  0.31309  0.29362  Biso   1.000  C
  H309     1.0000 0.10998  0.41949  0.30541  Biso   1.000  H
  H310     1.0000 0.19750  0.38963  0.33582  Biso   1.000  H
  H311     1.0000 0.11277  0.44370  0.28599  Biso   1.000  H
  C213     1.0000 0.08439  0.29878  0.30212  Biso   1.000  C
  H312     1.0000 0.23171  0.48532  0.28188  Biso   1.000  H
  C214     1.0000 0.14820  0.46881  0.19980  Biso   1.000  C
  H313     1.0000 0.19457  0.49092  0.28969  Biso   1.000  H
  C215     1.0000 0.20965  0.22705  0.21801  Biso   1.000  C
  H314     1.0000 0.26367  0.32079  0.24902  Biso   1.000  H
  H315     1.0000 0.23702  0.27672  0.30499  Biso   1.000  H
  H316     1.0000 0.24952  0.25622  0.29861  Biso   1.000  H
  H317     1.0000 0.29340  0.29138  0.24361  Biso   1.000  H
  H318     1.0000 0.11116  0.29098  0.34400  Biso   1.000  H
  H319     1.0000 0.08501  0.27172  0.27818  Biso   1.000  H
  H320     1.0000 0.13560  0.30689  0.33660  Biso   1.000  H
  H321     1.0000 0.07070  0.34941  0.29131  Biso   1.000  H
  H322     1.0000 0.03360  0.32620  0.30420  Biso   1.000  H
  H323     1.0000 0.06861  0.25582  0.28262  Biso   1.000  H
  N48      1.0000 0.20351  0.48892  0.15326  Biso   1.000  N
  H324     1.0000 0.11279  0.50683  0.21121  Biso   1.000  H
  H325     1.0000 0.11098  0.43149  0.18459  Biso   1.000  H
  N49      1.0000 0.20048  0.24286  0.15127  Biso   1.000  N
  H326     1.0000 0.15989  0.20069  0.22790  Biso   1.000  H
  H327     1.0000 0.26028  0.19859  0.22711  Biso   1.000  H
  C216     1.0000 0.15347  0.50313  0.09322  Biso   1.000  C
  C217     1.0000 0.25175  0.54920  0.17332  Biso   1.000  C
  C218     1.0000 0.22618  0.18438  0.11480  Biso   1.000  C
  C219     1.0000 0.11279  0.26072  0.13153  Biso   1.000  C
  C220     1.0000 0.12103  0.43670  0.05560  Biso   1.000  C
  C221     1.0000 0.14429  0.45210  0.05028  Biso   1.000  C
  H328     1.0000 0.17998  0.54159  0.07390  Biso   1.000  H
  H329     1.0000 0.09629  0.51748  0.10219  Biso   1.000  H
  H330     1.0000 0.21213  0.58741  0.17281  Biso   1.000  H
  H331     1.0000 0.27569  0.54269  0.21662  Biso   1.000  H
  C222     1.0000 0.32271  0.56756  0.13528  Biso   1.000  C
  C223     1.0000 0.31968  0.17133  0.12710  Biso   1.000  C
  H332     1.0000 0.19450  0.14421  0.12590  Biso   1.000  H
  H333     1.0000 0.21188  0.19309  0.07020  Biso   1.000  H
  H334     1.0000 0.07493  0.22160  0.13292  Biso   1.000  H
  H335     1.0000 0.09262  0.29698  0.15742  Biso   1.000  H
  C224     1.0000 0.08729  0.27692  0.06350  Biso   1.000  C
  C225     1.0000 0.11901  0.28523  0.06221  Biso   1.000  C
  N50      1.0000 0.05431  0.39813  0.08051  Biso   1.000  N
  N51      1.0000 0.09623  0.39593  0.07261  Biso   1.000  N
  H336     1.0000 0.17011  0.40688  0.05292  Biso   1.000  H
  H337     1.0000 0.10070  0.45020  0.01299  Biso   1.000  H
  H338     1.0000 0.11481  0.46941  0.01128  Biso   1.000  H
  H339     1.0000 0.20079  0.43620  0.04141  Biso   1.000  H
  C226     1.0000 0.33396  0.63379  0.11804  Biso   1.000  C
  C227     1.0000 0.38251  0.52018  0.12141  Biso   1.000  C
  C228     1.0000 0.34989  0.11260  0.15492  Biso   1.000  C
  C229     1.0000 0.37734  0.21815  0.10981  Biso   1.000  C
  H340     1.0000 0.05551  0.23801  0.04520  Biso   1.000  H
  H341     1.0000 0.13983  0.28033  0.04270  Biso   1.000  H
  C230     1.0000 0.03989  0.33330  0.04834  Biso   1.000  C
  C231     1.0000 0.11242  0.33650  0.03892  Biso   1.000  C
  H342     1.0000 0.07737  0.25702  0.03739  Biso   1.000  H
  H343     1.0000 0.17508  0.26912  0.05250  Biso   1.000  H
  C232     1.0000 0.97539  0.43580  0.07432  Biso   1.000  C
  C233     1.0000 0.00878  0.41389  0.06900  Biso   1.000  C
  H344     1.0000 0.29338  0.66660  0.12650  Biso   1.000  H
  C234     1.0000 0.40380  0.65209  0.08869  Biso   1.000  C
  C235     1.0000 0.45304  0.53869  0.09156  Biso   1.000  C
  H345     1.0000 0.37522  0.47471  0.13241  Biso   1.000  H
  C236     1.0000 0.43567  0.10230  0.16643  Biso   1.000  C
  H346     1.0000 0.31149  0.07939  0.16611  Biso   1.000  H
  C237     1.0000 0.46392  0.20789  0.12118  Biso   1.000  C
  H347     1.0000 0.35728  0.25812  0.08980  Biso   1.000  H
  H348     1.0000 0.04468  0.34200  0.00402  Biso   1.000  H
  H349     1.0000 0.06650  0.33260  0.00499  Biso   1.000  H
  H350     1.0000 0.98030  0.32109  0.05190  Biso   1.000  H
  H351     1.0000 0.16518  0.34440  0.01932  Biso   1.000  H
  H352     1.0000 0.00222  0.45460  0.09322  Biso   1.000  H
  H353     1.0000 0.95822  0.44390  0.03041  Biso   1.000  H
  H354     1.0000 0.98793  0.42199  0.02579  Biso   1.000  H
  H355     1.0000 0.97662  0.37742  0.08559  Biso   1.000  H
  H356     1.0000 0.98358  0.47862  0.09590  Biso   1.000  H
  H357     1.0000 0.93141  0.40998  0.09230  Biso   1.000  H
  H358     1.0000 0.41081  0.69761  0.07751  Biso   1.000  H
  C238     1.0000 0.46409  0.60537  0.07515  Biso   1.000  C
  N52      1.0000 0.51092  0.48747  0.08028  Biso   1.000  N
  C239     1.0000 0.49383  0.14927  0.15053  Biso   1.000  C
  H359     1.0000 0.45552  0.06188  0.18579  Biso   1.000  H
  N53      1.0000 0.51807  0.25862  0.10256  Biso   1.000  N
  H360     1.0000 0.51188  0.61863  0.05509  Biso   1.000  H
  H361     1.0000 0.49250  0.44620  0.08319  Biso   1.000  H
  C240     1.0000 0.59087  0.49422  0.06558  Biso   1.000  C
  H362     1.0000 0.55279  0.14181  0.15940  Biso   1.000  H
  H363     1.0000 0.49557  0.29848  0.09599  Biso   1.000  H
  C241     1.0000 0.60055  0.25231  0.09373  Biso   1.000  C
  C242     1.0000 0.63793  0.42909  0.06142  Biso   1.000  C
  O11      1.0000 0.62641  0.54745  0.05565  Biso   1.000  O
  O12      1.0000 0.64138  0.20024  0.09960  Biso   1.000  O
  C243     1.0000 0.64213  0.31564  0.07473  Biso   1.000  C
  N54      1.0000 0.60047  0.37342  0.07880  Biso   1.000  N
  C244     1.0000 0.71701  0.42974  0.03919  Biso   1.000  C
  C245     1.0000 0.72184  0.31154  0.05343  Biso   1.000  C
  C246     1.0000 0.75895  0.36957  0.03439  Biso   1.000  C
  H364     1.0000 0.74170  0.47051  0.02759  Biso   1.000  H
  H365     1.0000 0.75007  0.26982  0.05199  Biso   1.000  H
  H366     1.0000 0.81242  0.36812  0.01830  Biso   1.000  H
  C247     1.0000 0.58442  0.79881  0.30212  Biso   1.000  C
  N55      1.0000 0.64340  0.83358  0.26575  Biso   1.000  N
  H367     1.0000 0.53357  0.82622  0.30420  Biso   1.000  H
  H368     1.0000 0.56858  0.75579  0.28262  Biso   1.000  H
  H369     1.0000 0.61120  0.79101  0.34400  Biso   1.000  H
  H370     1.0000 0.58498  0.77170  0.27818  Biso   1.000  H
  H371     1.0000 0.63557  0.80691  0.33660  Biso   1.000  H
  H372     1.0000 0.57067  0.84943  0.29131  Biso   1.000  H
  C248     1.0000 0.71820  0.79211  0.26261  Biso   1.000  C
  C249     1.0000 0.66331  0.89785  0.29607  Biso   1.000  C
  C250     1.0000 0.72267  0.89150  0.27698  Biso   1.000  C
  C251     1.0000 0.70962  0.72708  0.21801  Biso   1.000  C
  H373     1.0000 0.76370  0.82082  0.24902  Biso   1.000  H
  H374     1.0000 0.73699  0.77670  0.30499  Biso   1.000  H
  H375     1.0000 0.74948  0.75619  0.29861  Biso   1.000  H
  H376     1.0000 0.79343  0.79141  0.24361  Biso   1.000  H
  N56      1.0000 0.67941  0.82982  0.25651  Biso   1.000  N
  H377     1.0000 0.61001  0.91951  0.30541  Biso   1.000  H
  H378     1.0000 0.69747  0.88960  0.33582  Biso   1.000  H
  C252     1.0000 0.71167  0.94593  0.25697  Biso   1.000  C
  C253     1.0000 0.66658  0.95223  0.26792  Biso   1.000  C
  H379     1.0000 0.61280  0.94372  0.28599  Biso   1.000  H
  H380     1.0000 0.76131  0.92312  0.24232  Biso   1.000  H
  H381     1.0000 0.74280  0.88740  0.32140  Biso   1.000  H
  H382     1.0000 0.77270  0.89760  0.25378  Biso   1.000  H
  N57      1.0000 0.70045  0.74288  0.15127  Biso   1.000  N
  H383     1.0000 0.65992  0.70072  0.22790  Biso   1.000  H
  H384     1.0000 0.76031  0.69861  0.22711  Biso   1.000  H
  C254     1.0000 0.73901  0.77470  0.25632  Biso   1.000  C
  C255     1.0000 0.61229  0.81312  0.29362  Biso   1.000  C
  H385     1.0000 0.73168  0.98529  0.28188  Biso   1.000  H
  C256     1.0000 0.64823  0.96884  0.19980  Biso   1.000  C
  H386     1.0000 0.69460  0.99090  0.28969  Biso   1.000  H
  C257     1.0000 0.72621  0.68436  0.11480  Biso   1.000  C
  C258     1.0000 0.61283  0.76074  0.13153  Biso   1.000  C
  N58      1.0000 0.70354  0.98895  0.15326  Biso   1.000  N
  H387     1.0000 0.61101  0.93152  0.18459  Biso   1.000  H
  H388     1.0000 0.61282  0.00680  0.21121  Biso   1.000  H
  C259     1.0000 0.81971  0.67135  0.12710  Biso   1.000  C
  H389     1.0000 0.69453  0.64419  0.12590  Biso   1.000  H
  H390     1.0000 0.71191  0.69311  0.07020  Biso   1.000  H
  H391     1.0000 0.57490  0.72162  0.13292  Biso   1.000  H
  H392     1.0000 0.59259  0.79701  0.15742  Biso   1.000  H
  C260     1.0000 0.58732  0.77690  0.06350  Biso   1.000  C
  C261     1.0000 0.61897  0.78520  0.06221  Biso   1.000  C
  C262     1.0000 0.65350  0.00315  0.09322  Biso   1.000  C
  C263     1.0000 0.75178  0.04922  0.17332  Biso   1.000  C
  C264     1.0000 0.84992  0.61258  0.15492  Biso   1.000  C
  C265     1.0000 0.87737  0.71817  0.10981  Biso   1.000  C
  H393     1.0000 0.55548  0.73803  0.04520  Biso   1.000  H
  H394     1.0000 0.63980  0.78030  0.04270  Biso   1.000  H
  C266     1.0000 0.53992  0.83332  0.04834  Biso   1.000  C
  C267     1.0000 0.61238  0.83653  0.03892  Biso   1.000  C
  H395     1.0000 0.57741  0.75699  0.03739  Biso   1.000  H
  H396     1.0000 0.67511  0.76910  0.05250  Biso   1.000  H
  C268     1.0000 0.62100  0.93672  0.05560  Biso   1.000  C
  C269     1.0000 0.64432  0.95213  0.05028  Biso   1.000  C
  H397     1.0000 0.68001  0.04162  0.07390  Biso   1.000  H
  H398     1.0000 0.59632  0.01751  0.10219  Biso   1.000  H
  H399     1.0000 0.71209  0.08744  0.17281  Biso   1.000  H
  H400     1.0000 0.77572  0.04272  0.21662  Biso   1.000  H
  C270     1.0000 0.82274  0.06758  0.13528  Biso   1.000  C
  C271     1.0000 0.93570  0.60232  0.16643  Biso   1.000  C
  H401     1.0000 0.81152  0.57941  0.16611  Biso   1.000  H
  C272     1.0000 0.96389  0.70787  0.12118  Biso   1.000  C
  H402     1.0000 0.85731  0.75809  0.08980  Biso   1.000  H
  N59      1.0000 0.55428  0.89810  0.08051  Biso   1.000  N
  H403     1.0000 0.54471  0.84203  0.00402  Biso   1.000  H
  H404     1.0000 0.48033  0.82112  0.05190  Biso   1.000  H
  C273     1.0000 0.50881  0.91391  0.06900  Biso   1.000  C
  H405     1.0000 0.56647  0.83262  0.00499  Biso   1.000  H
  N60      1.0000 0.59620  0.89590  0.07261  Biso   1.000  N
  H406     1.0000 0.66521  0.84443  0.01932  Biso   1.000  H
  H407     1.0000 0.67007  0.90691  0.05292  Biso   1.000  H
  H408     1.0000 0.60073  0.95023  0.01299  Biso   1.000  H
  H409     1.0000 0.61478  0.96944  0.01128  Biso   1.000  H
  H410     1.0000 0.70082  0.93622  0.04141  Biso   1.000  H
  C274     1.0000 0.83393  0.13381  0.11804  Biso   1.000  C
  C275     1.0000 0.88254  0.02021  0.12141  Biso   1.000  C
  C276     1.0000 0.99380  0.64929  0.15053  Biso   1.000  C
  H411     1.0000 0.95549  0.56190  0.18579  Biso   1.000  H
  N61      1.0000 0.01810  0.75864  0.10256  Biso   1.000  N
  C277     1.0000 0.47542  0.93582  0.07432  Biso   1.000  C
  H412     1.0000 0.45819  0.94392  0.03041  Biso   1.000  H
  H413     1.0000 0.50219  0.95463  0.09322  Biso   1.000  H
  H414     1.0000 0.48790  0.92201  0.02579  Biso   1.000  H
  H415     1.0000 0.47659  0.87739  0.08559  Biso   1.000  H
  H416     1.0000 0.79341  0.16662  0.12650  Biso   1.000  H
  C278     1.0000 0.90383  0.15212  0.08869  Biso   1.000  C
  C279     1.0000 0.95307  0.03872  0.09156  Biso   1.000  C
  H417     1.0000 0.87519  0.97474  0.13241  Biso   1.000  H
  H418     1.0000 0.05282  0.64179  0.15940  Biso   1.000  H
  H419     1.0000 0.99560  0.79851  0.09599  Biso   1.000  H
  C280     1.0000 0.10058  0.75229  0.09373  Biso   1.000  C
  H420     1.0000 0.48361  0.97859  0.09590  Biso   1.000  H
  H421     1.0000 0.43138  0.91001  0.09230  Biso   1.000  H
  C281     1.0000 0.96405  0.10535  0.07515  Biso   1.000  C
  H422     1.0000 0.91078  0.19764  0.07751  Biso   1.000  H
  N62      1.0000 0.01089  0.98744  0.08028  Biso   1.000  N
  O13      1.0000 0.14142  0.70027  0.09960  Biso   1.000  O
  C282     1.0000 0.14216  0.81567  0.07473  Biso   1.000  C
  H423     1.0000 0.01191  0.11860  0.05509  Biso   1.000  H
  C283     1.0000 0.09090  0.99420  0.06558  Biso   1.000  C
  H424     1.0000 0.99253  0.94623  0.08319  Biso   1.000  H
  N63      1.0000 0.10044  0.87344  0.07880  Biso   1.000  N
  C284     1.0000 0.22187  0.81157  0.05343  Biso   1.000  C
  C285     1.0000 0.13796  0.92912  0.06142  Biso   1.000  C
  O14      1.0000 0.12644  0.04742  0.05565  Biso   1.000  O
  C286     1.0000 0.25892  0.86954  0.03439  Biso   1.000  C
  H425     1.0000 0.25011  0.76980  0.05199  Biso   1.000  H
  C287     1.0000 0.21704  0.92972  0.03919  Biso   1.000  C
  H426     1.0000 0.31239  0.86809  0.01830  Biso   1.000  H
  H427     1.0000 0.24173  0.97054  0.02759  Biso   1.000  H
  C288     1.0000 0.41557  0.20119  0.69788  Biso   1.000  C
  N64      1.0000 0.35659  0.16642  0.73426  Biso   1.000  N
  H428     1.0000 0.46636  0.17378  0.69580  Biso   1.000  H
  H429     1.0000 0.43141  0.24421  0.71739  Biso   1.000  H
  H430     1.0000 0.38879  0.20899  0.65601  Biso   1.000  H
  H431     1.0000 0.41501  0.22830  0.72182  Biso   1.000  H
  H432     1.0000 0.36436  0.19309  0.66341  Biso   1.000  H
  H433     1.0000 0.42926  0.15062  0.70870  Biso   1.000  H
  C289     1.0000 0.28179  0.20789  0.73740  Biso   1.000  C
  C290     1.0000 0.33668  0.10220  0.70394  Biso   1.000  C
  C291     1.0000 0.27732  0.10850  0.72303  Biso   1.000  C
  C292     1.0000 0.29037  0.27297  0.78200  Biso   1.000  C
  H434     1.0000 0.23629  0.17918  0.75099  Biso   1.000  H
  H435     1.0000 0.26300  0.22330  0.69502  Biso   1.000  H
  H436     1.0000 0.25051  0.24381  0.70140  Biso   1.000  H
  H437     1.0000 0.20656  0.20859  0.75640  Biso   1.000  H
  N65      1.0000 0.32058  0.17023  0.74350  Biso   1.000  N
  H438     1.0000 0.38998  0.08049  0.69460  Biso   1.000  H
  H439     1.0000 0.30246  0.11040  0.66419  Biso   1.000  H
  C293     1.0000 0.28825  0.05407  0.74304  Biso   1.000  C
  C294     1.0000 0.33341  0.04782  0.73209  Biso   1.000  C
  H440     1.0000 0.38719  0.05633  0.71401  Biso   1.000  H
  H441     1.0000 0.23868  0.07688  0.75769  Biso   1.000  H
  H442     1.0000 0.25719  0.11260  0.67861  Biso   1.000  H
  H443     1.0000 0.22729  0.10240  0.74623  Biso   1.000  H
  N66      1.0000 0.29954  0.25712  0.84874  Biso   1.000  N
  H444     1.0000 0.34007  0.29928  0.77211  Biso   1.000  H
  H445     1.0000 0.23968  0.30139  0.77290  Biso   1.000  H
  C295     1.0000 0.26098  0.22530  0.74369  Biso   1.000  C
  C296     1.0000 0.38770  0.18688  0.70639  Biso   1.000  C
  H446     1.0000 0.26831  0.01471  0.71813  Biso   1.000  H
  C297     1.0000 0.35176  0.03116  0.80021  Biso   1.000  C
  H447     1.0000 0.30539  0.00910  0.71032  Biso   1.000  H
  C298     1.0000 0.27378  0.31564  0.88520  Biso   1.000  C
  C299     1.0000 0.38716  0.23926  0.86847  Biso   1.000  C
  N67      1.0000 0.29645  0.01105  0.84675  Biso   1.000  N
  H448     1.0000 0.38898  0.06848  0.81542  Biso   1.000  H
  H449     1.0000 0.38717  0.99320  0.78879  Biso   1.000  H
  C300     1.0000 0.18028  0.32870  0.87291  Biso   1.000  C
  H450     1.0000 0.30546  0.35581  0.87411  Biso   1.000  H
  H451     1.0000 0.28808  0.30689  0.92980  Biso   1.000  H
  H452     1.0000 0.42509  0.27843  0.86709  Biso   1.000  H
  H453     1.0000 0.40740  0.20299  0.84259  Biso   1.000  H
  C301     1.0000 0.41267  0.22310  0.93651  Biso   1.000  C
  C302     1.0000 0.38095  0.21480  0.93780  Biso   1.000  C
  C303     1.0000 0.34649  0.99685  0.90679  Biso   1.000  C
  C304     1.0000 0.24821  0.95078  0.82669  Biso   1.000  C
  C305     1.0000 0.15007  0.38742  0.84509  Biso   1.000  C
  C306     1.0000 0.12262  0.28188  0.89020  Biso   1.000  C
  H454     1.0000 0.44451  0.26202  0.95481  Biso   1.000  H
  H455     1.0000 0.36019  0.21970  0.95730  Biso   1.000  H
  C307     1.0000 0.46007  0.16673  0.95166  Biso   1.000  C
  C308     1.0000 0.38761  0.16352  0.96109  Biso   1.000  C
  H456     1.0000 0.42258  0.24301  0.96262  Biso   1.000  H
  H457     1.0000 0.32488  0.23090  0.94750  Biso   1.000  H
  C309     1.0000 0.37899  0.06328  0.94441  Biso   1.000  C
  C310     1.0000 0.35567  0.04792  0.94972  Biso   1.000  C
  H458     1.0000 0.31998  0.95838  0.92611  Biso   1.000  H
  H459     1.0000 0.40367  0.98249  0.89782  Biso   1.000  H
  H460     1.0000 0.28790  0.91261  0.82720  Biso   1.000  H
  H461     1.0000 0.22427  0.95728  0.78339  Biso   1.000  H
  C311     1.0000 0.17725  0.93247  0.86473  Biso   1.000  C
  C312     1.0000 0.06429  0.39773  0.83358  Biso   1.000  C
  H462     1.0000 0.18847  0.42059  0.83390  Biso   1.000  H
  C313     1.0000 0.03610  0.29213  0.87883  Biso   1.000  C
  H463     1.0000 0.14268  0.24191  0.91021  Biso   1.000  H
  N68      1.0000 0.44571  0.10190  0.91950  Biso   1.000  N
  H464     1.0000 0.45528  0.15802  0.99599  Biso   1.000  H
  H465     1.0000 0.51966  0.17888  0.94811  Biso   1.000  H
  C314     1.0000 0.49118  0.08609  0.93101  Biso   1.000  C
  H466     1.0000 0.43346  0.16743  0.99502  Biso   1.000  H
  N69      1.0000 0.40379  0.10410  0.92740  Biso   1.000  N
  H467     1.0000 0.33478  0.15562  0.98069  Biso   1.000  H
  H468     1.0000 0.32985  0.09309  0.94709  Biso   1.000  H
  H469     1.0000 0.39926  0.04982  0.98702  Biso   1.000  H
  H470     1.0000 0.38520  0.03061  0.98868  Biso   1.000  H
  H471     1.0000 0.29917  0.06378  0.95860  Biso   1.000  H
  C315     1.0000 0.16600  0.86619  0.88197  Biso   1.000  C
  C316     1.0000 0.11745  0.97984  0.87859  Biso   1.000  C
  C317     1.0000 0.00619  0.35076  0.84948  Biso   1.000  C
  H472     1.0000 0.04450  0.43810  0.81421  Biso   1.000  H
  N70      1.0000 0.98189  0.24136  0.89745  Biso   1.000  N
  C318     1.0000 0.52457  0.06418  0.92569  Biso   1.000  C
  H473     1.0000 0.54180  0.05613  0.96960  Biso   1.000  H
  H474     1.0000 0.49780  0.04542  0.90679  Biso   1.000  H
  H475     1.0000 0.51209  0.07799  0.97422  Biso   1.000  H
  H476     1.0000 0.52340  0.12261  0.91441  Biso   1.000  H
  H477     1.0000 0.20658  0.83338  0.87351  Biso   1.000  H
  C319     1.0000 0.09616  0.84793  0.91132  Biso   1.000  C
  H478     1.0000 0.12480  0.02531  0.86759  Biso   1.000  H
  C320     1.0000 0.04692  0.96128  0.90845  Biso   1.000  C
  H479     1.0000 0.94717  0.35821  0.84060  Biso   1.000  H
  H480     1.0000 0.00439  0.20149  0.90401  Biso   1.000  H
  C321     1.0000 0.89941  0.24771  0.90628  Biso   1.000  C
  H481     1.0000 0.51638  0.02141  0.90411  Biso   1.000  H
  H482     1.0000 0.56861  0.08999  0.90771  Biso   1.000  H
  H483     1.0000 0.08921  0.80241  0.92250  Biso   1.000  H
  C322     1.0000 0.03587  0.89465  0.92486  Biso   1.000  C
  N71      1.0000 0.98904  0.01256  0.91973  Biso   1.000  N
  O15      1.0000 0.85857  0.29973  0.90041  Biso   1.000  O
  C323     1.0000 0.85783  0.18433  0.92527  Biso   1.000  C
  H484     1.0000 0.98808  0.88140  0.94492  Biso   1.000  H
  H485     1.0000 0.00746  0.05382  0.91682  Biso   1.000  H
  C324     1.0000 0.90909  0.00580  0.93443  Biso   1.000  C
  N72      1.0000 0.89955  0.12661  0.92121  Biso   1.000  N
  C325     1.0000 0.77812  0.18843  0.94658  Biso   1.000  C
  O16      1.0000 0.87355  0.95258  0.94436  Biso   1.000  O
  C326     1.0000 0.86203  0.07093  0.93858  Biso   1.000  C
  C327     1.0000 0.74107  0.13046  0.96562  Biso   1.000  C
  H486     1.0000 0.74988  0.23020  0.94801  Biso   1.000  H
  C328     1.0000 0.78295  0.07028  0.96082  Biso   1.000  C
  H487     1.0000 0.68760  0.13191  0.98171  Biso   1.000  H
  H488     1.0000 0.75826  0.02951  0.97242  Biso   1.000  H
