data_image0
_cell_length_a       25.783
_cell_length_b       25.783
_cell_length_c       25.689
_cell_angle_alpha    90
_cell_angle_beta     90
_cell_angle_gamma    90

_symmetry_space_group_name_H-M    "P 1"
_symmetry_int_tables_number       1

loop_
  _symmetry_equiv_pos_as_xyz
  'x, y, z'

loop_
  _atom_site_label
  _atom_site_occupancy
  _atom_site_fract_x
  _atom_site_fract_y
  _atom_site_fract_z
  _atom_site_thermal_displace_type
  _atom_site_B_iso_or_equiv
  _atom_site_type_symbol
  C1       1.0000 0.73277  0.72121  0.68621  Biso   1.000  C
  C2       1.0000 0.71221  0.68758  0.72311  Biso   1.000  C
  C3       1.0000 0.77578  0.70647  0.65717  Biso   1.000  C
  H1       1.0000 0.71737  0.75430  0.68080  Biso   1.000  H
  C4       1.0000 0.66757  0.70267  0.75441  Biso   1.000  C
  C5       1.0000 0.73467  0.63918  0.73101  Biso   1.000  C
  C6       1.0000 0.79832  0.65811  0.66511  Biso   1.000  C
  C7       1.0000 0.79898  0.74289  0.61291  Biso   1.000  C
  N1       1.0000 0.64341  0.74468  0.74818  Biso   1.000  N
  H2       1.0000 0.65609  0.67967  0.78088  Biso   1.000  H
  C8       1.0000 0.77780  0.62448  0.70201  Biso   1.000  C
  O1       1.0000 0.71376  0.60955  0.76916  Biso   1.000  O
  H3       1.0000 0.82768  0.64810  0.64518  Biso   1.000  H
  C9       1.0000 0.76178  0.79277  0.61221  Biso   1.000  C
  C10      1.0000 0.85587  0.75189  0.62089  Biso   1.000  C
  C11      1.0000 0.79347  0.71768  0.56320  Biso   1.000  C
  C12      1.0000 0.59438  0.75259  0.78010  Biso   1.000  C
  C13      1.0000 0.80499  0.57790  0.70801  Biso   1.000  C
  H4       1.0000 0.73207  0.58271  0.77119  Biso   1.000  H
  H5       1.0000 0.72610  0.78187  0.60520  Biso   1.000  H
  H6       1.0000 0.77330  0.81678  0.58488  Biso   1.000  H
  H7       1.0000 0.76337  0.81030  0.64611  Biso   1.000  H
  H8       1.0000 0.87399  0.71838  0.62178  Biso   1.000  H
  H9       1.0000 0.86138  0.77008  0.65390  Biso   1.000  H
  H10      1.0000 0.86949  0.77287  0.59220  Biso   1.000  H
  H11      1.0000 0.75678  0.71051  0.55658  Biso   1.000  H
  H12      1.0000 0.81298  0.68510  0.56339  Biso   1.000  H
  H13      1.0000 0.80708  0.74037  0.53579  Biso   1.000  H
  C14      1.0000 0.54908  0.76380  0.74409  Biso   1.000  C
  H14      1.0000 0.58709  0.72117  0.80178  Biso   1.000  H
  C15      1.0000 0.60319  0.80010  0.81498  Biso   1.000  C
  N2       1.0000 0.78358  0.54261  0.74440  Biso   1.000  N
  H15      1.0000 0.83571  0.57049  0.68901  Biso   1.000  H
  C16      1.0000 0.49959  0.77249  0.77558  Biso   1.000  C
  H16      1.0000 0.54400  0.73428  0.72000  Biso   1.000  H
  H17      1.0000 0.55668  0.79510  0.72299  Biso   1.000  H
  C17      1.0000 0.55781  0.80910  0.84628  Biso   1.000  C
  H18      1.0000 0.63360  0.79421  0.83779  Biso   1.000  H
  H19      1.0000 0.61029  0.83090  0.79318  Biso   1.000  H
  C18      1.0000 0.80530  0.49009  0.74818  Biso   1.000  C
  N3       1.0000 0.45328  0.78129  0.74479  Biso   1.000  N
  H20      1.0000 0.49389  0.74278  0.79988  Biso   1.000  H
  C19      1.0000 0.50941  0.82609  0.80918  Biso   1.000  C
  H21      1.0000 0.54877  0.77718  0.86648  Biso   1.000  H
  N4       1.0000 0.56390  0.85459  0.88248  Biso   1.000  N
  C20      1.0000 0.76888  0.44909  0.73720  Biso   1.000  C
  H22      1.0000 0.83520  0.48718  0.72358  Biso   1.000  H
  C21      1.0000 0.82519  0.48788  0.80248  Biso   1.000  C
  C22      1.0000 0.42028  0.75340  0.74561  Biso   1.000  C
  H23      1.0000 0.51891  0.85537  0.78621  Biso   1.000  H
  H24      1.0000 0.47849  0.83559  0.83001  Biso   1.000  H
  C23      1.0000 0.56421  0.84699  0.93289  Biso   1.000  C
  C24      1.0000 0.78757  0.39561  0.74740  Biso   1.000  C
  H25      1.0000 0.75868  0.45150  0.70011  Biso   1.000  H
  H26      1.0000 0.73731  0.45499  0.75830  Biso   1.000  H
  C25      1.0000 0.84959  0.43079  0.81770  Biso   1.000  C
  H27      1.0000 0.79649  0.49610  0.82677  Biso   1.000  H
  H28      1.0000 0.85231  0.51468  0.80688  Biso   1.000  H
  C26      1.0000 0.37218  0.75329  0.71622  Biso   1.000  C
  H29      1.0000 0.42419  0.72528  0.76920  Biso   1.000  H
  H30      1.0000 0.56080  0.81290  0.94648  Biso   1.000  H
  C27      1.0000 0.56968  0.89090  0.96789  Biso   1.000  C
  N5       1.0000 0.74681  0.35849  0.73911  Biso   1.000  N
  H31      1.0000 0.81600  0.38789  0.72198  Biso   1.000  H
  C28      1.0000 0.80929  0.38820  0.80178  Biso   1.000  C
  H32      1.0000 0.88217  0.42540  0.79731  Biso   1.000  H
  N6       1.0000 0.86227  0.43110  0.87220  Biso   1.000  N
  C29      1.0000 0.33460  0.71578  0.72576  Biso   1.000  C
  C30      1.0000 0.36287  0.79227  0.67998  Biso   1.000  C
  C31      1.0000 0.57658  0.94178  0.95150  Biso   1.000  C
  C32      1.0000 0.57158  0.87891  0.02059  Biso   1.000  C
  C33      1.0000 0.75340  0.32238  0.70918  Biso   1.000  C
  H33      1.0000 0.82620  0.35368  0.80388  Biso   1.000  H
  H34      1.0000 0.78028  0.38851  0.82709  Biso   1.000  H
  C34      1.0000 0.90839  0.42140  0.88528  Biso   1.000  C
  C35      1.0000 0.28771  0.71733  0.69909  Biso   1.000  C
  O2       1.0000 0.34616  0.67684  0.75931  Biso   1.000  O
  C36      1.0000 0.31598  0.79378  0.65335  Biso   1.000  C
  H35      1.0000 0.38859  0.81790  0.67348  Biso   1.000  H
  C37      1.0000 0.58539  0.98076  0.98778  Biso   1.000  C
  H36      1.0000 0.57519  0.94997  0.91549  Biso   1.000  H
  C38      1.0000 0.58050  0.91789  0.05691  Biso   1.000  C
  O3       1.0000 0.56374  0.82675  0.03379  Biso   1.000  O
  C39      1.0000 0.71229  0.28267  0.69909  Biso   1.000  C
  H37      1.0000 0.78567  0.31928  0.69158  Biso   1.000  H
  C40      1.0000 0.91789  0.41950  0.94309  Biso   1.000  C
  H38      1.0000 0.93519  0.41570  0.86060  Biso   1.000  H
  C41      1.0000 0.24660  0.67758  0.70918  Biso   1.000  C
  C42      1.0000 0.27840  0.75627  0.66293  Biso   1.000  C
  H39      1.0000 0.32099  0.65609  0.75951  Biso   1.000  H
  C43      1.0000 0.30559  0.83978  0.61120  Biso   1.000  C
  C44      1.0000 0.58729  0.96878  0.04048  Biso   1.000  C
  C45      1.0000 0.59190  0.03619  0.96668  Biso   1.000  C
  C46      1.0000 0.57860  0.90839  0.11472  Biso   1.000  C
  H40      1.0000 0.54718  0.82469  0.06182  Biso   1.000  H
  C47      1.0000 0.66536  0.28418  0.72576  Biso   1.000  C
  C48      1.0000 0.72160  0.24369  0.66293  Biso   1.000  C
  C49      1.0000 0.87891  0.42838  0.97941  Biso   1.000  C
  C50      1.0000 0.96878  0.41268  0.95948  Biso   1.000  C
  N7       1.0000 0.25315  0.64151  0.73911  Biso   1.000  N
  H41      1.0000 0.21429  0.68068  0.69158  Biso   1.000  H
  H42      1.0000 0.24629  0.75728  0.64471  Biso   1.000  H
  C51      1.0000 0.32549  0.88729  0.63459  Biso   1.000  C
  C52      1.0000 0.34011  0.81728  0.56199  Biso   1.000  C
  C53      1.0000 0.24939  0.83819  0.59660  Biso   1.000  C
  H43      1.0000 0.59338  0.99538  0.06540  Biso   1.000  H
  C54      1.0000 0.58089  0.05469  0.91459  Biso   1.000  C
  C55      1.0000 0.65469  0.04899  0.98151  Biso   1.000  C
  C56      1.0000 0.56568  0.07672  0.00969  Biso   1.000  C
  H44      1.0000 0.58430  0.93519  0.13940  Biso   1.000  H
  N8       1.0000 0.56890  0.86227  0.12780  Biso   1.000  N
  C57      1.0000 0.62782  0.24671  0.71622  Biso   1.000  C
  O4       1.0000 0.65384  0.32312  0.75931  Biso   1.000  O
  C58      1.0000 0.68398  0.20622  0.65335  Biso   1.000  C
  H45      1.0000 0.75367  0.24268  0.64471  Biso   1.000  H
  O5       1.0000 0.82675  0.43622  0.96621  Biso   1.000  O
  C59      1.0000 0.89090  0.43028  0.03211  Biso   1.000  C
  H46      1.0000 0.99538  0.40659  0.93460  Biso   1.000  H
  C60      1.0000 0.98076  0.41458  0.01218  Biso   1.000  C
  C61      1.0000 0.21239  0.60439  0.74740  Biso   1.000  C
  H47      1.0000 0.36210  0.88260  0.64370  Biso   1.000  H
  H48      1.0000 0.30559  0.89528  0.66608  Biso   1.000  H
  H49      1.0000 0.32219  0.91587  0.60979  Biso   1.000  H
  H50      1.0000 0.32498  0.78459  0.54989  Biso   1.000  H
  H51      1.0000 0.37579  0.81139  0.57340  Biso   1.000  H
  H52      1.0000 0.33980  0.84257  0.53350  Biso   1.000  H
  H53      1.0000 0.24078  0.80367  0.58309  Biso   1.000  H
  H54      1.0000 0.24249  0.86429  0.56970  Biso   1.000  H
  H55      1.0000 0.22810  0.84548  0.62731  Biso   1.000  H
  H56      1.0000 0.58829  0.09188  0.91261  Biso   1.000  H
  H57      1.0000 0.54427  0.04860  0.90650  Biso   1.000  H
  H58      1.0000 0.60268  0.03611  0.88960  Biso   1.000  H
  H59      1.0000 0.66350  0.08409  0.96999  Biso   1.000  H
  H60      1.0000 0.67719  0.02389  0.96380  Biso   1.000  H
  H61      1.0000 0.65970  0.04631  0.01919  Biso   1.000  H
  H62      1.0000 0.56879  0.11240  0.99689  Biso   1.000  H
  H63      1.0000 0.58380  0.07350  0.04301  Biso   1.000  H
  H64      1.0000 0.52888  0.06811  0.01448  Biso   1.000  H
  C62      1.0000 0.56917  0.84959  0.18230  Biso   1.000  C
  C63      1.0000 0.57968  0.24660  0.74561  Biso   1.000  C
  C64      1.0000 0.63713  0.20773  0.67998  Biso   1.000  C
  H65      1.0000 0.67897  0.34391  0.75951  Biso   1.000  H
  C65      1.0000 0.69437  0.16018  0.61120  Biso   1.000  C
  H66      1.0000 0.82469  0.45278  0.93818  Biso   1.000  H
  C66      1.0000 0.84699  0.43579  0.06711  Biso   1.000  C
  C67      1.0000 0.94178  0.42338  0.04850  Biso   1.000  C
  C68      1.0000 0.03619  0.40810  0.03328  Biso   1.000  C
  C69      1.0000 0.23108  0.55091  0.73720  Biso   1.000  C
  H67      1.0000 0.18400  0.61211  0.72198  Biso   1.000  H
  C70      1.0000 0.19071  0.61180  0.80178  Biso   1.000  C
  C71      1.0000 0.51208  0.82519  0.19752  Biso   1.000  C
  H68      1.0000 0.57460  0.88217  0.20269  Biso   1.000  H
  C72      1.0000 0.61180  0.80929  0.19822  Biso   1.000  C
  N9       1.0000 0.54668  0.21871  0.74479  Biso   1.000  N
  H69      1.0000 0.57581  0.27468  0.76920  Biso   1.000  H
  H70      1.0000 0.61137  0.18210  0.67348  Biso   1.000  H
  C73      1.0000 0.67448  0.11271  0.63459  Biso   1.000  C
  C74      1.0000 0.65989  0.18268  0.56199  Biso   1.000  C
  C75      1.0000 0.75057  0.16181  0.59660  Biso   1.000  C
  H71      1.0000 0.81290  0.43920  0.05349  Biso   1.000  H
  N10      1.0000 0.85459  0.43610  0.11748  Biso   1.000  N
  H72      1.0000 0.94997  0.42478  0.08451  Biso   1.000  H
  C76      1.0000 0.07672  0.43428  0.99031  Biso   1.000  C
  C77      1.0000 0.05469  0.41907  0.08541  Biso   1.000  C
  C78      1.0000 0.04899  0.34531  0.01849  Biso   1.000  C
  C79      1.0000 0.19470  0.50991  0.74818  Biso   1.000  C
  H73      1.0000 0.24128  0.54850  0.70011  Biso   1.000  H
  H74      1.0000 0.26269  0.54501  0.75830  Biso   1.000  H
  C80      1.0000 0.15041  0.56917  0.81770  Biso   1.000  C
  H75      1.0000 0.17380  0.64628  0.80388  Biso   1.000  H
  H76      1.0000 0.21968  0.61149  0.82709  Biso   1.000  H
  C81      1.0000 0.50991  0.80530  0.25178  Biso   1.000  C
  H77      1.0000 0.50390  0.79649  0.17319  Biso   1.000  H
  H78      1.0000 0.48528  0.85231  0.19312  Biso   1.000  H
  C82      1.0000 0.60439  0.78757  0.25260  Biso   1.000  C
  H79      1.0000 0.64628  0.82620  0.19612  Biso   1.000  H
  H80      1.0000 0.61149  0.78028  0.17291  Biso   1.000  H
  C83      1.0000 0.50041  0.22751  0.77558  Biso   1.000  C
  H81      1.0000 0.63790  0.11740  0.64370  Biso   1.000  H
  H82      1.0000 0.69437  0.10468  0.66608  Biso   1.000  H
  H83      1.0000 0.67777  0.08409  0.60979  Biso   1.000  H
  H84      1.0000 0.67498  0.21541  0.54989  Biso   1.000  H
  H85      1.0000 0.62417  0.18861  0.57340  Biso   1.000  H
  H86      1.0000 0.66020  0.15739  0.53350  Biso   1.000  H
  H87      1.0000 0.75918  0.19629  0.58309  Biso   1.000  H
  H88      1.0000 0.75748  0.13571  0.56970  Biso   1.000  H
  H89      1.0000 0.77190  0.15448  0.62731  Biso   1.000  H
  C84      1.0000 0.80910  0.44219  0.15368  Biso   1.000  C
  H90      1.0000 0.07350  0.41620  0.95699  Biso   1.000  H
  H91      1.0000 0.06811  0.47109  0.98548  Biso   1.000  H
  H92      1.0000 0.11240  0.43118  0.00311  Biso   1.000  H
  H93      1.0000 0.09188  0.41171  0.08739  Biso   1.000  H
  H94      1.0000 0.04860  0.45569  0.09350  Biso   1.000  H
  H95      1.0000 0.03611  0.39728  0.11040  Biso   1.000  H
  H96      1.0000 0.04631  0.34030  0.98081  Biso   1.000  H
  H97      1.0000 0.08409  0.33650  0.03001  Biso   1.000  H
  H98      1.0000 0.02389  0.32281  0.03620  Biso   1.000  H
  N11      1.0000 0.21638  0.45739  0.74440  Biso   1.000  N
  H99      1.0000 0.16480  0.51278  0.72358  Biso   1.000  H
  C85      1.0000 0.17481  0.51208  0.80248  Biso   1.000  C
  H100     1.0000 0.11779  0.57460  0.79731  Biso   1.000  H
  N12      1.0000 0.13769  0.56890  0.87220  Biso   1.000  N
  N13      1.0000 0.45739  0.78358  0.25560  Biso   1.000  N
  C86      1.0000 0.55091  0.76888  0.26280  Biso   1.000  C
  H101     1.0000 0.51278  0.83520  0.27638  Biso   1.000  H
  H102     1.0000 0.61211  0.81600  0.27798  Biso   1.000  H
  N14      1.0000 0.64151  0.74681  0.26089  Biso   1.000  N
  C87      1.0000 0.45088  0.23620  0.74409  Biso   1.000  C
  H103     1.0000 0.50611  0.25718  0.79988  Biso   1.000  H
  C88      1.0000 0.49059  0.17391  0.80918  Biso   1.000  C
  C89      1.0000 0.80010  0.39681  0.18498  Biso   1.000  C
  H104     1.0000 0.77718  0.45119  0.13348  Biso   1.000  H
  C90      1.0000 0.82609  0.49059  0.19078  Biso   1.000  C
  C91      1.0000 0.19501  0.42210  0.70801  Biso   1.000  C
  H105     1.0000 0.20351  0.50390  0.82677  Biso   1.000  H
  H106     1.0000 0.14769  0.48528  0.80688  Biso   1.000  H
  C92      1.0000 0.09161  0.57860  0.88528  Biso   1.000  C
  C93      1.0000 0.42210  0.80499  0.29199  Biso   1.000  C
  H107     1.0000 0.54850  0.75868  0.29989  Biso   1.000  H
  H108     1.0000 0.54501  0.73731  0.24170  Biso   1.000  H
  C94      1.0000 0.67758  0.75340  0.29079  Biso   1.000  C
  C95      1.0000 0.40558  0.24741  0.78010  Biso   1.000  C
  H109     1.0000 0.45600  0.26568  0.72000  Biso   1.000  H
  H110     1.0000 0.44328  0.20490  0.72299  Biso   1.000  H
  C96      1.0000 0.44219  0.19090  0.84628  Biso   1.000  C
  H111     1.0000 0.48109  0.14459  0.78621  Biso   1.000  H
  H112     1.0000 0.52151  0.16441  0.83001  Biso   1.000  H
  C97      1.0000 0.75259  0.40558  0.21990  Biso   1.000  C
  H113     1.0000 0.79421  0.36640  0.16221  Biso   1.000  H
  H114     1.0000 0.83090  0.38968  0.20678  Biso   1.000  H
  C98      1.0000 0.77249  0.50041  0.22442  Biso   1.000  C
  H115     1.0000 0.85537  0.48109  0.21379  Biso   1.000  H
  H116     1.0000 0.83559  0.52151  0.16999  Biso   1.000  H
  C99      1.0000 0.22220  0.37552  0.70201  Biso   1.000  C
  H117     1.0000 0.16429  0.42951  0.68901  Biso   1.000  H
  C100     1.0000 0.08211  0.58050  0.94309  Biso   1.000  C
  H118     1.0000 0.06481  0.58430  0.86060  Biso   1.000  H
  C101     1.0000 0.37552  0.77780  0.29799  Biso   1.000  C
  H119     1.0000 0.42951  0.83571  0.31099  Biso   1.000  H
  H120     1.0000 0.68068  0.78567  0.30838  Biso   1.000  H
  C102     1.0000 0.71733  0.71229  0.30091  Biso   1.000  C
  N15      1.0000 0.35659  0.25528  0.74818  Biso   1.000  N
  H121     1.0000 0.41291  0.27879  0.80178  Biso   1.000  H
  C103     1.0000 0.39681  0.19990  0.81498  Biso   1.000  C
  H122     1.0000 0.45119  0.22278  0.86648  Biso   1.000  H
  N16      1.0000 0.43610  0.14541  0.88248  Biso   1.000  N
  N17      1.0000 0.74468  0.35659  0.25178  Biso   1.000  N
  C104     1.0000 0.76380  0.45088  0.25591  Biso   1.000  C
  H123     1.0000 0.72117  0.41291  0.19822  Biso   1.000  H
  H124     1.0000 0.74278  0.50611  0.20009  Biso   1.000  H
  N18      1.0000 0.78129  0.54668  0.25521  Biso   1.000  N
  C105     1.0000 0.20168  0.34189  0.66511  Biso   1.000  C
  C106     1.0000 0.26529  0.36078  0.73101  Biso   1.000  C
  C107     1.0000 0.12105  0.57158  0.97941  Biso   1.000  C
  C108     1.0000 0.03118  0.58729  0.95948  Biso   1.000  C
  C109     1.0000 0.36078  0.73467  0.26899  Biso   1.000  C
  C110     1.0000 0.34189  0.79832  0.33489  Biso   1.000  C
  C111     1.0000 0.71578  0.66536  0.27420  Biso   1.000  C
  C112     1.0000 0.75627  0.72160  0.33707  Biso   1.000  C
  C113     1.0000 0.33239  0.29729  0.75441  Biso   1.000  C
  H125     1.0000 0.36640  0.20579  0.83779  Biso   1.000  H
  H126     1.0000 0.38968  0.16910  0.79318  Biso   1.000  H
  C114     1.0000 0.43579  0.15301  0.93289  Biso   1.000  C
  C115     1.0000 0.70267  0.33239  0.24559  Biso   1.000  C
  H127     1.0000 0.73428  0.45600  0.28000  Biso   1.000  H
  H128     1.0000 0.79510  0.44328  0.27701  Biso   1.000  H
  C116     1.0000 0.75340  0.57968  0.25439  Biso   1.000  C
  C117     1.0000 0.22418  0.29353  0.65717  Biso   1.000  C
  H129     1.0000 0.17228  0.35190  0.64518  Biso   1.000  H
  C118     1.0000 0.28779  0.31238  0.72311  Biso   1.000  C
  O6       1.0000 0.28620  0.39045  0.76916  Biso   1.000  O
  O7       1.0000 0.17325  0.56374  0.96621  Biso   1.000  O
  C119     1.0000 0.10910  0.56968  0.03211  Biso   1.000  C
  H130     1.0000 0.00462  0.59338  0.93460  Biso   1.000  H
  C120     1.0000 0.01924  0.58539  0.01218  Biso   1.000  C
  C121     1.0000 0.31238  0.71221  0.27689  Biso   1.000  C
  O8       1.0000 0.39045  0.71376  0.23084  Biso   1.000  O
  C122     1.0000 0.29353  0.77578  0.34283  Biso   1.000  C
  H131     1.0000 0.35190  0.82768  0.35478  Biso   1.000  H
  C123     1.0000 0.75329  0.62782  0.28378  Biso   1.000  C
  O9       1.0000 0.67684  0.65384  0.24069  Biso   1.000  O
  C124     1.0000 0.79378  0.68398  0.34665  Biso   1.000  C
  H132     1.0000 0.75728  0.75367  0.35529  Biso   1.000  H
  H133     1.0000 0.34391  0.32029  0.78088  Biso   1.000  H
  H134     1.0000 0.43920  0.18710  0.94648  Biso   1.000  H
  C125     1.0000 0.43028  0.10910  0.96789  Biso   1.000  C
  C126     1.0000 0.68758  0.28779  0.27689  Biso   1.000  C
  H135     1.0000 0.67967  0.34391  0.21908  Biso   1.000  H
  H136     1.0000 0.72528  0.57581  0.23080  Biso   1.000  H
  C127     1.0000 0.20099  0.25711  0.61291  Biso   1.000  C
  C128     1.0000 0.26719  0.27879  0.68621  Biso   1.000  C
  H137     1.0000 0.26789  0.41729  0.77119  Biso   1.000  H
  H138     1.0000 0.17531  0.54718  0.93818  Biso   1.000  H
  C129     1.0000 0.15301  0.56421  0.06711  Biso   1.000  C
  C130     1.0000 0.05822  0.57658  0.04850  Biso   1.000  C
  C131     1.0000 0.96377  0.59190  0.03328  Biso   1.000  C
  C132     1.0000 0.29729  0.66757  0.24559  Biso   1.000  C
  C133     1.0000 0.27879  0.73277  0.31379  Biso   1.000  C
  H139     1.0000 0.41729  0.73207  0.22881  Biso   1.000  H
  C134     1.0000 0.25711  0.79898  0.38709  Biso   1.000  C
  C135     1.0000 0.79227  0.63713  0.31998  Biso   1.000  C
  H140     1.0000 0.65609  0.67897  0.24049  Biso   1.000  H
  C136     1.0000 0.83978  0.69437  0.38880  Biso   1.000  C
  C137     1.0000 0.42338  0.05822  0.95150  Biso   1.000  C
  C138     1.0000 0.42838  0.12105  0.02059  Biso   1.000  C
  C139     1.0000 0.63918  0.26529  0.26899  Biso   1.000  C
  C140     1.0000 0.72121  0.26719  0.31379  Biso   1.000  C
  C141     1.0000 0.20649  0.28228  0.56320  Biso   1.000  C
  C142     1.0000 0.23818  0.20719  0.61221  Biso   1.000  C
  C143     1.0000 0.14409  0.24811  0.62089  Biso   1.000  C
  H141     1.0000 0.28259  0.24570  0.68080  Biso   1.000  H
  H142     1.0000 0.18710  0.56080  0.05349  Biso   1.000  H
  N19      1.0000 0.14541  0.56390  0.11748  Biso   1.000  N
  H143     1.0000 0.04999  0.57519  0.08451  Biso   1.000  H
  C144     1.0000 0.92328  0.56568  0.99031  Biso   1.000  C
  C145     1.0000 0.94527  0.58089  0.08541  Biso   1.000  C
  C146     1.0000 0.95098  0.65469  0.01849  Biso   1.000  C
  N20      1.0000 0.25528  0.64341  0.25178  Biso   1.000  N
  H144     1.0000 0.32029  0.65609  0.21908  Biso   1.000  H
  H145     1.0000 0.24570  0.71737  0.31920  Biso   1.000  H
  C147     1.0000 0.20719  0.76178  0.38779  Biso   1.000  C
  C148     1.0000 0.24811  0.85587  0.37911  Biso   1.000  C
  C149     1.0000 0.28228  0.79347  0.43680  Biso   1.000  C
  H146     1.0000 0.81790  0.61137  0.32648  Biso   1.000  H
  C150     1.0000 0.88729  0.67448  0.36541  Biso   1.000  C
  C151     1.0000 0.81728  0.65989  0.43801  Biso   1.000  C
  C152     1.0000 0.83819  0.75057  0.40340  Biso   1.000  C
  C153     1.0000 0.41458  0.01924  0.98778  Biso   1.000  C
  H147     1.0000 0.42478  0.04999  0.91549  Biso   1.000  H
  C154     1.0000 0.41950  0.08211  0.05691  Biso   1.000  C
  O10      1.0000 0.43622  0.17325  0.03379  Biso   1.000  O
  C155     1.0000 0.62448  0.22220  0.29799  Biso   1.000  C
  O11      1.0000 0.60955  0.28620  0.23084  Biso   1.000  O
  C156     1.0000 0.70647  0.22418  0.34283  Biso   1.000  C
  H148     1.0000 0.75430  0.28259  0.31920  Biso   1.000  H
  H149     1.0000 0.24318  0.28949  0.55658  Biso   1.000  H
  H150     1.0000 0.18698  0.31490  0.56339  Biso   1.000  H
  H151     1.0000 0.19288  0.25959  0.53579  Biso   1.000  H
  H152     1.0000 0.27390  0.21809  0.60520  Biso   1.000  H
  H153     1.0000 0.22670  0.18318  0.58488  Biso   1.000  H
  H154     1.0000 0.23659  0.18970  0.64611  Biso   1.000  H
  H155     1.0000 0.12601  0.28158  0.62178  Biso   1.000  H
  H156     1.0000 0.13858  0.22988  0.65390  Biso   1.000  H
  H157     1.0000 0.13051  0.22709  0.59220  Biso   1.000  H
  C157     1.0000 0.19090  0.55781  0.15368  Biso   1.000  C
  H158     1.0000 0.92650  0.58380  0.95699  Biso   1.000  H
  H159     1.0000 0.93189  0.52888  0.98548  Biso   1.000  H
  H160     1.0000 0.88760  0.56879  0.00311  Biso   1.000  H
  H161     1.0000 0.90808  0.58829  0.08739  Biso   1.000  H
  H162     1.0000 0.95140  0.54427  0.09350  Biso   1.000  H
  H163     1.0000 0.96389  0.60268  0.11040  Biso   1.000  H
  H164     1.0000 0.95369  0.65970  0.98081  Biso   1.000  H
  H165     1.0000 0.91587  0.66350  0.03001  Biso   1.000  H
  H166     1.0000 0.97607  0.67719  0.03620  Biso   1.000  H
  C158     1.0000 0.24741  0.59438  0.21990  Biso   1.000  C
  H167     1.0000 0.21809  0.72610  0.39480  Biso   1.000  H
  H168     1.0000 0.18318  0.77330  0.41508  Biso   1.000  H
  H169     1.0000 0.18970  0.76337  0.35389  Biso   1.000  H
  H170     1.0000 0.28158  0.87399  0.37822  Biso   1.000  H
  H171     1.0000 0.22988  0.86138  0.34610  Biso   1.000  H
  H172     1.0000 0.22709  0.86949  0.40780  Biso   1.000  H
  H173     1.0000 0.28949  0.75678  0.44338  Biso   1.000  H
  H174     1.0000 0.31490  0.81298  0.43661  Biso   1.000  H
  H175     1.0000 0.25959  0.80708  0.46421  Biso   1.000  H
  H176     1.0000 0.88260  0.63790  0.35630  Biso   1.000  H
  H177     1.0000 0.89528  0.69437  0.33388  Biso   1.000  H
  H178     1.0000 0.91587  0.67777  0.39021  Biso   1.000  H
  H179     1.0000 0.78459  0.67498  0.45011  Biso   1.000  H
  H180     1.0000 0.81139  0.62417  0.42660  Biso   1.000  H
  H181     1.0000 0.84257  0.66020  0.46650  Biso   1.000  H
  H182     1.0000 0.80367  0.75918  0.41691  Biso   1.000  H
  H183     1.0000 0.86429  0.75748  0.43030  Biso   1.000  H
  H184     1.0000 0.84548  0.77190  0.37269  Biso   1.000  H
  C159     1.0000 0.40810  0.96377  0.96668  Biso   1.000  C
  C160     1.0000 0.41268  0.03118  0.04048  Biso   1.000  C
  C161     1.0000 0.42140  0.09161  0.11472  Biso   1.000  C
  H185     1.0000 0.45278  0.17531  0.06182  Biso   1.000  H
  C162     1.0000 0.57790  0.19501  0.29199  Biso   1.000  C
  C163     1.0000 0.65811  0.20168  0.33489  Biso   1.000  C
  H186     1.0000 0.58271  0.26789  0.22881  Biso   1.000  H
  C164     1.0000 0.74289  0.20099  0.38709  Biso   1.000  C
  C165     1.0000 0.19990  0.60319  0.18498  Biso   1.000  C
  H187     1.0000 0.22278  0.54877  0.13348  Biso   1.000  H
  C166     1.0000 0.17391  0.50941  0.19078  Biso   1.000  C
  C167     1.0000 0.23620  0.54908  0.25591  Biso   1.000  C
  H188     1.0000 0.27879  0.58709  0.19822  Biso   1.000  H
  C168     1.0000 0.41907  0.94527  0.91459  Biso   1.000  C
  C169     1.0000 0.34531  0.95098  0.98151  Biso   1.000  C
  C170     1.0000 0.43428  0.92328  0.00969  Biso   1.000  C
  H189     1.0000 0.40659  0.00462  0.06540  Biso   1.000  H
  H190     1.0000 0.41570  0.06481  0.13940  Biso   1.000  H
  N21      1.0000 0.43110  0.13769  0.12780  Biso   1.000  N
  N22      1.0000 0.54261  0.21638  0.25560  Biso   1.000  N
  H191     1.0000 0.57049  0.16429  0.31099  Biso   1.000  H
  H192     1.0000 0.64810  0.17228  0.35478  Biso   1.000  H
  C171     1.0000 0.79277  0.23818  0.38779  Biso   1.000  C
  C172     1.0000 0.75189  0.14409  0.37911  Biso   1.000  C
  C173     1.0000 0.71768  0.20649  0.43680  Biso   1.000  C
  H193     1.0000 0.20579  0.63360  0.16221  Biso   1.000  H
  H194     1.0000 0.16910  0.61029  0.20678  Biso   1.000  H
  C174     1.0000 0.22751  0.49959  0.22442  Biso   1.000  C
  H195     1.0000 0.14459  0.51891  0.21379  Biso   1.000  H
  H196     1.0000 0.16441  0.47849  0.16999  Biso   1.000  H
  H197     1.0000 0.26568  0.54400  0.28000  Biso   1.000  H
  H198     1.0000 0.20490  0.55668  0.27701  Biso   1.000  H
  H199     1.0000 0.41171  0.90808  0.91261  Biso   1.000  H
  H200     1.0000 0.45569  0.95140  0.90650  Biso   1.000  H
  H201     1.0000 0.39728  0.96389  0.88960  Biso   1.000  H
  H202     1.0000 0.33650  0.91587  0.96999  Biso   1.000  H
  H203     1.0000 0.32281  0.97607  0.96380  Biso   1.000  H
  H204     1.0000 0.34030  0.95369  0.01919  Biso   1.000  H
  H205     1.0000 0.43118  0.88760  0.99689  Biso   1.000  H
  H206     1.0000 0.41620  0.92650  0.04301  Biso   1.000  H
  H207     1.0000 0.47109  0.93189  0.01448  Biso   1.000  H
  C175     1.0000 0.43079  0.15041  0.18230  Biso   1.000  C
  C176     1.0000 0.49009  0.19470  0.25178  Biso   1.000  C
  H208     1.0000 0.78187  0.27390  0.39480  Biso   1.000  H
  H209     1.0000 0.81678  0.22670  0.41508  Biso   1.000  H
  H210     1.0000 0.81030  0.23659  0.35389  Biso   1.000  H
  H211     1.0000 0.71838  0.12601  0.37822  Biso   1.000  H
  H212     1.0000 0.77008  0.13858  0.34610  Biso   1.000  H
  H213     1.0000 0.77287  0.13051  0.40780  Biso   1.000  H
  H214     1.0000 0.71051  0.24318  0.44338  Biso   1.000  H
  H215     1.0000 0.68510  0.18698  0.43661  Biso   1.000  H
  H216     1.0000 0.74037  0.19288  0.46421  Biso   1.000  H
  H217     1.0000 0.25718  0.49389  0.20009  Biso   1.000  H
  N23      1.0000 0.21871  0.45328  0.25521  Biso   1.000  N
  C177     1.0000 0.48788  0.17481  0.19752  Biso   1.000  C
  H218     1.0000 0.42540  0.11779  0.20269  Biso   1.000  H
  C178     1.0000 0.38820  0.19071  0.19822  Biso   1.000  C
  C179     1.0000 0.44909  0.23108  0.26280  Biso   1.000  C
  H219     1.0000 0.48718  0.16480  0.27638  Biso   1.000  H
  C180     1.0000 0.24660  0.42028  0.25439  Biso   1.000  C
  H220     1.0000 0.49610  0.20351  0.17319  Biso   1.000  H
  H221     1.0000 0.51468  0.14769  0.19312  Biso   1.000  H
  C181     1.0000 0.39561  0.21239  0.25260  Biso   1.000  C
  H222     1.0000 0.35368  0.17380  0.19612  Biso   1.000  H
  H223     1.0000 0.38851  0.21968  0.17291  Biso   1.000  H
  H224     1.0000 0.45150  0.24128  0.29989  Biso   1.000  H
  H225     1.0000 0.45499  0.26269  0.24170  Biso   1.000  H
  C182     1.0000 0.24671  0.37218  0.28378  Biso   1.000  C
  H226     1.0000 0.27468  0.42419  0.23080  Biso   1.000  H
  H227     1.0000 0.38789  0.18400  0.27798  Biso   1.000  H
  N24      1.0000 0.35849  0.25315  0.26089  Biso   1.000  N
  C183     1.0000 0.28418  0.33460  0.27420  Biso   1.000  C
  C184     1.0000 0.20773  0.36287  0.31998  Biso   1.000  C
  C185     1.0000 0.32238  0.24660  0.29079  Biso   1.000  C
  C186     1.0000 0.28267  0.28771  0.30091  Biso   1.000  C
  O12      1.0000 0.32312  0.34616  0.24069  Biso   1.000  O
  H228     1.0000 0.18210  0.38859  0.32648  Biso   1.000  H
  C187     1.0000 0.20622  0.31598  0.34665  Biso   1.000  C
  H229     1.0000 0.31928  0.21429  0.30838  Biso   1.000  H
  C188     1.0000 0.24369  0.27840  0.33707  Biso   1.000  C
  H230     1.0000 0.34391  0.32099  0.24049  Biso   1.000  H
  C189     1.0000 0.16018  0.30559  0.38880  Biso   1.000  C
  H231     1.0000 0.24268  0.24629  0.35529  Biso   1.000  H
  C190     1.0000 0.11271  0.32549  0.36541  Biso   1.000  C
  C191     1.0000 0.18268  0.34011  0.43801  Biso   1.000  C
  C192     1.0000 0.16181  0.24939  0.40340  Biso   1.000  C
  H232     1.0000 0.11740  0.36210  0.35630  Biso   1.000  H
  H233     1.0000 0.10468  0.30559  0.33388  Biso   1.000  H
  H234     1.0000 0.08409  0.32219  0.39021  Biso   1.000  H
  H235     1.0000 0.21541  0.32498  0.45011  Biso   1.000  H
  H236     1.0000 0.18861  0.37579  0.42660  Biso   1.000  H
  H237     1.0000 0.15739  0.33980  0.46650  Biso   1.000  H
  H238     1.0000 0.19629  0.24078  0.41691  Biso   1.000  H
  H239     1.0000 0.13571  0.24249  0.43030  Biso   1.000  H
  H240     1.0000 0.15448  0.22810  0.37269  Biso   1.000  H
  C193     1.0000 0.78769  0.78265  0.80089  Biso   1.000  C
  C194     1.0000 0.74658  0.82240  0.79081  Biso   1.000  C
  C195     1.0000 0.83458  0.78420  0.77422  Biso   1.000  C
  C196     1.0000 0.77838  0.74371  0.83705  Biso   1.000  C
  N25      1.0000 0.75317  0.85847  0.76091  Biso   1.000  N
  H241     1.0000 0.71431  0.81930  0.80840  Biso   1.000  H
  C197     1.0000 0.87216  0.74669  0.78376  Biso   1.000  C
  O13      1.0000 0.84614  0.82310  0.74071  Biso   1.000  O
  C198     1.0000 0.81600  0.70620  0.84663  Biso   1.000  C
  H242     1.0000 0.74631  0.74270  0.85531  Biso   1.000  H
  C199     1.0000 0.71241  0.89559  0.75258  Biso   1.000  C
  C200     1.0000 0.92030  0.74658  0.75441  Biso   1.000  C
  C201     1.0000 0.86286  0.70771  0.82000  Biso   1.000  C
  H243     1.0000 0.82101  0.84389  0.74051  Biso   1.000  H
  C202     1.0000 0.80557  0.66020  0.88879  Biso   1.000  C
  C203     1.0000 0.69069  0.88818  0.69820  Biso   1.000  C
  C204     1.0000 0.73110  0.94907  0.76278  Biso   1.000  C
  H244     1.0000 0.68398  0.88787  0.77800  Biso   1.000  H
  N26      1.0000 0.95330  0.71869  0.75519  Biso   1.000  N
  H245     1.0000 0.92417  0.77470  0.73078  Biso   1.000  H
  H246     1.0000 0.88857  0.68208  0.82650  Biso   1.000  H
  C205     1.0000 0.82551  0.61269  0.86539  Biso   1.000  C
  C206     1.0000 0.84009  0.68270  0.93799  Biso   1.000  C
  C207     1.0000 0.74937  0.66179  0.90338  Biso   1.000  C
  C208     1.0000 0.65039  0.93077  0.68228  Biso   1.000  C
  H247     1.0000 0.67378  0.85370  0.69610  Biso   1.000  H
  H248     1.0000 0.71970  0.88849  0.67290  Biso   1.000  H
  C209     1.0000 0.69468  0.99007  0.75180  Biso   1.000  C
  H249     1.0000 0.74130  0.95148  0.79988  Biso   1.000  H
  H250     1.0000 0.76267  0.95497  0.74168  Biso   1.000  H
  C210     1.0000 0.99957  0.72749  0.72440  Biso   1.000  C
  H251     1.0000 0.86208  0.61738  0.85628  Biso   1.000  H
  H252     1.0000 0.80557  0.60470  0.83390  Biso   1.000  H
  H253     1.0000 0.82217  0.58411  0.89019  Biso   1.000  H
  H254     1.0000 0.82500  0.71539  0.95010  Biso   1.000  H
  H255     1.0000 0.87577  0.68859  0.92658  Biso   1.000  H
  H256     1.0000 0.83978  0.65737  0.96648  Biso   1.000  H
  H257     1.0000 0.74080  0.69627  0.91689  Biso   1.000  H
  H258     1.0000 0.74250  0.63569  0.93028  Biso   1.000  H
  H259     1.0000 0.72808  0.65450  0.87271  Biso   1.000  H
  N27      1.0000 0.63771  0.93108  0.62778  Biso   1.000  N
  C211     1.0000 0.67479  0.98790  0.69750  Biso   1.000  C
  H260     1.0000 0.61777  0.92538  0.70271  Biso   1.000  H
  H261     1.0000 0.66478  0.98720  0.77640  Biso   1.000  H
  N28      1.0000 0.71640  0.04259  0.75558  Biso   1.000  N
  C212     1.0000 0.00939  0.67389  0.69080  Biso   1.000  C
  C213     1.0000 0.04910  0.73618  0.75589  Biso   1.000  C
  H262     1.0000 0.99387  0.75720  0.70011  Biso   1.000  H
  C214     1.0000 0.59159  0.92138  0.61470  Biso   1.000  C
  H263     1.0000 0.70349  0.99608  0.67321  Biso   1.000  H
  H264     1.0000 0.64767  0.01470  0.69310  Biso   1.000  H
  C215     1.0000 0.69499  0.07788  0.79201  Biso   1.000  C
  C216     1.0000 0.05779  0.69088  0.65370  Biso   1.000  C
  H265     1.0000 0.97847  0.66439  0.66998  Biso   1.000  H
  H266     1.0000 0.01889  0.64457  0.71381  Biso   1.000  H
  C217     1.0000 0.09440  0.74739  0.71988  Biso   1.000  C
  H267     1.0000 0.04398  0.76570  0.77998  Biso   1.000  H
  H268     1.0000 0.05670  0.70488  0.77699  Biso   1.000  H
  C218     1.0000 0.58209  0.91948  0.55689  Biso   1.000  C
  H269     1.0000 0.56479  0.91568  0.63938  Biso   1.000  H
  C219     1.0000 0.72218  0.12450  0.79801  Biso   1.000  C
  H270     1.0000 0.66427  0.07051  0.81101  Biso   1.000  H
  N29      1.0000 0.06392  0.64539  0.61750  Biso   1.000  N
  C220     1.0000 0.10321  0.69988  0.68500  Biso   1.000  C
  H271     1.0000 0.04879  0.72280  0.63350  Biso   1.000  H
  H272     1.0000 0.08711  0.77877  0.69820  Biso   1.000  H
  N30      1.0000 0.14339  0.75530  0.75180  Biso   1.000  N
  C221     1.0000 0.62107  0.92840  0.52061  Biso   1.000  C
  C222     1.0000 0.53120  0.91269  0.54050  Biso   1.000  C
  C223     1.0000 0.76527  0.13920  0.76901  Biso   1.000  C
  C224     1.0000 0.70166  0.15809  0.83491  Biso   1.000  C
  C225     1.0000 0.06419  0.65299  0.56709  Biso   1.000  C
  H273     1.0000 0.13362  0.70578  0.66219  Biso   1.000  H
  H274     1.0000 0.11031  0.66908  0.70680  Biso   1.000  H
  C226     1.0000 0.16759  0.79727  0.74561  Biso   1.000  C
  C227     1.0000 0.60908  0.93030  0.46790  Biso   1.000  C
  O14      1.0000 0.67323  0.93624  0.53381  Biso   1.000  O
  C228     1.0000 0.51922  0.91459  0.48780  Biso   1.000  C
  H275     1.0000 0.50460  0.90661  0.56538  Biso   1.000  H
  C229     1.0000 0.78777  0.18760  0.77691  Biso   1.000  C
  O15      1.0000 0.78622  0.10953  0.73082  Biso   1.000  O
  H276     1.0000 0.67230  0.14808  0.85480  Biso   1.000  H
  C230     1.0000 0.72420  0.20649  0.84281  Biso   1.000  C
  C231     1.0000 0.06970  0.60908  0.53210  Biso   1.000  C
  H277     1.0000 0.06082  0.68708  0.55351  Biso   1.000  H
  H278     1.0000 0.15611  0.82027  0.71910  Biso   1.000  H
  C232     1.0000 0.21223  0.81240  0.77691  Biso   1.000  C
  C233     1.0000 0.65299  0.93577  0.43291  Biso   1.000  C
  C234     1.0000 0.55820  0.92340  0.45148  Biso   1.000  C
  H279     1.0000 0.67529  0.95280  0.56180  Biso   1.000  H
  C235     1.0000 0.46379  0.90808  0.46670  Biso   1.000  C
  C236     1.0000 0.83237  0.20269  0.74561  Biso   1.000  C
  C237     1.0000 0.76717  0.22119  0.81381  Biso   1.000  C
  H280     1.0000 0.76787  0.08269  0.72879  Biso   1.000  H
  C238     1.0000 0.70100  0.24291  0.88711  Biso   1.000  C
  C239     1.0000 0.07160  0.62107  0.47939  Biso   1.000  C
  C240     1.0000 0.07660  0.55820  0.54848  Biso   1.000  C
  C241     1.0000 0.23469  0.86076  0.76901  Biso   1.000  C
  C242     1.0000 0.23279  0.77877  0.81381  Biso   1.000  C
  N31      1.0000 0.64539  0.93608  0.38250  Biso   1.000  N
  H281     1.0000 0.68708  0.93918  0.44649  Biso   1.000  H
  H282     1.0000 0.54997  0.92480  0.41551  Biso   1.000  H
  C243     1.0000 0.44529  0.91909  0.41461  Biso   1.000  C
  C244     1.0000 0.45099  0.84529  0.48149  Biso   1.000  C
  C245     1.0000 0.42330  0.93430  0.50971  Biso   1.000  C
  H283     1.0000 0.84389  0.17969  0.71910  Biso   1.000  H
  N32      1.0000 0.85657  0.24470  0.75180  Biso   1.000  N
  H284     1.0000 0.78257  0.25431  0.81918  Biso   1.000  H
  C246     1.0000 0.73820  0.29279  0.88781  Biso   1.000  C
  C247     1.0000 0.64411  0.25191  0.87909  Biso   1.000  C
  C248     1.0000 0.70647  0.21770  0.93678  Biso   1.000  C
  C249     1.0000 0.08048  0.58209  0.44311  Biso   1.000  C
  O16      1.0000 0.06376  0.67323  0.46619  Biso   1.000  O
  C250     1.0000 0.08541  0.51922  0.51220  Biso   1.000  C
  H285     1.0000 0.07520  0.54997  0.58449  Biso   1.000  H
  C251     1.0000 0.27778  0.87550  0.79801  Biso   1.000  C
  O17      1.0000 0.21378  0.89043  0.73082  Biso   1.000  O
  C252     1.0000 0.27580  0.79351  0.84281  Biso   1.000  C
  H286     1.0000 0.21739  0.74569  0.81918  Biso   1.000  H
  C253     1.0000 0.69088  0.94217  0.34630  Biso   1.000  C
  H287     1.0000 0.40810  0.91169  0.41259  Biso   1.000  H
  H288     1.0000 0.45138  0.95567  0.40648  Biso   1.000  H
  H289     1.0000 0.46391  0.89730  0.38958  Biso   1.000  H
  H290     1.0000 0.41589  0.83648  0.47001  Biso   1.000  H
  H291     1.0000 0.47609  0.82279  0.46378  Biso   1.000  H
  H292     1.0000 0.45371  0.84028  0.51921  Biso   1.000  H
  H293     1.0000 0.38758  0.93119  0.49691  Biso   1.000  H
  H294     1.0000 0.42648  0.91619  0.54300  Biso   1.000  H
  H295     1.0000 0.43191  0.97107  0.51450  Biso   1.000  H
  C254     1.0000 0.90560  0.25261  0.71988  Biso   1.000  C
  H296     1.0000 0.77388  0.28189  0.89478  Biso   1.000  H
  H297     1.0000 0.72668  0.31680  0.91510  Biso   1.000  H
  H298     1.0000 0.73657  0.31028  0.85391  Biso   1.000  H
  H299     1.0000 0.62599  0.21840  0.87820  Biso   1.000  H
  H300     1.0000 0.63860  0.27010  0.84608  Biso   1.000  H
  H301     1.0000 0.63049  0.27289  0.90778  Biso   1.000  H
  H302     1.0000 0.74320  0.21049  0.94340  Biso   1.000  H
  H303     1.0000 0.68700  0.18508  0.93659  Biso   1.000  H
  H304     1.0000 0.69290  0.24039  0.96419  Biso   1.000  H
  C255     1.0000 0.07862  0.59159  0.38530  Biso   1.000  C
  C256     1.0000 0.08731  0.53120  0.45950  Biso   1.000  C
  H305     1.0000 0.04720  0.67529  0.43820  Biso   1.000  H
  C257     1.0000 0.09188  0.46379  0.53330  Biso   1.000  C
  C258     1.0000 0.29830  0.84187  0.83491  Biso   1.000  C
  C259     1.0000 0.30501  0.92208  0.79201  Biso   1.000  C
  H306     1.0000 0.23209  0.91727  0.72879  Biso   1.000  H
  C260     1.0000 0.29900  0.75709  0.88711  Biso   1.000  C
  C261     1.0000 0.69988  0.89679  0.31500  Biso   1.000  C
  C262     1.0000 0.67389  0.99058  0.30920  Biso   1.000  C
  H307     1.0000 0.72280  0.95117  0.36650  Biso   1.000  H
  C263     1.0000 0.89679  0.30008  0.68500  Biso   1.000  C
  C264     1.0000 0.95090  0.26378  0.75589  Biso   1.000  C
  H308     1.0000 0.91289  0.22119  0.69820  Biso   1.000  H
  N33      1.0000 0.06888  0.63771  0.37218  Biso   1.000  N
  H309     1.0000 0.08428  0.56479  0.36058  Biso   1.000  H
  H310     1.0000 0.09339  0.50460  0.43458  Biso   1.000  H
  C265     1.0000 0.08091  0.44529  0.58539  Biso   1.000  C
  C266     1.0000 0.15471  0.45099  0.51851  Biso   1.000  C
  C267     1.0000 0.06570  0.42330  0.49029  Biso   1.000  C
  H311     1.0000 0.32770  0.85188  0.85480  Biso   1.000  H
  H312     1.0000 0.33569  0.92949  0.81101  Biso   1.000  H
  N34      1.0000 0.28360  0.95738  0.75558  Biso   1.000  N
  C268     1.0000 0.26180  0.70717  0.88781  Biso   1.000  C
  C269     1.0000 0.35589  0.74809  0.87909  Biso   1.000  C
  C270     1.0000 0.29349  0.78230  0.93678  Biso   1.000  C
  C271     1.0000 0.74739  0.90560  0.28008  Biso   1.000  C
  H313     1.0000 0.70578  0.86638  0.33781  Biso   1.000  H
  H314     1.0000 0.66908  0.88969  0.29320  Biso   1.000  H
  C272     1.0000 0.72749  0.00039  0.27560  Biso   1.000  C
  H315     1.0000 0.64457  0.98107  0.28619  Biso   1.000  H
  H316     1.0000 0.66439  0.02149  0.32999  Biso   1.000  H
  C273     1.0000 0.94217  0.30908  0.65370  Biso   1.000  C
  H317     1.0000 0.86638  0.29419  0.66219  Biso   1.000  H
  H318     1.0000 0.88969  0.33088  0.70680  Biso   1.000  H
  C274     1.0000 0.00039  0.27251  0.72440  Biso   1.000  C
  H319     1.0000 0.95598  0.23430  0.77998  Biso   1.000  H
  H320     1.0000 0.94330  0.29508  0.77699  Biso   1.000  H
  C275     1.0000 0.06919  0.65039  0.31768  Biso   1.000  C
  H321     1.0000 0.08831  0.40810  0.58741  Biso   1.000  H
  H322     1.0000 0.04429  0.45138  0.59348  Biso   1.000  H
  H323     1.0000 0.10270  0.46391  0.61038  Biso   1.000  H
  H324     1.0000 0.16348  0.41589  0.52999  Biso   1.000  H
  H325     1.0000 0.17721  0.47609  0.53618  Biso   1.000  H
  H326     1.0000 0.15968  0.45371  0.48079  Biso   1.000  H
  H327     1.0000 0.06881  0.38758  0.50309  Biso   1.000  H
  H328     1.0000 0.08381  0.42648  0.45700  Biso   1.000  H
  H329     1.0000 0.02890  0.43191  0.48550  Biso   1.000  H
  C276     1.0000 0.30528  0.00989  0.75180  Biso   1.000  C
  H330     1.0000 0.22608  0.71807  0.89478  Biso   1.000  H
  H331     1.0000 0.27328  0.68320  0.91510  Biso   1.000  H
  H332     1.0000 0.26339  0.68968  0.85391  Biso   1.000  H
  H333     1.0000 0.37401  0.78160  0.87820  Biso   1.000  H
  H334     1.0000 0.36140  0.72990  0.84608  Biso   1.000  H
  H335     1.0000 0.36951  0.72711  0.90778  Biso   1.000  H
  H336     1.0000 0.25680  0.78947  0.94340  Biso   1.000  H
  H337     1.0000 0.31300  0.81488  0.93659  Biso   1.000  H
  H338     1.0000 0.30710  0.75957  0.96419  Biso   1.000  H
  N35      1.0000 0.75530  0.85657  0.24820  Biso   1.000  N
  C277     1.0000 0.73618  0.95090  0.24411  Biso   1.000  C
  H339     1.0000 0.77877  0.91289  0.30180  Biso   1.000  H
  H340     1.0000 0.75720  0.00609  0.29989  Biso   1.000  H
  N36      1.0000 0.71869  0.04670  0.24481  Biso   1.000  N
  N37      1.0000 0.93608  0.35461  0.61750  Biso   1.000  N
  H341     1.0000 0.95117  0.27720  0.63350  Biso   1.000  H
  C278     1.0000 0.99058  0.32611  0.69080  Biso   1.000  C
  H342     1.0000 0.00609  0.24280  0.70011  Biso   1.000  H
  N38      1.0000 0.04670  0.28131  0.75519  Biso   1.000  N
  C279     1.0000 0.01210  0.67479  0.30250  Biso   1.000  C
  C280     1.0000 0.11178  0.69069  0.30180  Biso   1.000  C
  H343     1.0000 0.07458  0.61777  0.29729  Biso   1.000  H
  C281     1.0000 0.32521  0.01210  0.69750  Biso   1.000  C
  C282     1.0000 0.26890  0.05089  0.76278  Biso   1.000  C
  H344     1.0000 0.33518  0.01280  0.77640  Biso   1.000  H
  C283     1.0000 0.79727  0.83237  0.25439  Biso   1.000  C
  H345     1.0000 0.76570  0.95598  0.22002  Biso   1.000  H
  H346     1.0000 0.70488  0.94330  0.22301  Biso   1.000  H
  C284     1.0000 0.74658  0.07970  0.24559  Biso   1.000  C
  C285     1.0000 0.93577  0.34701  0.56709  Biso   1.000  C
  H347     1.0000 0.98107  0.35539  0.71381  Biso   1.000  H
  H348     1.0000 0.02149  0.33561  0.66998  Biso   1.000  H
  C286     1.0000 0.07970  0.25338  0.75441  Biso   1.000  C
  C287     1.0000 0.00989  0.69468  0.24820  Biso   1.000  C
  H349     1.0000 0.98530  0.64767  0.30690  Biso   1.000  H
  H350     1.0000 0.00392  0.70349  0.32679  Biso   1.000  H
  C288     1.0000 0.10441  0.71241  0.24738  Biso   1.000  C
  H351     1.0000 0.14630  0.67378  0.30390  Biso   1.000  H
  H352     1.0000 0.11151  0.71970  0.32710  Biso   1.000  H
  C289     1.0000 0.34961  0.06919  0.68228  Biso   1.000  C
  H353     1.0000 0.35229  0.98530  0.69310  Biso   1.000  H
  H354     1.0000 0.29651  0.00392  0.67321  Biso   1.000  H
  C290     1.0000 0.28759  0.10441  0.75258  Biso   1.000  C
  H355     1.0000 0.25870  0.04848  0.79988  Biso   1.000  H
  H356     1.0000 0.23729  0.04499  0.74168  Biso   1.000  H
  C291     1.0000 0.81240  0.78777  0.22309  Biso   1.000  C
  H357     1.0000 0.82027  0.84389  0.28090  Biso   1.000  H
  C292     1.0000 0.74669  0.12784  0.21624  Biso   1.000  C
  H358     1.0000 0.77470  0.07579  0.26918  Biso   1.000  H
  C293     1.0000 0.93030  0.39088  0.53210  Biso   1.000  C
  H359     1.0000 0.93918  0.31288  0.55351  Biso   1.000  H
  C294     1.0000 0.12784  0.25331  0.78376  Biso   1.000  C
  H360     1.0000 0.07579  0.22530  0.73078  Biso   1.000  H
  N39      1.0000 0.95738  0.71640  0.24438  Biso   1.000  N
  C295     1.0000 0.05089  0.73110  0.23718  Biso   1.000  C
  H361     1.0000 0.01280  0.66478  0.22360  Biso   1.000  H
  H362     1.0000 0.11209  0.68398  0.22200  Biso   1.000  H
  N40      1.0000 0.14149  0.75317  0.23909  Biso   1.000  N
  N41      1.0000 0.36229  0.06888  0.62778  Biso   1.000  N
  H363     1.0000 0.38219  0.07458  0.70271  Biso   1.000  H
  C296     1.0000 0.30931  0.11178  0.69820  Biso   1.000  C
  H364     1.0000 0.31598  0.11209  0.77800  Biso   1.000  H
  N42      1.0000 0.24683  0.14149  0.76091  Biso   1.000  N
  C297     1.0000 0.77877  0.76717  0.18619  Biso   1.000  C
  C298     1.0000 0.86076  0.76527  0.23099  Biso   1.000  C
  C299     1.0000 0.78420  0.16538  0.22578  Biso   1.000  C
  C300     1.0000 0.70771  0.13714  0.18000  Biso   1.000  C
  C301     1.0000 0.92840  0.37893  0.47939  Biso   1.000  C
  C302     1.0000 0.92340  0.44180  0.54848  Biso   1.000  C
  C303     1.0000 0.16538  0.21580  0.77422  Biso   1.000  C
  C304     1.0000 0.13714  0.29229  0.82000  Biso   1.000  C
  C305     1.0000 0.92208  0.69499  0.20799  Biso   1.000  C
  H365     1.0000 0.04848  0.74130  0.20009  Biso   1.000  H
  H366     1.0000 0.04499  0.76267  0.25828  Biso   1.000  H
  C306     1.0000 0.17760  0.74658  0.20919  Biso   1.000  C
  C307     1.0000 0.40841  0.07862  0.61470  Biso   1.000  C
  H367     1.0000 0.32618  0.14630  0.69610  Biso   1.000  H
  H368     1.0000 0.28030  0.11151  0.67290  Biso   1.000  H
  C308     1.0000 0.25338  0.17760  0.79081  Biso   1.000  C
  C309     1.0000 0.79351  0.72420  0.15719  Biso   1.000  C
  H369     1.0000 0.74569  0.78257  0.18082  Biso   1.000  H
  C310     1.0000 0.87550  0.72218  0.20199  Biso   1.000  C
  O18      1.0000 0.89043  0.78622  0.26918  Biso   1.000  O
  C311     1.0000 0.78265  0.21227  0.19911  Biso   1.000  C
  O19      1.0000 0.82310  0.15386  0.25929  Biso   1.000  O
  H370     1.0000 0.68208  0.11139  0.17350  Biso   1.000  H
  C312     1.0000 0.70620  0.18400  0.15337  Biso   1.000  C
  C313     1.0000 0.91948  0.41791  0.44311  Biso   1.000  C
  O20      1.0000 0.93624  0.32673  0.46619  Biso   1.000  O
  C314     1.0000 0.91459  0.48074  0.51220  Biso   1.000  C
  H371     1.0000 0.92480  0.44999  0.58449  Biso   1.000  H
  C315     1.0000 0.21227  0.21735  0.80089  Biso   1.000  C
  O21      1.0000 0.15386  0.17686  0.74071  Biso   1.000  O
  C316     1.0000 0.18400  0.29376  0.84663  Biso   1.000  C
  H372     1.0000 0.11139  0.31788  0.82650  Biso   1.000  H
  H373     1.0000 0.92949  0.66427  0.18899  Biso   1.000  H
  H374     1.0000 0.18070  0.71431  0.19160  Biso   1.000  H
  C317     1.0000 0.21735  0.78769  0.19911  Biso   1.000  C
  C318     1.0000 0.41791  0.08048  0.55689  Biso   1.000  C
  H375     1.0000 0.43521  0.08428  0.63938  Biso   1.000  H
  H376     1.0000 0.28569  0.18070  0.80840  Biso   1.000  H
  C319     1.0000 0.75709  0.70100  0.11289  Biso   1.000  C
  C320     1.0000 0.84187  0.70166  0.16509  Biso   1.000  C
  H377     1.0000 0.91727  0.76787  0.27121  Biso   1.000  H
  C321     1.0000 0.82240  0.25338  0.20919  Biso   1.000  C
  C322     1.0000 0.74371  0.22158  0.16291  Biso   1.000  C
  H378     1.0000 0.84389  0.17899  0.25949  Biso   1.000  H
  C323     1.0000 0.66020  0.19439  0.11121  Biso   1.000  C
  C324     1.0000 0.92138  0.40841  0.38530  Biso   1.000  C
  C325     1.0000 0.91269  0.46880  0.45950  Biso   1.000  C
  H379     1.0000 0.95280  0.32471  0.43820  Biso   1.000  H
  C326     1.0000 0.90808  0.53621  0.53330  Biso   1.000  C
  C327     1.0000 0.22158  0.25629  0.83705  Biso   1.000  C
  H380     1.0000 0.17899  0.15611  0.74051  Biso   1.000  H
  C328     1.0000 0.19439  0.33980  0.88879  Biso   1.000  C
  C329     1.0000 0.21580  0.83458  0.22578  Biso   1.000  C
  C330     1.0000 0.25629  0.77838  0.16291  Biso   1.000  C
  C331     1.0000 0.37893  0.07160  0.52061  Biso   1.000  C
  C332     1.0000 0.46880  0.08731  0.54050  Biso   1.000  C
  C333     1.0000 0.74809  0.64411  0.12091  Biso   1.000  C
  C334     1.0000 0.70717  0.73820  0.11219  Biso   1.000  C
  C335     1.0000 0.78230  0.70647  0.06322  Biso   1.000  C
  H381     1.0000 0.85188  0.67230  0.14520  Biso   1.000  H
  H382     1.0000 0.81930  0.28569  0.19160  Biso   1.000  H
  N43      1.0000 0.85847  0.24683  0.23909  Biso   1.000  N
  H383     1.0000 0.74270  0.25369  0.14469  Biso   1.000  H
  C336     1.0000 0.61269  0.17449  0.13461  Biso   1.000  C
  C337     1.0000 0.68270  0.15991  0.06201  Biso   1.000  C
  C338     1.0000 0.66179  0.25059  0.09662  Biso   1.000  C
  N44      1.0000 0.93108  0.36229  0.37218  Biso   1.000  N
  H384     1.0000 0.91568  0.43521  0.36058  Biso   1.000  H
  H385     1.0000 0.90661  0.49540  0.43458  Biso   1.000  H
  C339     1.0000 0.91909  0.55471  0.58539  Biso   1.000  C
  C340     1.0000 0.84529  0.54901  0.51851  Biso   1.000  C
  C341     1.0000 0.93430  0.57670  0.49029  Biso   1.000  C
  H386     1.0000 0.25369  0.25730  0.85531  Biso   1.000  H
  C342     1.0000 0.17449  0.38731  0.86539  Biso   1.000  C
  C343     1.0000 0.15991  0.31730  0.93799  Biso   1.000  C
  C344     1.0000 0.25059  0.33821  0.90338  Biso   1.000  C
  C345     1.0000 0.25331  0.87216  0.21624  Biso   1.000  C
  O22      1.0000 0.17686  0.84614  0.25929  Biso   1.000  O
  C346     1.0000 0.29376  0.81600  0.15337  Biso   1.000  C
  H387     1.0000 0.25730  0.74631  0.14469  Biso   1.000  H
  C347     1.0000 0.39088  0.06970  0.46790  Biso   1.000  C
  O23      1.0000 0.32673  0.06376  0.53381  Biso   1.000  O
  C348     1.0000 0.48074  0.08541  0.48780  Biso   1.000  C
  H388     1.0000 0.49540  0.09339  0.56538  Biso   1.000  H
  H389     1.0000 0.78160  0.62599  0.12180  Biso   1.000  H
  H390     1.0000 0.72990  0.63860  0.15392  Biso   1.000  H
  H391     1.0000 0.72711  0.63049  0.09222  Biso   1.000  H
  H392     1.0000 0.71807  0.77388  0.10518  Biso   1.000  H
  H393     1.0000 0.68320  0.72668  0.08490  Biso   1.000  H
  H394     1.0000 0.68968  0.73657  0.14609  Biso   1.000  H
  H395     1.0000 0.78947  0.74320  0.05660  Biso   1.000  H
  H396     1.0000 0.81488  0.68700  0.06341  Biso   1.000  H
  H397     1.0000 0.75957  0.69290  0.03581  Biso   1.000  H
  C349     1.0000 0.89559  0.28759  0.24738  Biso   1.000  C
  H398     1.0000 0.61738  0.13788  0.14368  Biso   1.000  H
  H399     1.0000 0.60470  0.19439  0.16610  Biso   1.000  H
  H400     1.0000 0.58411  0.17779  0.10981  Biso   1.000  H
  H401     1.0000 0.71539  0.17500  0.04990  Biso   1.000  H
  H402     1.0000 0.68859  0.12419  0.07342  Biso   1.000  H
  H403     1.0000 0.65737  0.16018  0.03352  Biso   1.000  H
  H404     1.0000 0.69627  0.25920  0.08311  Biso   1.000  H
  H405     1.0000 0.63569  0.25750  0.06972  Biso   1.000  H
  H406     1.0000 0.65450  0.27188  0.12729  Biso   1.000  H
  C350     1.0000 0.93077  0.34961  0.31768  Biso   1.000  C
  H407     1.0000 0.91169  0.59190  0.58741  Biso   1.000  H
  H408     1.0000 0.95567  0.54858  0.59348  Biso   1.000  H
  H409     1.0000 0.89730  0.53609  0.61038  Biso   1.000  H
  H410     1.0000 0.83648  0.58411  0.52999  Biso   1.000  H
  H411     1.0000 0.82279  0.52391  0.53618  Biso   1.000  H
  H412     1.0000 0.84028  0.54629  0.48079  Biso   1.000  H
  H413     1.0000 0.93119  0.61238  0.50309  Biso   1.000  H
  H414     1.0000 0.91619  0.57348  0.45700  Biso   1.000  H
  H415     1.0000 0.97107  0.56809  0.48550  Biso   1.000  H
  H416     1.0000 0.13788  0.38258  0.85628  Biso   1.000  H
  H417     1.0000 0.19439  0.39530  0.83390  Biso   1.000  H
  H418     1.0000 0.17779  0.41589  0.89019  Biso   1.000  H
  H419     1.0000 0.17500  0.28461  0.95010  Biso   1.000  H
  H420     1.0000 0.12419  0.31141  0.92658  Biso   1.000  H
  H421     1.0000 0.16018  0.34259  0.96648  Biso   1.000  H
  H422     1.0000 0.25920  0.30369  0.91689  Biso   1.000  H
  H423     1.0000 0.25750  0.36431  0.93028  Biso   1.000  H
  H424     1.0000 0.27188  0.34550  0.87271  Biso   1.000  H
  C351     1.0000 0.29229  0.86286  0.18000  Biso   1.000  C
  C352     1.0000 0.25338  0.92030  0.24559  Biso   1.000  C
  H425     1.0000 0.15611  0.82101  0.25949  Biso   1.000  H
  C353     1.0000 0.33980  0.80557  0.11121  Biso   1.000  C
  C354     1.0000 0.34701  0.06419  0.43291  Biso   1.000  C
  C355     1.0000 0.44180  0.07660  0.45148  Biso   1.000  C
  H426     1.0000 0.32471  0.04720  0.56180  Biso   1.000  H
  C356     1.0000 0.53621  0.09188  0.46670  Biso   1.000  C
  H427     1.0000 0.88787  0.31598  0.22200  Biso   1.000  H
  C357     1.0000 0.94907  0.26890  0.23718  Biso   1.000  C
  C358     1.0000 0.88818  0.30931  0.30180  Biso   1.000  C
  C359     1.0000 0.98790  0.32521  0.30250  Biso   1.000  C
  H428     1.0000 0.92538  0.38219  0.29729  Biso   1.000  H
  H429     1.0000 0.31788  0.88857  0.17350  Biso   1.000  H
  H430     1.0000 0.22530  0.92417  0.26918  Biso   1.000  H
  N45      1.0000 0.28131  0.95330  0.24481  Biso   1.000  N
  C360     1.0000 0.38731  0.82551  0.13461  Biso   1.000  C
  C361     1.0000 0.31730  0.84009  0.06201  Biso   1.000  C
  C362     1.0000 0.33821  0.74937  0.09662  Biso   1.000  C
  N46      1.0000 0.35461  0.06392  0.38250  Biso   1.000  N
  H431     1.0000 0.31288  0.06082  0.44649  Biso   1.000  H
  H432     1.0000 0.44999  0.07520  0.41551  Biso   1.000  H
  C363     1.0000 0.55471  0.08091  0.41461  Biso   1.000  C
  C364     1.0000 0.54901  0.15471  0.48149  Biso   1.000  C
  C365     1.0000 0.57670  0.06570  0.50971  Biso   1.000  C
  H433     1.0000 0.95148  0.25870  0.20009  Biso   1.000  H
  H434     1.0000 0.95497  0.23729  0.25828  Biso   1.000  H
  C366     1.0000 0.99007  0.30528  0.24820  Biso   1.000  C
  H435     1.0000 0.85370  0.32618  0.30390  Biso   1.000  H
  H436     1.0000 0.88849  0.28030  0.32710  Biso   1.000  H
  H437     1.0000 0.99608  0.29651  0.32679  Biso   1.000  H
  H438     1.0000 0.01470  0.35229  0.30690  Biso   1.000  H
  C367     1.0000 0.27251  0.99957  0.27560  Biso   1.000  C
  H439     1.0000 0.38258  0.86208  0.14368  Biso   1.000  H
  H440     1.0000 0.39530  0.80557  0.16610  Biso   1.000  H
  H441     1.0000 0.41589  0.82217  0.10981  Biso   1.000  H
  H442     1.0000 0.28461  0.82500  0.04990  Biso   1.000  H
  H443     1.0000 0.31141  0.87577  0.07342  Biso   1.000  H
  H444     1.0000 0.34259  0.83978  0.03352  Biso   1.000  H
  H445     1.0000 0.30369  0.74080  0.08311  Biso   1.000  H
  H446     1.0000 0.36431  0.74250  0.06972  Biso   1.000  H
  H447     1.0000 0.34550  0.72808  0.12729  Biso   1.000  H
  C368     1.0000 0.30908  0.05779  0.34630  Biso   1.000  C
  H448     1.0000 0.59190  0.08831  0.41259  Biso   1.000  H
  H449     1.0000 0.54858  0.04429  0.40648  Biso   1.000  H
  H450     1.0000 0.53609  0.10270  0.38958  Biso   1.000  H
  H451     1.0000 0.58411  0.16348  0.47001  Biso   1.000  H
  H452     1.0000 0.52391  0.17721  0.46378  Biso   1.000  H
  H453     1.0000 0.54629  0.15968  0.51921  Biso   1.000  H
  H454     1.0000 0.61238  0.06881  0.49691  Biso   1.000  H
  H455     1.0000 0.57348  0.08381  0.54300  Biso   1.000  H
  H456     1.0000 0.56809  0.02890  0.51450  Biso   1.000  H
  H457     1.0000 0.98720  0.33518  0.22360  Biso   1.000  H
  N47      1.0000 0.04259  0.28360  0.24438  Biso   1.000  N
  H458     1.0000 0.24280  0.99387  0.29989  Biso   1.000  H
  C369     1.0000 0.26378  0.04910  0.24411  Biso   1.000  C
  C370     1.0000 0.32611  0.00939  0.30920  Biso   1.000  C
  C371     1.0000 0.30008  0.10321  0.31500  Biso   1.000  C
  H459     1.0000 0.27720  0.04879  0.36650  Biso   1.000  H
  C372     1.0000 0.07788  0.30501  0.20799  Biso   1.000  C
  H460     1.0000 0.23430  0.04398  0.22002  Biso   1.000  H
  H461     1.0000 0.29508  0.05670  0.22301  Biso   1.000  H
  C373     1.0000 0.25261  0.09440  0.28008  Biso   1.000  C
  H462     1.0000 0.33561  0.97847  0.32999  Biso   1.000  H
  H463     1.0000 0.35539  0.01889  0.28619  Biso   1.000  H
  H464     1.0000 0.29419  0.13362  0.33781  Biso   1.000  H
  H465     1.0000 0.33088  0.11031  0.29320  Biso   1.000  H
  C374     1.0000 0.12450  0.27778  0.20199  Biso   1.000  C
  H466     1.0000 0.07051  0.33569  0.18899  Biso   1.000  H
  H467     1.0000 0.22119  0.08711  0.30180  Biso   1.000  H
  N48      1.0000 0.24470  0.14339  0.24820  Biso   1.000  N
  C375     1.0000 0.13920  0.23469  0.23099  Biso   1.000  C
  C376     1.0000 0.15809  0.29830  0.16509  Biso   1.000  C
  C377     1.0000 0.20269  0.16759  0.25439  Biso   1.000  C
  C378     1.0000 0.18760  0.21223  0.22309  Biso   1.000  C
  O24      1.0000 0.10953  0.21378  0.26918  Biso   1.000  O
  C379     1.0000 0.20649  0.27580  0.15719  Biso   1.000  C
  H468     1.0000 0.14808  0.32770  0.14520  Biso   1.000  H
  H469     1.0000 0.17969  0.15611  0.28090  Biso   1.000  H
  C380     1.0000 0.22119  0.23279  0.18619  Biso   1.000  C
  H470     1.0000 0.08269  0.23209  0.27121  Biso   1.000  H
  C381     1.0000 0.24291  0.29900  0.11289  Biso   1.000  C
  H471     1.0000 0.25431  0.21739  0.18082  Biso   1.000  H
  C382     1.0000 0.29279  0.26180  0.11219  Biso   1.000  C
  C383     1.0000 0.25191  0.35589  0.12091  Biso   1.000  C
  C384     1.0000 0.21770  0.29349  0.06322  Biso   1.000  C
  H472     1.0000 0.28189  0.22608  0.10518  Biso   1.000  H
  H473     1.0000 0.31680  0.27328  0.08490  Biso   1.000  H
  H474     1.0000 0.31028  0.26339  0.14609  Biso   1.000  H
  H475     1.0000 0.21840  0.37401  0.12180  Biso   1.000  H
  H476     1.0000 0.27010  0.36140  0.15392  Biso   1.000  H
  H477     1.0000 0.27289  0.36951  0.09222  Biso   1.000  H
  H478     1.0000 0.21049  0.25680  0.05660  Biso   1.000  H
  H479     1.0000 0.18508  0.31300  0.06341  Biso   1.000  H
  H480     1.0000 0.24039  0.30710  0.03581  Biso   1.000  H
