data_image0
_cell_length_a       19.236
_cell_length_b       19.236
_cell_length_c       19.236
_cell_angle_alpha    90
_cell_angle_beta     90
_cell_angle_gamma    90

_symmetry_space_group_name_H-M    "P 1"
_symmetry_int_tables_number       1

loop_
  _symmetry_equiv_pos_as_xyz
  'x, y, z'

loop_
  _atom_site_label
  _atom_site_occupancy
  _atom_site_fract_x
  _atom_site_fract_y
  _atom_site_fract_z
  _atom_site_thermal_displace_type
  _atom_site_B_iso_or_equiv
  _atom_site_type_symbol
  C1       1.0000 0.45363  0.24199  0.20800  Biso   1.000  C
  C2       1.0000 0.50010  0.21361  0.15008  Biso   1.000  C
  H1       1.0000 0.46288  0.29190  0.21429  Biso   1.000  H
  H2       1.0000 0.46340  0.21751  0.25151  Biso   1.000  H
  H3       1.0000 0.40471  0.23560  0.19531  Biso   1.000  H
  H4       1.0000 0.40591  0.24558  0.16370  Biso   1.000  H
  C3       1.0000 0.48279  0.13792  0.12841  Biso   1.000  C
  H5       1.0000 0.50551  0.24610  0.10990  Biso   1.000  H
  C4       1.0000 0.56883  0.20342  0.19318  Biso   1.000  C
  C5       1.0000 0.45378  0.25691  0.17701  Biso   1.000  C
  C6       1.0000 0.48903  0.14540  0.11780  Biso   1.000  C
  C7       1.0000 0.57548  0.23040  0.16261  Biso   1.000  C
  C8       1.0000 0.41823  0.12768  0.08401  Biso   1.000  C
  H6       1.0000 0.52319  0.11910  0.10262  Biso   1.000  H
  H7       1.0000 0.47749  0.10979  0.17119  Biso   1.000  H
  C9       1.0000 0.50411  0.22510  0.12419  Biso   1.000  C
  H8       1.0000 0.52651  0.12378  0.08988  Biso   1.000  H
  H9       1.0000 0.49059  0.12451  0.16480  Biso   1.000  H
  H10      1.0000 0.58422  0.24839  0.21143  Biso   1.000  H
  H11      1.0000 0.60491  0.18393  0.16308  Biso   1.000  H
  H12      1.0000 0.55989  0.17150  0.23191  Biso   1.000  H
  H13      1.0000 0.60901  0.19921  0.14041  Biso   1.000  H
  H14      1.0000 0.45971  0.30739  0.17790  Biso   1.000  H
  H15      1.0000 0.46351  0.23789  0.22328  Biso   1.000  H
  H16      1.0000 0.59259  0.27828  0.16001  Biso   1.000  H
  H17      1.0000 0.56951  0.21709  0.21143  Biso   1.000  H
  C10      1.0000 0.41188  0.05329  0.06051  Biso   1.000  C
  H18      1.0000 0.37648  0.14073  0.11109  Biso   1.000  H
  H19      1.0000 0.42072  0.15840  0.04278  Biso   1.000  H
  H20      1.0000 0.38069  0.13761  0.11780  Biso   1.000  H
  H21      1.0000 0.41110  0.15850  0.04330  Biso   1.000  H
  H22      1.0000 0.50379  0.24969  0.07839  Biso   1.000  H
  C11      1.0000 0.34929  0.03800  0.01440  Biso   1.000  C
  H23      1.0000 0.40918  0.02319  0.10220  Biso   1.000  H
  H24      1.0000 0.45462  0.04050  0.03488  Biso   1.000  H
  N1       1.0000 0.28649  0.04642  0.05729  Biso   1.000  N
  C12      1.0000 0.34929  0.96200  0.98560  Biso   1.000  C
  H25      1.0000 0.34810  0.07158  0.97479  Biso   1.000  H
  C13      1.0000 0.24652  0.09461  0.04299  Biso   1.000  C
  N2       1.0000 0.28649  0.95363  0.94271  Biso   1.000  N
  C14      1.0000 0.41188  0.94671  0.93949  Biso   1.000  C
  H26      1.0000 0.34810  0.92842  0.02521  Biso   1.000  H
  C15      1.0000 0.18398  0.11042  0.08588  Biso   1.000  C
  H27      1.0000 0.25593  0.12243  0.00338  Biso   1.000  H
  C16      1.0000 0.24652  0.90539  0.95701  Biso   1.000  C
  H28      1.0000 0.40918  0.97681  0.89780  Biso   1.000  H
  H29      1.0000 0.45462  0.95950  0.96512  Biso   1.000  H
  C17      1.0000 0.41823  0.87232  0.91599  Biso   1.000  C
  C18      1.0000 0.14301  0.16708  0.06940  Biso   1.000  C
  C19      1.0000 0.16708  0.06940  0.14301  Biso   1.000  C
  C20      1.0000 0.18398  0.88963  0.91412  Biso   1.000  C
  H30      1.0000 0.25593  0.87763  0.99662  Biso   1.000  H
  H31      1.0000 0.37648  0.85933  0.88891  Biso   1.000  H
  H32      1.0000 0.42072  0.84160  0.95722  Biso   1.000  H
  C21      1.0000 0.48279  0.86213  0.87159  Biso   1.000  C
  C22      1.0000 0.48903  0.85460  0.88220  Biso   1.000  C
  H33      1.0000 0.38069  0.86239  0.88220  Biso   1.000  H
  H34      1.0000 0.41110  0.84150  0.95670  Biso   1.000  H
  H35      1.0000 0.15388  0.19458  0.02979  Biso   1.000  H
  C23      1.0000 0.08588  0.18398  0.11042  Biso   1.000  C
  H36      1.0000 0.19458  0.02979  0.15388  Biso   1.000  H
  C24      1.0000 0.11042  0.08588  0.18398  Biso   1.000  C
  C25      1.0000 0.14301  0.83292  0.93060  Biso   1.000  C
  C26      1.0000 0.16708  0.93060  0.85699  Biso   1.000  C
  H37      1.0000 0.52319  0.88090  0.89743  Biso   1.000  H
  H38      1.0000 0.47749  0.89021  0.82881  Biso   1.000  H
  C27      1.0000 0.50010  0.78639  0.84992  Biso   1.000  C
  C28      1.0000 0.50411  0.77490  0.87581  Biso   1.000  C
  H39      1.0000 0.52651  0.87622  0.91012  Biso   1.000  H
  H40      1.0000 0.49059  0.87549  0.83520  Biso   1.000  H
  C29      1.0000 0.06940  0.14301  0.16708  Biso   1.000  C
  C30      1.0000 0.04299  0.24652  0.09461  Biso   1.000  C
  C31      1.0000 0.09461  0.04299  0.24652  Biso   1.000  C
  H41      1.0000 0.15388  0.80542  0.97021  Biso   1.000  H
  C32      1.0000 0.08588  0.81602  0.88963  Biso   1.000  C
  H42      1.0000 0.19458  0.97021  0.84612  Biso   1.000  H
  C33      1.0000 0.11042  0.91412  0.81602  Biso   1.000  C
  H43      1.0000 0.50551  0.75390  0.89010  Biso   1.000  H
  C34      1.0000 0.56883  0.79663  0.80682  Biso   1.000  C
  C35      1.0000 0.45363  0.75801  0.79200  Biso   1.000  C
  C36      1.0000 0.45378  0.74309  0.82299  Biso   1.000  C
  C37      1.0000 0.57548  0.76960  0.83739  Biso   1.000  C
  H44      1.0000 0.50379  0.75031  0.92161  Biso   1.000  H
  H45      1.0000 0.02979  0.15388  0.19458  Biso   1.000  H
  N3       1.0000 0.05729  0.28649  0.04642  Biso   1.000  N
  H46      1.0000 0.00338  0.25593  0.12243  Biso   1.000  H
  N4       1.0000 0.04642  0.05729  0.28649  Biso   1.000  N
  H47      1.0000 0.12243  0.00338  0.25593  Biso   1.000  H
  C38      1.0000 0.06940  0.85699  0.83292  Biso   1.000  C
  C39      1.0000 0.04299  0.75348  0.90539  Biso   1.000  C
  C40      1.0000 0.09461  0.95701  0.75348  Biso   1.000  C
  H48      1.0000 0.58422  0.75161  0.78863  Biso   1.000  H
  H49      1.0000 0.60491  0.81613  0.83692  Biso   1.000  H
  H50      1.0000 0.55989  0.82850  0.76809  Biso   1.000  H
  H51      1.0000 0.60901  0.80079  0.85959  Biso   1.000  H
  H52      1.0000 0.46288  0.70810  0.78571  Biso   1.000  H
  H53      1.0000 0.46340  0.78249  0.74849  Biso   1.000  H
  H54      1.0000 0.40471  0.76440  0.80469  Biso   1.000  H
  H55      1.0000 0.40591  0.75442  0.83630  Biso   1.000  H
  H56      1.0000 0.45971  0.69261  0.82210  Biso   1.000  H
  H57      1.0000 0.46351  0.76211  0.77672  Biso   1.000  H
  H58      1.0000 0.59259  0.72172  0.83999  Biso   1.000  H
  H59      1.0000 0.56951  0.78291  0.78863  Biso   1.000  H
  C41      1.0000 0.01440  0.34929  0.03800  Biso   1.000  C
  C42      1.0000 0.03800  0.01440  0.34929  Biso   1.000  C
  H60      1.0000 0.02979  0.84612  0.80542  Biso   1.000  H
  N5       1.0000 0.05729  0.71351  0.95363  Biso   1.000  N
  H61      1.0000 0.00338  0.74413  0.87763  Biso   1.000  H
  N6       1.0000 0.04642  0.94271  0.71351  Biso   1.000  N
  H62      1.0000 0.12243  0.99662  0.74413  Biso   1.000  H
  C43      1.0000 0.06051  0.41188  0.05329  Biso   1.000  C
  C44      1.0000 0.98560  0.34929  0.96200  Biso   1.000  C
  H63      1.0000 0.97479  0.34810  0.07158  Biso   1.000  H
  C45      1.0000 0.05329  0.06051  0.41188  Biso   1.000  C
  C46      1.0000 0.96200  0.98560  0.34929  Biso   1.000  C
  H64      1.0000 0.07158  0.97479  0.34810  Biso   1.000  H
  C47      1.0000 0.01440  0.65071  0.96200  Biso   1.000  C
  C48      1.0000 0.03800  0.98560  0.65071  Biso   1.000  C
  H65      1.0000 0.10220  0.40918  0.02319  Biso   1.000  H
  H66      1.0000 0.03488  0.45462  0.04050  Biso   1.000  H
  C49      1.0000 0.08401  0.41823  0.12768  Biso   1.000  C
  N7       1.0000 0.94271  0.28649  0.95363  Biso   1.000  N
  C50      1.0000 0.93949  0.41188  0.94671  Biso   1.000  C
  H67      1.0000 0.02521  0.34810  0.92842  Biso   1.000  H
  H68      1.0000 0.02319  0.10220  0.40918  Biso   1.000  H
  H69      1.0000 0.04050  0.03488  0.45462  Biso   1.000  H
  C51      1.0000 0.12768  0.08401  0.41823  Biso   1.000  C
  N8       1.0000 0.95363  0.94271  0.28649  Biso   1.000  N
  C52      1.0000 0.94671  0.93949  0.41188  Biso   1.000  C
  H70      1.0000 0.92842  0.02521  0.34810  Biso   1.000  H
  H71      1.0000 0.97479  0.65190  0.92842  Biso   1.000  H
  C53      1.0000 0.98560  0.65071  0.03800  Biso   1.000  C
  C54      1.0000 0.06051  0.58812  0.94671  Biso   1.000  C
  C55      1.0000 0.96200  0.01440  0.65071  Biso   1.000  C
  C56      1.0000 0.05329  0.93949  0.58812  Biso   1.000  C
  H72      1.0000 0.07158  0.02521  0.65190  Biso   1.000  H
  H73      1.0000 0.11109  0.37648  0.14073  Biso   1.000  H
  H74      1.0000 0.04278  0.42072  0.15840  Biso   1.000  H
  C57      1.0000 0.12841  0.48279  0.13792  Biso   1.000  C
  C58      1.0000 0.11780  0.48903  0.14540  Biso   1.000  C
  H75      1.0000 0.11780  0.38069  0.13761  Biso   1.000  H
  H76      1.0000 0.04330  0.41110  0.15850  Biso   1.000  H
  C59      1.0000 0.95701  0.24652  0.90539  Biso   1.000  C
  H77      1.0000 0.89780  0.40918  0.97681  Biso   1.000  H
  H78      1.0000 0.96512  0.45462  0.95950  Biso   1.000  H
  C60      1.0000 0.91599  0.41823  0.87232  Biso   1.000  C
  H79      1.0000 0.14073  0.11109  0.37648  Biso   1.000  H
  H80      1.0000 0.15840  0.04278  0.42072  Biso   1.000  H
  C61      1.0000 0.13792  0.12841  0.48279  Biso   1.000  C
  C62      1.0000 0.14540  0.11780  0.48903  Biso   1.000  C
  H81      1.0000 0.13761  0.11780  0.38069  Biso   1.000  H
  H82      1.0000 0.15850  0.04330  0.41110  Biso   1.000  H
  C63      1.0000 0.90539  0.95701  0.24652  Biso   1.000  C
  H83      1.0000 0.97681  0.89780  0.40918  Biso   1.000  H
  H84      1.0000 0.95950  0.96512  0.45462  Biso   1.000  H
  C64      1.0000 0.87232  0.91599  0.41823  Biso   1.000  C
  N9       1.0000 0.94271  0.71351  0.04642  Biso   1.000  N
  C65      1.0000 0.93949  0.58812  0.05329  Biso   1.000  C
  H85      1.0000 0.02521  0.65190  0.07158  Biso   1.000  H
  H86      1.0000 0.10220  0.59082  0.97681  Biso   1.000  H
  H87      1.0000 0.03488  0.54538  0.95950  Biso   1.000  H
  C66      1.0000 0.08401  0.58183  0.87232  Biso   1.000  C
  H88      1.0000 0.92842  0.97479  0.65190  Biso   1.000  H
  N10      1.0000 0.95363  0.05729  0.71351  Biso   1.000  N
  C67      1.0000 0.94671  0.06051  0.58812  Biso   1.000  C
  H89      1.0000 0.02319  0.89780  0.59082  Biso   1.000  H
  H90      1.0000 0.04050  0.96512  0.54538  Biso   1.000  H
  C68      1.0000 0.12768  0.91599  0.58183  Biso   1.000  C
  H91      1.0000 0.10262  0.52319  0.11910  Biso   1.000  H
  H92      1.0000 0.17119  0.47749  0.10979  Biso   1.000  H
  C69      1.0000 0.15008  0.50010  0.21361  Biso   1.000  C
  C70      1.0000 0.12419  0.50411  0.22510  Biso   1.000  C
  H93      1.0000 0.08988  0.52651  0.12378  Biso   1.000  H
  H94      1.0000 0.16480  0.49059  0.12451  Biso   1.000  H
  C71      1.0000 0.91412  0.18398  0.88963  Biso   1.000  C
  H95      1.0000 0.99662  0.25593  0.87763  Biso   1.000  H
  H96      1.0000 0.88891  0.37648  0.85933  Biso   1.000  H
  H97      1.0000 0.95722  0.42072  0.84160  Biso   1.000  H
  C72      1.0000 0.87159  0.48279  0.86213  Biso   1.000  C
  C73      1.0000 0.88220  0.48903  0.85460  Biso   1.000  C
  H98      1.0000 0.88220  0.38069  0.86239  Biso   1.000  H
  H99      1.0000 0.95670  0.41110  0.84150  Biso   1.000  H
  H100     1.0000 0.11910  0.10262  0.52319  Biso   1.000  H
  H101     1.0000 0.10979  0.17119  0.47749  Biso   1.000  H
  C74      1.0000 0.21361  0.15008  0.50010  Biso   1.000  C
  C75      1.0000 0.22510  0.12419  0.50411  Biso   1.000  C
  H102     1.0000 0.12378  0.08988  0.52651  Biso   1.000  H
  H103     1.0000 0.12451  0.16480  0.49059  Biso   1.000  H
  C76      1.0000 0.88963  0.91412  0.18398  Biso   1.000  C
  H104     1.0000 0.87763  0.99662  0.25593  Biso   1.000  H
  H105     1.0000 0.85933  0.88891  0.37648  Biso   1.000  H
  H106     1.0000 0.84160  0.95722  0.42072  Biso   1.000  H
  C77      1.0000 0.86213  0.87159  0.48279  Biso   1.000  C
  C78      1.0000 0.85460  0.88220  0.48903  Biso   1.000  C
  H107     1.0000 0.86239  0.88220  0.38069  Biso   1.000  H
  H108     1.0000 0.84150  0.95670  0.41110  Biso   1.000  H
  C79      1.0000 0.95701  0.75348  0.09461  Biso   1.000  C
  H109     1.0000 0.89780  0.59082  0.02319  Biso   1.000  H
  H110     1.0000 0.96512  0.54538  0.04050  Biso   1.000  H
  C80      1.0000 0.91599  0.58183  0.12768  Biso   1.000  C
  H111     1.0000 0.11109  0.62352  0.85933  Biso   1.000  H
  H112     1.0000 0.04278  0.57933  0.84160  Biso   1.000  H
  C81      1.0000 0.12841  0.51721  0.86213  Biso   1.000  C
  C82      1.0000 0.11780  0.51102  0.85460  Biso   1.000  C
  H113     1.0000 0.11780  0.61931  0.86239  Biso   1.000  H
  H114     1.0000 0.04330  0.58890  0.84150  Biso   1.000  H
  C83      1.0000 0.90539  0.04299  0.75348  Biso   1.000  C
  H115     1.0000 0.97681  0.10220  0.59082  Biso   1.000  H
  H116     1.0000 0.95950  0.03488  0.54538  Biso   1.000  H
  C84      1.0000 0.87232  0.08401  0.58183  Biso   1.000  C
  H117     1.0000 0.14073  0.88891  0.62352  Biso   1.000  H
  H118     1.0000 0.15840  0.95722  0.57933  Biso   1.000  H
  C85      1.0000 0.13792  0.87159  0.51721  Biso   1.000  C
  C86      1.0000 0.14540  0.88220  0.51102  Biso   1.000  C
  H119     1.0000 0.13761  0.88220  0.61931  Biso   1.000  H
  H120     1.0000 0.15850  0.95670  0.58890  Biso   1.000  H
  H121     1.0000 0.10990  0.50551  0.24610  Biso   1.000  H
  C87      1.0000 0.19318  0.56883  0.20342  Biso   1.000  C
  C88      1.0000 0.20800  0.45363  0.24199  Biso   1.000  C
  C89      1.0000 0.17701  0.45378  0.25691  Biso   1.000  C
  C90      1.0000 0.16261  0.57548  0.23040  Biso   1.000  C
  H122     1.0000 0.07839  0.50379  0.24969  Biso   1.000  H
  C91      1.0000 0.85699  0.16708  0.93060  Biso   1.000  C
  C92      1.0000 0.93060  0.14301  0.83292  Biso   1.000  C
  H123     1.0000 0.89743  0.52319  0.88090  Biso   1.000  H
  H124     1.0000 0.82881  0.47749  0.89021  Biso   1.000  H
  C93      1.0000 0.84992  0.50010  0.78639  Biso   1.000  C
  C94      1.0000 0.87581  0.50411  0.77490  Biso   1.000  C
  H125     1.0000 0.91012  0.52651  0.87622  Biso   1.000  H
  H126     1.0000 0.83520  0.49059  0.87549  Biso   1.000  H
  H127     1.0000 0.24610  0.10990  0.50551  Biso   1.000  H
  C95      1.0000 0.20342  0.19318  0.56883  Biso   1.000  C
  C96      1.0000 0.24199  0.20800  0.45363  Biso   1.000  C
  C97      1.0000 0.25691  0.17701  0.45378  Biso   1.000  C
  C98      1.0000 0.23040  0.16261  0.57548  Biso   1.000  C
  H128     1.0000 0.24969  0.07839  0.50379  Biso   1.000  H
  C99      1.0000 0.93060  0.85699  0.16708  Biso   1.000  C
  C100     1.0000 0.83292  0.93060  0.14301  Biso   1.000  C
  H129     1.0000 0.88090  0.89743  0.52319  Biso   1.000  H
  H130     1.0000 0.89021  0.82881  0.47749  Biso   1.000  H
  C101     1.0000 0.78639  0.84992  0.50010  Biso   1.000  C
  C102     1.0000 0.77490  0.87581  0.50411  Biso   1.000  C
  H131     1.0000 0.87622  0.91012  0.52651  Biso   1.000  H
  H132     1.0000 0.87549  0.83520  0.49059  Biso   1.000  H
  C103     1.0000 0.91412  0.81602  0.11042  Biso   1.000  C
  H133     1.0000 0.99662  0.74413  0.12243  Biso   1.000  H
  H134     1.0000 0.88891  0.62352  0.14073  Biso   1.000  H
  H135     1.0000 0.95722  0.57933  0.15840  Biso   1.000  H
  C104     1.0000 0.87159  0.51721  0.13792  Biso   1.000  C
  C105     1.0000 0.88220  0.51102  0.14540  Biso   1.000  C
  H136     1.0000 0.88220  0.61931  0.13761  Biso   1.000  H
  H137     1.0000 0.95670  0.58890  0.15850  Biso   1.000  H
  H138     1.0000 0.10262  0.47681  0.88090  Biso   1.000  H
  H139     1.0000 0.17119  0.52251  0.89021  Biso   1.000  H
  C106     1.0000 0.15008  0.49990  0.78639  Biso   1.000  C
  C107     1.0000 0.12419  0.49589  0.77490  Biso   1.000  C
  H140     1.0000 0.08988  0.47349  0.87622  Biso   1.000  H
  H141     1.0000 0.16480  0.50941  0.87549  Biso   1.000  H
  C108     1.0000 0.88963  0.08588  0.81602  Biso   1.000  C
  H142     1.0000 0.87763  0.00338  0.74413  Biso   1.000  H
  H143     1.0000 0.85933  0.11109  0.62352  Biso   1.000  H
  H144     1.0000 0.84160  0.04278  0.57933  Biso   1.000  H
  C109     1.0000 0.86213  0.12841  0.51721  Biso   1.000  C
  C110     1.0000 0.85460  0.11780  0.51102  Biso   1.000  C
  H145     1.0000 0.86239  0.11780  0.61931  Biso   1.000  H
  H146     1.0000 0.84150  0.04330  0.58890  Biso   1.000  H
  H147     1.0000 0.11910  0.89743  0.47681  Biso   1.000  H
  H148     1.0000 0.10979  0.82881  0.52251  Biso   1.000  H
  C111     1.0000 0.21361  0.84992  0.49990  Biso   1.000  C
  C112     1.0000 0.22510  0.87581  0.49589  Biso   1.000  C
  H149     1.0000 0.12378  0.91012  0.47349  Biso   1.000  H
  H150     1.0000 0.12451  0.83520  0.50941  Biso   1.000  H
  H151     1.0000 0.21143  0.58422  0.24839  Biso   1.000  H
  H152     1.0000 0.16308  0.60491  0.18393  Biso   1.000  H
  H153     1.0000 0.23191  0.55989  0.17150  Biso   1.000  H
  H154     1.0000 0.14041  0.60901  0.19921  Biso   1.000  H
  H155     1.0000 0.21429  0.46288  0.29190  Biso   1.000  H
  H156     1.0000 0.25151  0.46340  0.21751  Biso   1.000  H
  H157     1.0000 0.19531  0.40471  0.23560  Biso   1.000  H
  H158     1.0000 0.16370  0.40591  0.24558  Biso   1.000  H
  H159     1.0000 0.17790  0.45971  0.30739  Biso   1.000  H
  H160     1.0000 0.22328  0.46351  0.23789  Biso   1.000  H
  H161     1.0000 0.16001  0.59259  0.27828  Biso   1.000  H
  H162     1.0000 0.21143  0.56951  0.21709  Biso   1.000  H
  H163     1.0000 0.84612  0.19458  0.97021  Biso   1.000  H
  C113     1.0000 0.81602  0.11042  0.91412  Biso   1.000  C
  H164     1.0000 0.97021  0.15388  0.80542  Biso   1.000  H
  H165     1.0000 0.89010  0.50551  0.75390  Biso   1.000  H
  C114     1.0000 0.80682  0.56883  0.79663  Biso   1.000  C
  C115     1.0000 0.79200  0.45363  0.75801  Biso   1.000  C
  C116     1.0000 0.82299  0.45378  0.74309  Biso   1.000  C
  C117     1.0000 0.83739  0.57548  0.76960  Biso   1.000  C
  H166     1.0000 0.92161  0.50379  0.75031  Biso   1.000  H
  H167     1.0000 0.24839  0.21143  0.58422  Biso   1.000  H
  H168     1.0000 0.18393  0.16308  0.60491  Biso   1.000  H
  H169     1.0000 0.17150  0.23191  0.55989  Biso   1.000  H
  H170     1.0000 0.19921  0.14041  0.60901  Biso   1.000  H
  H171     1.0000 0.29190  0.21429  0.46288  Biso   1.000  H
  H172     1.0000 0.21751  0.25151  0.46340  Biso   1.000  H
  H173     1.0000 0.23560  0.19531  0.40471  Biso   1.000  H
  H174     1.0000 0.24558  0.16370  0.40591  Biso   1.000  H
  H175     1.0000 0.30739  0.17790  0.45971  Biso   1.000  H
  H176     1.0000 0.23789  0.22328  0.46351  Biso   1.000  H
  H177     1.0000 0.27828  0.16001  0.59259  Biso   1.000  H
  H178     1.0000 0.21709  0.21143  0.56951  Biso   1.000  H
  H179     1.0000 0.97021  0.84612  0.19458  Biso   1.000  H
  H180     1.0000 0.80542  0.97021  0.15388  Biso   1.000  H
  C118     1.0000 0.81602  0.88963  0.08588  Biso   1.000  C
  H181     1.0000 0.75390  0.89010  0.50551  Biso   1.000  H
  C119     1.0000 0.79663  0.80682  0.56883  Biso   1.000  C
  C120     1.0000 0.75801  0.79200  0.45363  Biso   1.000  C
  C121     1.0000 0.74309  0.82299  0.45378  Biso   1.000  C
  C122     1.0000 0.76960  0.83739  0.57548  Biso   1.000  C
  H182     1.0000 0.75031  0.92161  0.50379  Biso   1.000  H
  C123     1.0000 0.85699  0.83292  0.06940  Biso   1.000  C
  H183     1.0000 0.89743  0.47681  0.11910  Biso   1.000  H
  H184     1.0000 0.82881  0.52251  0.10979  Biso   1.000  H
  C124     1.0000 0.84992  0.49990  0.21361  Biso   1.000  C
  C125     1.0000 0.87581  0.49589  0.22510  Biso   1.000  C
  H185     1.0000 0.91012  0.47349  0.12378  Biso   1.000  H
  H186     1.0000 0.83520  0.50941  0.12451  Biso   1.000  H
  H187     1.0000 0.10990  0.49449  0.75390  Biso   1.000  H
  C126     1.0000 0.19318  0.43122  0.79663  Biso   1.000  C
  C127     1.0000 0.20800  0.54642  0.75801  Biso   1.000  C
  C128     1.0000 0.17701  0.54622  0.74309  Biso   1.000  C
  C129     1.0000 0.16261  0.42452  0.76960  Biso   1.000  C
  H188     1.0000 0.07839  0.49621  0.75031  Biso   1.000  H
  C130     1.0000 0.83292  0.06940  0.85699  Biso   1.000  C
  H189     1.0000 0.88090  0.10262  0.47681  Biso   1.000  H
  H190     1.0000 0.89021  0.17119  0.52251  Biso   1.000  H
  C131     1.0000 0.78639  0.15008  0.49990  Biso   1.000  C
  C132     1.0000 0.77490  0.12419  0.49589  Biso   1.000  C
  H191     1.0000 0.87622  0.08988  0.47349  Biso   1.000  H
  H192     1.0000 0.87549  0.16480  0.50941  Biso   1.000  H
  H193     1.0000 0.24610  0.89010  0.49449  Biso   1.000  H
  C133     1.0000 0.20342  0.80682  0.43122  Biso   1.000  C
  C134     1.0000 0.24199  0.79200  0.54642  Biso   1.000  C
  C135     1.0000 0.25691  0.82299  0.54622  Biso   1.000  C
  C136     1.0000 0.23040  0.83739  0.42452  Biso   1.000  C
  H194     1.0000 0.24969  0.92161  0.49621  Biso   1.000  H
  C137     1.0000 0.75348  0.09461  0.95701  Biso   1.000  C
  H195     1.0000 0.78863  0.58422  0.75161  Biso   1.000  H
  H196     1.0000 0.83692  0.60491  0.81613  Biso   1.000  H
  H197     1.0000 0.76809  0.55989  0.82850  Biso   1.000  H
  H198     1.0000 0.85959  0.60901  0.80079  Biso   1.000  H
  H199     1.0000 0.78571  0.46288  0.70810  Biso   1.000  H
  H200     1.0000 0.74849  0.46340  0.78249  Biso   1.000  H
  H201     1.0000 0.80469  0.40471  0.76440  Biso   1.000  H
  H202     1.0000 0.83630  0.40591  0.75442  Biso   1.000  H
  H203     1.0000 0.82210  0.45971  0.69261  Biso   1.000  H
  H204     1.0000 0.77672  0.46351  0.76211  Biso   1.000  H
  H205     1.0000 0.83999  0.59259  0.72172  Biso   1.000  H
  H206     1.0000 0.78863  0.56951  0.78291  Biso   1.000  H
  C138     1.0000 0.75348  0.90539  0.04299  Biso   1.000  C
  H207     1.0000 0.75161  0.78863  0.58422  Biso   1.000  H
  H208     1.0000 0.81613  0.83692  0.60491  Biso   1.000  H
  H209     1.0000 0.82850  0.76809  0.55989  Biso   1.000  H
  H210     1.0000 0.80079  0.85959  0.60901  Biso   1.000  H
  H211     1.0000 0.70810  0.78571  0.46288  Biso   1.000  H
  H212     1.0000 0.78249  0.74849  0.46340  Biso   1.000  H
  H213     1.0000 0.76440  0.80469  0.40471  Biso   1.000  H
  H214     1.0000 0.75442  0.83630  0.40591  Biso   1.000  H
  H215     1.0000 0.69261  0.82210  0.45971  Biso   1.000  H
  H216     1.0000 0.76211  0.77672  0.46351  Biso   1.000  H
  H217     1.0000 0.72172  0.83999  0.59259  Biso   1.000  H
  H218     1.0000 0.78291  0.78863  0.56951  Biso   1.000  H
  H219     1.0000 0.84612  0.80542  0.02979  Biso   1.000  H
  H220     1.0000 0.89010  0.49449  0.24610  Biso   1.000  H
  C139     1.0000 0.80682  0.43122  0.20342  Biso   1.000  C
  C140     1.0000 0.79200  0.54642  0.24199  Biso   1.000  C
  C141     1.0000 0.82299  0.54622  0.25691  Biso   1.000  C
  C142     1.0000 0.83739  0.42452  0.23040  Biso   1.000  C
  H221     1.0000 0.92161  0.49621  0.24969  Biso   1.000  H
  H222     1.0000 0.21143  0.41578  0.75161  Biso   1.000  H
  H223     1.0000 0.16308  0.39509  0.81613  Biso   1.000  H
  H224     1.0000 0.23191  0.44011  0.82850  Biso   1.000  H
  H225     1.0000 0.14041  0.39099  0.80079  Biso   1.000  H
  H226     1.0000 0.21429  0.53712  0.70810  Biso   1.000  H
  H227     1.0000 0.25151  0.53660  0.78249  Biso   1.000  H
  H228     1.0000 0.19531  0.59529  0.76440  Biso   1.000  H
  H229     1.0000 0.16370  0.59409  0.75442  Biso   1.000  H
  H230     1.0000 0.17790  0.54029  0.69261  Biso   1.000  H
  H231     1.0000 0.22328  0.53649  0.76211  Biso   1.000  H
  H232     1.0000 0.16001  0.40741  0.72172  Biso   1.000  H
  H233     1.0000 0.21143  0.43049  0.78291  Biso   1.000  H
  H234     1.0000 0.80542  0.02979  0.84612  Biso   1.000  H
  H235     1.0000 0.75390  0.10990  0.49449  Biso   1.000  H
  C143     1.0000 0.79663  0.19318  0.43122  Biso   1.000  C
  C144     1.0000 0.75801  0.20800  0.54642  Biso   1.000  C
  C145     1.0000 0.74309  0.17701  0.54622  Biso   1.000  C
  C146     1.0000 0.76960  0.16261  0.42452  Biso   1.000  C
  H236     1.0000 0.75031  0.07839  0.49621  Biso   1.000  H
  H237     1.0000 0.24839  0.78863  0.41578  Biso   1.000  H
  H238     1.0000 0.18393  0.83692  0.39509  Biso   1.000  H
  H239     1.0000 0.17150  0.76809  0.44011  Biso   1.000  H
  H240     1.0000 0.19921  0.85959  0.39099  Biso   1.000  H
  H241     1.0000 0.29190  0.78571  0.53712  Biso   1.000  H
  H242     1.0000 0.21751  0.74849  0.53660  Biso   1.000  H
  H243     1.0000 0.23560  0.80469  0.59529  Biso   1.000  H
  H244     1.0000 0.24558  0.83630  0.59409  Biso   1.000  H
  H245     1.0000 0.30739  0.82210  0.54029  Biso   1.000  H
  H246     1.0000 0.23789  0.77672  0.53649  Biso   1.000  H
  H247     1.0000 0.27828  0.83999  0.40741  Biso   1.000  H
  H248     1.0000 0.21709  0.78863  0.43049  Biso   1.000  H
  N11      1.0000 0.71351  0.04642  0.94271  Biso   1.000  N
  H249     1.0000 0.74413  0.12243  0.99662  Biso   1.000  H
  N12      1.0000 0.71351  0.95363  0.05729  Biso   1.000  N
  H250     1.0000 0.74413  0.87763  0.00338  Biso   1.000  H
  H251     1.0000 0.78863  0.41578  0.24839  Biso   1.000  H
  H252     1.0000 0.83692  0.39509  0.18393  Biso   1.000  H
  H253     1.0000 0.76809  0.44011  0.17150  Biso   1.000  H
  H254     1.0000 0.85959  0.39099  0.19921  Biso   1.000  H
  H255     1.0000 0.78571  0.53712  0.29190  Biso   1.000  H
  H256     1.0000 0.74849  0.53660  0.21751  Biso   1.000  H
  H257     1.0000 0.80469  0.59529  0.23560  Biso   1.000  H
  H258     1.0000 0.83630  0.59409  0.24558  Biso   1.000  H
  H259     1.0000 0.82210  0.54029  0.30739  Biso   1.000  H
  H260     1.0000 0.77672  0.53649  0.23789  Biso   1.000  H
  H261     1.0000 0.83999  0.40741  0.27828  Biso   1.000  H
  H262     1.0000 0.78863  0.43049  0.21709  Biso   1.000  H
  H263     1.0000 0.75161  0.21143  0.41578  Biso   1.000  H
  H264     1.0000 0.81613  0.16308  0.39509  Biso   1.000  H
  H265     1.0000 0.82850  0.23191  0.44011  Biso   1.000  H
  H266     1.0000 0.80079  0.14041  0.39099  Biso   1.000  H
  H267     1.0000 0.70810  0.21429  0.53712  Biso   1.000  H
  H268     1.0000 0.78249  0.25151  0.53660  Biso   1.000  H
  H269     1.0000 0.76440  0.19531  0.59529  Biso   1.000  H
  H270     1.0000 0.75442  0.16370  0.59409  Biso   1.000  H
  H271     1.0000 0.69261  0.17790  0.54029  Biso   1.000  H
  H272     1.0000 0.76211  0.22328  0.53649  Biso   1.000  H
  H273     1.0000 0.72172  0.16001  0.40741  Biso   1.000  H
  H274     1.0000 0.78291  0.21143  0.43049  Biso   1.000  H
  C147     1.0000 0.65071  0.03800  0.98560  Biso   1.000  C
  C148     1.0000 0.65071  0.96200  0.01440  Biso   1.000  C
  C149     1.0000 0.58812  0.05329  0.93949  Biso   1.000  C
  H275     1.0000 0.65190  0.07158  0.02521  Biso   1.000  H
  H276     1.0000 0.65190  0.92842  0.97479  Biso   1.000  H
  C150     1.0000 0.58812  0.94671  0.06051  Biso   1.000  C
  H277     1.0000 0.59082  0.02319  0.89780  Biso   1.000  H
  H278     1.0000 0.54538  0.04050  0.96512  Biso   1.000  H
  C151     1.0000 0.58183  0.12768  0.91599  Biso   1.000  C
  H279     1.0000 0.59082  0.97681  0.10220  Biso   1.000  H
  H280     1.0000 0.54538  0.95950  0.03488  Biso   1.000  H
  C152     1.0000 0.58183  0.87232  0.08401  Biso   1.000  C
  H281     1.0000 0.62352  0.14073  0.88891  Biso   1.000  H
  H282     1.0000 0.57933  0.15840  0.95722  Biso   1.000  H
  C153     1.0000 0.51721  0.13792  0.87159  Biso   1.000  C
  C154     1.0000 0.51102  0.14540  0.88220  Biso   1.000  C
  H283     1.0000 0.61931  0.13761  0.88220  Biso   1.000  H
  H284     1.0000 0.58890  0.15850  0.95670  Biso   1.000  H
  H285     1.0000 0.62352  0.85933  0.11109  Biso   1.000  H
  H286     1.0000 0.57933  0.84160  0.04278  Biso   1.000  H
  C155     1.0000 0.51721  0.86213  0.12841  Biso   1.000  C
  C156     1.0000 0.51102  0.85460  0.11780  Biso   1.000  C
  H287     1.0000 0.61931  0.86239  0.11780  Biso   1.000  H
  H288     1.0000 0.58890  0.84150  0.04330  Biso   1.000  H
  H289     1.0000 0.47681  0.11910  0.89743  Biso   1.000  H
  H290     1.0000 0.52251  0.10979  0.82881  Biso   1.000  H
  C157     1.0000 0.49990  0.21361  0.84992  Biso   1.000  C
  C158     1.0000 0.49589  0.22510  0.87581  Biso   1.000  C
  H291     1.0000 0.47349  0.12378  0.91012  Biso   1.000  H
  H292     1.0000 0.50941  0.12451  0.83520  Biso   1.000  H
  H293     1.0000 0.47681  0.88090  0.10262  Biso   1.000  H
  H294     1.0000 0.52251  0.89021  0.17119  Biso   1.000  H
  C159     1.0000 0.49990  0.78639  0.15008  Biso   1.000  C
  C160     1.0000 0.49589  0.77490  0.12419  Biso   1.000  C
  H295     1.0000 0.47349  0.87622  0.08988  Biso   1.000  H
  H296     1.0000 0.50941  0.87549  0.16480  Biso   1.000  H
  H297     1.0000 0.49449  0.24610  0.89010  Biso   1.000  H
  C161     1.0000 0.43122  0.20342  0.80682  Biso   1.000  C
  C162     1.0000 0.54642  0.24199  0.79200  Biso   1.000  C
  C163     1.0000 0.54622  0.25691  0.82299  Biso   1.000  C
  C164     1.0000 0.42452  0.23040  0.83739  Biso   1.000  C
  H298     1.0000 0.49621  0.24969  0.92161  Biso   1.000  H
  H299     1.0000 0.49449  0.75390  0.10990  Biso   1.000  H
  C165     1.0000 0.43122  0.79663  0.19318  Biso   1.000  C
  C166     1.0000 0.54642  0.75801  0.20800  Biso   1.000  C
  C167     1.0000 0.54622  0.74309  0.17701  Biso   1.000  C
  C168     1.0000 0.42452  0.76960  0.16261  Biso   1.000  C
  H300     1.0000 0.49621  0.75031  0.07839  Biso   1.000  H
  H301     1.0000 0.41578  0.24839  0.78863  Biso   1.000  H
  H302     1.0000 0.39509  0.18393  0.83692  Biso   1.000  H
  H303     1.0000 0.44011  0.17150  0.76809  Biso   1.000  H
  H304     1.0000 0.39099  0.19921  0.85959  Biso   1.000  H
  H305     1.0000 0.53712  0.29190  0.78571  Biso   1.000  H
  H306     1.0000 0.53660  0.21751  0.74849  Biso   1.000  H
  H307     1.0000 0.59529  0.23560  0.80469  Biso   1.000  H
  H308     1.0000 0.59409  0.24558  0.83630  Biso   1.000  H
  H309     1.0000 0.54029  0.30739  0.82210  Biso   1.000  H
  H310     1.0000 0.53649  0.23789  0.77672  Biso   1.000  H
  H311     1.0000 0.40741  0.27828  0.83999  Biso   1.000  H
  H312     1.0000 0.43049  0.21709  0.78863  Biso   1.000  H
  H313     1.0000 0.41578  0.75161  0.21143  Biso   1.000  H
  H314     1.0000 0.39509  0.81613  0.16308  Biso   1.000  H
  H315     1.0000 0.44011  0.82850  0.23191  Biso   1.000  H
  H316     1.0000 0.39099  0.80079  0.14041  Biso   1.000  H
  H317     1.0000 0.53712  0.70810  0.21429  Biso   1.000  H
  H318     1.0000 0.53660  0.78249  0.25151  Biso   1.000  H
  H319     1.0000 0.59529  0.76440  0.19531  Biso   1.000  H
  H320     1.0000 0.59409  0.75442  0.16370  Biso   1.000  H
  H321     1.0000 0.54029  0.69261  0.17790  Biso   1.000  H
  H322     1.0000 0.53649  0.76211  0.22328  Biso   1.000  H
  H323     1.0000 0.40741  0.72172  0.16001  Biso   1.000  H
  H324     1.0000 0.43049  0.78291  0.21143  Biso   1.000  H
  C169     1.0000 0.54299  0.25348  0.40539  Biso   1.000  C
  N13      1.0000 0.55729  0.21351  0.45363  Biso   1.000  N
  C170     1.0000 0.58588  0.31602  0.38958  Biso   1.000  C
  H325     1.0000 0.50343  0.24413  0.37763  Biso   1.000  H
  C171     1.0000 0.51440  0.15071  0.46200  Biso   1.000  C
  C172     1.0000 0.64301  0.33292  0.43060  Biso   1.000  C
  C173     1.0000 0.56940  0.35699  0.33292  Biso   1.000  C
  C174     1.0000 0.48560  0.15071  0.53800  Biso   1.000  C
  H326     1.0000 0.47479  0.15190  0.42842  Biso   1.000  H
  C175     1.0000 0.56051  0.08812  0.44671  Biso   1.000  C
  H327     1.0000 0.65393  0.30542  0.47021  Biso   1.000  H
  C176     1.0000 0.68403  0.38958  0.41412  Biso   1.000  C
  H328     1.0000 0.52979  0.34612  0.30542  Biso   1.000  H
  C177     1.0000 0.61042  0.41412  0.31602  Biso   1.000  C
  N14      1.0000 0.44271  0.21351  0.54642  Biso   1.000  N
  H329     1.0000 0.52521  0.15190  0.57158  Biso   1.000  H
  C178     1.0000 0.43949  0.08812  0.55329  Biso   1.000  C
  H330     1.0000 0.60220  0.09082  0.47681  Biso   1.000  H
  H331     1.0000 0.53488  0.04538  0.45950  Biso   1.000  H
  C179     1.0000 0.58401  0.08183  0.37232  Biso   1.000  C
  C180     1.0000 0.66708  0.43060  0.35699  Biso   1.000  C
  C181     1.0000 0.74652  0.40539  0.45701  Biso   1.000  C
  C182     1.0000 0.59461  0.45701  0.25348  Biso   1.000  C
  C183     1.0000 0.45701  0.25348  0.59461  Biso   1.000  C
  H332     1.0000 0.39780  0.09082  0.52319  Biso   1.000  H
  H333     1.0000 0.46512  0.04538  0.54050  Biso   1.000  H
  C184     1.0000 0.41599  0.08183  0.62773  Biso   1.000  C
  H334     1.0000 0.61109  0.12352  0.35933  Biso   1.000  H
  H335     1.0000 0.54278  0.07928  0.34160  Biso   1.000  H
  C185     1.0000 0.62841  0.01721  0.36208  Biso   1.000  C
  C186     1.0000 0.61780  0.01102  0.35460  Biso   1.000  C
  H336     1.0000 0.61780  0.11931  0.36239  Biso   1.000  H
  H337     1.0000 0.54330  0.08890  0.34150  Biso   1.000  H
  H338     1.0000 0.69458  0.47021  0.34612  Biso   1.000  H
  N15      1.0000 0.78649  0.45363  0.44271  Biso   1.000  N
  H339     1.0000 0.75593  0.37763  0.49662  Biso   1.000  H
  N16      1.0000 0.54642  0.44271  0.21351  Biso   1.000  N
  H340     1.0000 0.62243  0.49662  0.24413  Biso   1.000  H
  C187     1.0000 0.41412  0.31602  0.61042  Biso   1.000  C
  H341     1.0000 0.49662  0.24413  0.62243  Biso   1.000  H
  H342     1.0000 0.38891  0.12352  0.64073  Biso   1.000  H
  H343     1.0000 0.45722  0.07928  0.65840  Biso   1.000  H
  C188     1.0000 0.37159  0.01721  0.63792  Biso   1.000  C
  C189     1.0000 0.38220  0.01102  0.64540  Biso   1.000  C
  H344     1.0000 0.38220  0.11931  0.63761  Biso   1.000  H
  H345     1.0000 0.45670  0.08890  0.65850  Biso   1.000  H
  H346     1.0000 0.67119  0.02251  0.39021  Biso   1.000  H
  H347     1.0000 0.66480  0.00941  0.37549  Biso   1.000  H
  H348     1.0000 0.60262  0.97681  0.38090  Biso   1.000  H
  C190     1.0000 0.65008  0.99990  0.28639  Biso   1.000  C
  C191     1.0000 0.62419  0.99589  0.27490  Biso   1.000  C
  H349     1.0000 0.58988  0.97349  0.37622  Biso   1.000  H
  C192     1.0000 0.84929  0.46200  0.48560  Biso   1.000  C
  C193     1.0000 0.53800  0.48560  0.15071  Biso   1.000  C
  C194     1.0000 0.35699  0.33292  0.56940  Biso   1.000  C
  C195     1.0000 0.43060  0.35699  0.66708  Biso   1.000  C
  H350     1.0000 0.32881  0.02251  0.60979  Biso   1.000  H
  H351     1.0000 0.33520  0.00941  0.62451  Biso   1.000  H
  H352     1.0000 0.39738  0.97681  0.61910  Biso   1.000  H
  C196     1.0000 0.34992  0.99990  0.71361  Biso   1.000  C
  C197     1.0000 0.37581  0.99589  0.72510  Biso   1.000  C
  H353     1.0000 0.41012  0.97349  0.62383  Biso   1.000  H
  C198     1.0000 0.70800  0.04642  0.25801  Biso   1.000  C
  C199     1.0000 0.67701  0.04622  0.24309  Biso   1.000  C
  H354     1.0000 0.60990  0.99449  0.25390  Biso   1.000  H
  C200     1.0000 0.69323  0.93122  0.29658  Biso   1.000  C
  C201     1.0000 0.66261  0.92452  0.26960  Biso   1.000  C
  H355     1.0000 0.57839  0.99621  0.25031  Biso   1.000  H
  C202     1.0000 0.84929  0.53800  0.51440  Biso   1.000  C
  H356     1.0000 0.84810  0.42842  0.52521  Biso   1.000  H
  C203     1.0000 0.91188  0.44671  0.43949  Biso   1.000  C
  C204     1.0000 0.46200  0.51440  0.15071  Biso   1.000  C
  H357     1.0000 0.57158  0.52521  0.15190  Biso   1.000  H
  C205     1.0000 0.55329  0.43949  0.08812  Biso   1.000  C
  H358     1.0000 0.34612  0.30542  0.52979  Biso   1.000  H
  C206     1.0000 0.31602  0.38958  0.58588  Biso   1.000  C
  H359     1.0000 0.47021  0.34612  0.69458  Biso   1.000  H
  C207     1.0000 0.38958  0.41412  0.68403  Biso   1.000  C
  C208     1.0000 0.29200  0.04642  0.74199  Biso   1.000  C
  C209     1.0000 0.32299  0.04622  0.75691  Biso   1.000  C
  H360     1.0000 0.39010  0.99449  0.74610  Biso   1.000  H
  C210     1.0000 0.30682  0.93122  0.70342  Biso   1.000  C
  C211     1.0000 0.33739  0.92452  0.73040  Biso   1.000  C
  H361     1.0000 0.42161  0.99621  0.74969  Biso   1.000  H
  H362     1.0000 0.71429  0.03712  0.20810  Biso   1.000  H
  H363     1.0000 0.75151  0.03660  0.28249  Biso   1.000  H
  H364     1.0000 0.69531  0.09529  0.26440  Biso   1.000  H
  H365     1.0000 0.66370  0.09409  0.25442  Biso   1.000  H
  H366     1.0000 0.67790  0.04029  0.19261  Biso   1.000  H
  H367     1.0000 0.72333  0.03649  0.26211  Biso   1.000  H
  H368     1.0000 0.71143  0.91583  0.25161  Biso   1.000  H
  H369     1.0000 0.66313  0.89509  0.31613  Biso   1.000  H
  H370     1.0000 0.73191  0.94011  0.32850  Biso   1.000  H
  H371     1.0000 0.64041  0.89099  0.30079  Biso   1.000  H
  H372     1.0000 0.66001  0.90741  0.22172  Biso   1.000  H
  H373     1.0000 0.71143  0.93049  0.28291  Biso   1.000  H
  N17      1.0000 0.78649  0.54642  0.55729  Biso   1.000  N
  H374     1.0000 0.84810  0.57158  0.47479  Biso   1.000  H
  C212     1.0000 0.91188  0.55329  0.56051  Biso   1.000  C
  H375     1.0000 0.90923  0.47681  0.39780  Biso   1.000  H
  H376     1.0000 0.95462  0.45950  0.46512  Biso   1.000  H
  C213     1.0000 0.91823  0.37232  0.41599  Biso   1.000  C
  N18      1.0000 0.45363  0.55729  0.21351  Biso   1.000  N
  H377     1.0000 0.42842  0.47479  0.15190  Biso   1.000  H
  C214     1.0000 0.44671  0.56051  0.08812  Biso   1.000  C
  H378     1.0000 0.52319  0.39780  0.09082  Biso   1.000  H
  H379     1.0000 0.54050  0.46512  0.04538  Biso   1.000  H
  C215     1.0000 0.62773  0.41599  0.08183  Biso   1.000  C
  C216     1.0000 0.33292  0.43060  0.64301  Biso   1.000  C
  C217     1.0000 0.25348  0.40539  0.54299  Biso   1.000  C
  C218     1.0000 0.40539  0.45701  0.74652  Biso   1.000  C
  H380     1.0000 0.28571  0.03712  0.79190  Biso   1.000  H
  H381     1.0000 0.24849  0.03660  0.71751  Biso   1.000  H
  H382     1.0000 0.30469  0.09529  0.73560  Biso   1.000  H
  H383     1.0000 0.33630  0.09409  0.74563  Biso   1.000  H
  H384     1.0000 0.32210  0.04029  0.80739  Biso   1.000  H
  H385     1.0000 0.27672  0.03649  0.73789  Biso   1.000  H
  H386     1.0000 0.28863  0.91583  0.74839  Biso   1.000  H
  H387     1.0000 0.33692  0.89509  0.68393  Biso   1.000  H
  H388     1.0000 0.26809  0.94011  0.67150  Biso   1.000  H
  H389     1.0000 0.35959  0.89099  0.69921  Biso   1.000  H
  H390     1.0000 0.33999  0.90741  0.77833  Biso   1.000  H
  H391     1.0000 0.28863  0.93049  0.71709  Biso   1.000  H
  C219     1.0000 0.74652  0.59461  0.54299  Biso   1.000  C
  H392     1.0000 0.90923  0.52319  0.60220  Biso   1.000  H
  H393     1.0000 0.95462  0.54050  0.53488  Biso   1.000  H
  C220     1.0000 0.91823  0.62773  0.58401  Biso   1.000  C
  H394     1.0000 0.87653  0.35933  0.38891  Biso   1.000  H
  H395     1.0000 0.92072  0.34160  0.45722  Biso   1.000  H
  C221     1.0000 0.98279  0.36208  0.37159  Biso   1.000  C
  C222     1.0000 0.98903  0.35460  0.38220  Biso   1.000  C
  H396     1.0000 0.88069  0.36239  0.38220  Biso   1.000  H
  H397     1.0000 0.91110  0.34150  0.45670  Biso   1.000  H
  C223     1.0000 0.40539  0.54299  0.25348  Biso   1.000  C
  H398     1.0000 0.47681  0.60220  0.09082  Biso   1.000  H
  H399     1.0000 0.45950  0.53488  0.04538  Biso   1.000  H
  C224     1.0000 0.37232  0.58401  0.08183  Biso   1.000  C
  H400     1.0000 0.64073  0.38891  0.12352  Biso   1.000  H
  H401     1.0000 0.65840  0.45722  0.07928  Biso   1.000  H
  C225     1.0000 0.63792  0.37159  0.01721  Biso   1.000  C
  C226     1.0000 0.64540  0.38220  0.01102  Biso   1.000  C
  H402     1.0000 0.63761  0.38220  0.11931  Biso   1.000  H
  H403     1.0000 0.65850  0.45670  0.08890  Biso   1.000  H
  H404     1.0000 0.30542  0.47021  0.65393  Biso   1.000  H
  N19      1.0000 0.21351  0.45363  0.55729  Biso   1.000  N
  H405     1.0000 0.24413  0.37763  0.50343  Biso   1.000  H
  N20      1.0000 0.45363  0.44271  0.78649  Biso   1.000  N
  H406     1.0000 0.37763  0.49662  0.75593  Biso   1.000  H
  C227     1.0000 0.68403  0.61042  0.58588  Biso   1.000  C
  H407     1.0000 0.75593  0.62243  0.50343  Biso   1.000  H
  H408     1.0000 0.87653  0.64073  0.61109  Biso   1.000  H
  H409     1.0000 0.92072  0.65840  0.54278  Biso   1.000  H
  C228     1.0000 0.98279  0.63792  0.62841  Biso   1.000  C
  C229     1.0000 0.98903  0.64540  0.61780  Biso   1.000  C
  H410     1.0000 0.88069  0.63761  0.61780  Biso   1.000  H
  H411     1.0000 0.91110  0.65850  0.54330  Biso   1.000  H
  H412     1.0000 0.97749  0.39021  0.32881  Biso   1.000  H
  H413     1.0000 0.99059  0.37549  0.33520  Biso   1.000  H
  H414     1.0000 0.02319  0.38090  0.39738  Biso   1.000  H
  C230     1.0000 0.00010  0.28639  0.34992  Biso   1.000  C
  C231     1.0000 0.00411  0.27490  0.37581  Biso   1.000  C
  H415     1.0000 0.02651  0.37622  0.41012  Biso   1.000  H
  C232     1.0000 0.38958  0.58588  0.31602  Biso   1.000  C
  H416     1.0000 0.37763  0.50343  0.24413  Biso   1.000  H
  H417     1.0000 0.35933  0.61109  0.12352  Biso   1.000  H
  H418     1.0000 0.34160  0.54278  0.07928  Biso   1.000  H
  C233     1.0000 0.36208  0.62841  0.01721  Biso   1.000  C
  C234     1.0000 0.35460  0.61780  0.01102  Biso   1.000  C
  H419     1.0000 0.36239  0.61780  0.11931  Biso   1.000  H
  H420     1.0000 0.34150  0.54330  0.08890  Biso   1.000  H
  H421     1.0000 0.60979  0.32881  0.02251  Biso   1.000  H
  H422     1.0000 0.62451  0.33520  0.00941  Biso   1.000  H
  H423     1.0000 0.61910  0.39738  0.97681  Biso   1.000  H
  C235     1.0000 0.71361  0.34992  0.99990  Biso   1.000  C
  C236     1.0000 0.72510  0.37581  0.99589  Biso   1.000  C
  H424     1.0000 0.62383  0.41012  0.97349  Biso   1.000  H
  C237     1.0000 0.15071  0.46200  0.51440  Biso   1.000  C
  C238     1.0000 0.46200  0.48560  0.84929  Biso   1.000  C
  C239     1.0000 0.64301  0.66708  0.56940  Biso   1.000  C
  C240     1.0000 0.66708  0.56940  0.64301  Biso   1.000  C
  H425     1.0000 0.97749  0.60979  0.67119  Biso   1.000  H
  H426     1.0000 0.99059  0.62451  0.66480  Biso   1.000  H
  H427     1.0000 0.02319  0.61910  0.60262  Biso   1.000  H
  C241     1.0000 0.00010  0.71361  0.65008  Biso   1.000  C
  C242     1.0000 0.00411  0.72510  0.62419  Biso   1.000  C
  H428     1.0000 0.02651  0.62383  0.58988  Biso   1.000  H
  C243     1.0000 0.95363  0.25801  0.29200  Biso   1.000  C
  C244     1.0000 0.95378  0.24309  0.32299  Biso   1.000  C
  H429     1.0000 0.00551  0.25390  0.39010  Biso   1.000  H
  C245     1.0000 0.06878  0.29658  0.30682  Biso   1.000  C
  C246     1.0000 0.07548  0.26960  0.33739  Biso   1.000  C
  H430     1.0000 0.00379  0.25031  0.42161  Biso   1.000  H
  C247     1.0000 0.43060  0.64301  0.33292  Biso   1.000  C
  C248     1.0000 0.33292  0.56940  0.35699  Biso   1.000  C
  H431     1.0000 0.39021  0.67119  0.02251  Biso   1.000  H
  H432     1.0000 0.37549  0.66480  0.00941  Biso   1.000  H
  H433     1.0000 0.38090  0.60262  0.97681  Biso   1.000  H
  C249     1.0000 0.28639  0.65008  0.99990  Biso   1.000  C
  C250     1.0000 0.27490  0.62419  0.99589  Biso   1.000  C
  H434     1.0000 0.37622  0.58988  0.97349  Biso   1.000  H
  C251     1.0000 0.74199  0.29200  0.04642  Biso   1.000  C
  C252     1.0000 0.75691  0.32299  0.04622  Biso   1.000  C
  H435     1.0000 0.74610  0.39010  0.99449  Biso   1.000  H
  C253     1.0000 0.70342  0.30682  0.93122  Biso   1.000  C
  C254     1.0000 0.73040  0.33739  0.92452  Biso   1.000  C
  H436     1.0000 0.74969  0.42161  0.99621  Biso   1.000  H
  C255     1.0000 0.15071  0.53800  0.48560  Biso   1.000  C
  H437     1.0000 0.15190  0.42842  0.47479  Biso   1.000  H
  C256     1.0000 0.08812  0.44671  0.56051  Biso   1.000  C
  C257     1.0000 0.53800  0.51440  0.84929  Biso   1.000  C
  H438     1.0000 0.42842  0.52521  0.84810  Biso   1.000  H
  C258     1.0000 0.44671  0.43949  0.91188  Biso   1.000  C
  H439     1.0000 0.65393  0.69458  0.52979  Biso   1.000  H
  C259     1.0000 0.58588  0.68403  0.61042  Biso   1.000  C
  H440     1.0000 0.69458  0.52979  0.65393  Biso   1.000  H
  C260     1.0000 0.61042  0.58588  0.68403  Biso   1.000  C
  C261     1.0000 0.95363  0.74199  0.70800  Biso   1.000  C
  C262     1.0000 0.95378  0.75691  0.67701  Biso   1.000  C
  H441     1.0000 0.00551  0.74610  0.60990  Biso   1.000  H
  C263     1.0000 0.06878  0.70342  0.69323  Biso   1.000  C
  C264     1.0000 0.07548  0.73040  0.66261  Biso   1.000  C
  H442     1.0000 0.00379  0.74969  0.57839  Biso   1.000  H
  H443     1.0000 0.96293  0.20810  0.28571  Biso   1.000  H
  H444     1.0000 0.96340  0.28249  0.24849  Biso   1.000  H
  H445     1.0000 0.90471  0.26440  0.30469  Biso   1.000  H
  H446     1.0000 0.90591  0.25442  0.33630  Biso   1.000  H
  H447     1.0000 0.95971  0.19261  0.32210  Biso   1.000  H
  H448     1.0000 0.96351  0.26211  0.27672  Biso   1.000  H
  H449     1.0000 0.08422  0.25161  0.28863  Biso   1.000  H
  H450     1.0000 0.10491  0.31613  0.33692  Biso   1.000  H
  H451     1.0000 0.05989  0.32850  0.26809  Biso   1.000  H
  H452     1.0000 0.10901  0.30079  0.35959  Biso   1.000  H
  H453     1.0000 0.09259  0.22172  0.33999  Biso   1.000  H
  H454     1.0000 0.06951  0.28291  0.28863  Biso   1.000  H
  H455     1.0000 0.47021  0.65393  0.30542  Biso   1.000  H
  C265     1.0000 0.41412  0.68403  0.38958  Biso   1.000  C
  H456     1.0000 0.30542  0.52979  0.34612  Biso   1.000  H
  C266     1.0000 0.31602  0.61042  0.41412  Biso   1.000  C
  C267     1.0000 0.25801  0.70800  0.04642  Biso   1.000  C
  C268     1.0000 0.24309  0.67701  0.04622  Biso   1.000  C
  H457     1.0000 0.25390  0.60990  0.99449  Biso   1.000  H
  C269     1.0000 0.29658  0.69323  0.93122  Biso   1.000  C
  C270     1.0000 0.26960  0.66261  0.92452  Biso   1.000  C
  H458     1.0000 0.25031  0.57839  0.99621  Biso   1.000  H
  H459     1.0000 0.79190  0.28571  0.03712  Biso   1.000  H
  H460     1.0000 0.71751  0.24849  0.03660  Biso   1.000  H
  H461     1.0000 0.73560  0.30469  0.09529  Biso   1.000  H
  H462     1.0000 0.74563  0.33630  0.09409  Biso   1.000  H
  H463     1.0000 0.80739  0.32210  0.04029  Biso   1.000  H
  H464     1.0000 0.73789  0.27672  0.03649  Biso   1.000  H
  H465     1.0000 0.74839  0.28863  0.91583  Biso   1.000  H
  H466     1.0000 0.68393  0.33692  0.89509  Biso   1.000  H
  H467     1.0000 0.67150  0.26809  0.94011  Biso   1.000  H
  H468     1.0000 0.69921  0.35959  0.89099  Biso   1.000  H
  H469     1.0000 0.77833  0.33999  0.90741  Biso   1.000  H
  H470     1.0000 0.71709  0.28863  0.93049  Biso   1.000  H
  N21      1.0000 0.21351  0.54642  0.44271  Biso   1.000  N
  H471     1.0000 0.15190  0.57158  0.52521  Biso   1.000  H
  C271     1.0000 0.08812  0.55329  0.43949  Biso   1.000  C
  H472     1.0000 0.09082  0.47681  0.60220  Biso   1.000  H
  H473     1.0000 0.04538  0.45950  0.53488  Biso   1.000  H
  C272     1.0000 0.08183  0.37232  0.58401  Biso   1.000  C
  N22      1.0000 0.54642  0.55729  0.78649  Biso   1.000  N
  H474     1.0000 0.57158  0.47479  0.84810  Biso   1.000  H
  C273     1.0000 0.55329  0.56051  0.91188  Biso   1.000  C
  H475     1.0000 0.47681  0.39780  0.90923  Biso   1.000  H
  H476     1.0000 0.45950  0.46512  0.95462  Biso   1.000  H
  C274     1.0000 0.37232  0.41599  0.91823  Biso   1.000  C
  C275     1.0000 0.56940  0.64301  0.66708  Biso   1.000  C
  C276     1.0000 0.54299  0.74652  0.59461  Biso   1.000  C
  C277     1.0000 0.59461  0.54299  0.74652  Biso   1.000  C
  H477     1.0000 0.96293  0.79190  0.71429  Biso   1.000  H
  H478     1.0000 0.96340  0.71751  0.75151  Biso   1.000  H
  H479     1.0000 0.90471  0.73560  0.69531  Biso   1.000  H
  H480     1.0000 0.90591  0.74563  0.66370  Biso   1.000  H
  H481     1.0000 0.95971  0.80739  0.67790  Biso   1.000  H
  H482     1.0000 0.96351  0.73789  0.72333  Biso   1.000  H
  H483     1.0000 0.08422  0.74839  0.71143  Biso   1.000  H
  H484     1.0000 0.10491  0.68393  0.66313  Biso   1.000  H
  H485     1.0000 0.05989  0.67150  0.73191  Biso   1.000  H
  H486     1.0000 0.10901  0.69921  0.64041  Biso   1.000  H
  H487     1.0000 0.09259  0.77833  0.66001  Biso   1.000  H
  H488     1.0000 0.06951  0.71709  0.71143  Biso   1.000  H
  C278     1.0000 0.35699  0.66708  0.43060  Biso   1.000  C
  C279     1.0000 0.45701  0.74652  0.40539  Biso   1.000  C
  C280     1.0000 0.25348  0.59461  0.45701  Biso   1.000  C
  H489     1.0000 0.20810  0.71429  0.03712  Biso   1.000  H
  H490     1.0000 0.28249  0.75151  0.03660  Biso   1.000  H
  H491     1.0000 0.26440  0.69531  0.09529  Biso   1.000  H
  H492     1.0000 0.25442  0.66370  0.09409  Biso   1.000  H
  H493     1.0000 0.19261  0.67790  0.04029  Biso   1.000  H
  H494     1.0000 0.26211  0.72333  0.03649  Biso   1.000  H
  H495     1.0000 0.25161  0.71143  0.91583  Biso   1.000  H
  H496     1.0000 0.31613  0.66313  0.89509  Biso   1.000  H
  H497     1.0000 0.32850  0.73191  0.94011  Biso   1.000  H
  H498     1.0000 0.30079  0.64041  0.89099  Biso   1.000  H
  H499     1.0000 0.22172  0.66001  0.90741  Biso   1.000  H
  H500     1.0000 0.28291  0.71143  0.93049  Biso   1.000  H
  H501     1.0000 0.09082  0.52319  0.39780  Biso   1.000  H
  H502     1.0000 0.04538  0.54050  0.46512  Biso   1.000  H
  C281     1.0000 0.08183  0.62773  0.41599  Biso   1.000  C
  H503     1.0000 0.12352  0.35933  0.61109  Biso   1.000  H
  H504     1.0000 0.07928  0.34160  0.54278  Biso   1.000  H
  C282     1.0000 0.01721  0.36208  0.62841  Biso   1.000  C
  C283     1.0000 0.01102  0.35460  0.61780  Biso   1.000  C
  H505     1.0000 0.11931  0.36239  0.61780  Biso   1.000  H
  H506     1.0000 0.08890  0.34150  0.54330  Biso   1.000  H
  H507     1.0000 0.52319  0.60220  0.90923  Biso   1.000  H
  H508     1.0000 0.54050  0.53488  0.95462  Biso   1.000  H
  C284     1.0000 0.62773  0.58401  0.91823  Biso   1.000  C
  H509     1.0000 0.35933  0.38891  0.87653  Biso   1.000  H
  H510     1.0000 0.34160  0.45722  0.92072  Biso   1.000  H
  C285     1.0000 0.36208  0.37159  0.98279  Biso   1.000  C
  C286     1.0000 0.35460  0.38220  0.98903  Biso   1.000  C
  H511     1.0000 0.36239  0.38220  0.88069  Biso   1.000  H
  H512     1.0000 0.34150  0.45670  0.91110  Biso   1.000  H
  H513     1.0000 0.52979  0.65393  0.69458  Biso   1.000  H
  N23      1.0000 0.55729  0.78649  0.54642  Biso   1.000  N
  H514     1.0000 0.50343  0.75593  0.62243  Biso   1.000  H
  H515     1.0000 0.62243  0.50343  0.75593  Biso   1.000  H
  H516     1.0000 0.34612  0.69458  0.47021  Biso   1.000  H
  N24      1.0000 0.44271  0.78649  0.45363  Biso   1.000  N
  H517     1.0000 0.49662  0.75593  0.37763  Biso   1.000  H
  H518     1.0000 0.24413  0.62243  0.49662  Biso   1.000  H
  H519     1.0000 0.12352  0.64073  0.38891  Biso   1.000  H
  H520     1.0000 0.07928  0.65840  0.45722  Biso   1.000  H
  C287     1.0000 0.01721  0.63792  0.37159  Biso   1.000  C
  C288     1.0000 0.01102  0.64540  0.38220  Biso   1.000  C
  H521     1.0000 0.11931  0.63761  0.38220  Biso   1.000  H
  H522     1.0000 0.08890  0.65850  0.45670  Biso   1.000  H
  H523     1.0000 0.02251  0.39021  0.67119  Biso   1.000  H
  H524     1.0000 0.00941  0.37549  0.66480  Biso   1.000  H
  H525     1.0000 0.97681  0.38090  0.60262  Biso   1.000  H
  C289     1.0000 0.99990  0.28639  0.65008  Biso   1.000  C
  C290     1.0000 0.99589  0.27490  0.62419  Biso   1.000  C
  H526     1.0000 0.97349  0.37622  0.58988  Biso   1.000  H
  H527     1.0000 0.64073  0.61109  0.87653  Biso   1.000  H
  H528     1.0000 0.65840  0.54278  0.92072  Biso   1.000  H
  C291     1.0000 0.63792  0.62841  0.98279  Biso   1.000  C
  C292     1.0000 0.64540  0.61780  0.98903  Biso   1.000  C
  H529     1.0000 0.63761  0.61780  0.88069  Biso   1.000  H
  H530     1.0000 0.65850  0.54330  0.91110  Biso   1.000  H
  H531     1.0000 0.39021  0.32881  0.97749  Biso   1.000  H
  H532     1.0000 0.37549  0.33520  0.99059  Biso   1.000  H
  H533     1.0000 0.38090  0.39738  0.02319  Biso   1.000  H
  C293     1.0000 0.28639  0.34992  0.00010  Biso   1.000  C
  C294     1.0000 0.27490  0.37581  0.00411  Biso   1.000  C
  H534     1.0000 0.37622  0.41012  0.02651  Biso   1.000  H
  C295     1.0000 0.51440  0.84929  0.53800  Biso   1.000  C
  C296     1.0000 0.48560  0.84929  0.46200  Biso   1.000  C
  H535     1.0000 0.02251  0.60979  0.32881  Biso   1.000  H
  H536     1.0000 0.00941  0.62451  0.33520  Biso   1.000  H
  H537     1.0000 0.97681  0.61910  0.39738  Biso   1.000  H
  C297     1.0000 0.99990  0.71361  0.34992  Biso   1.000  C
  C298     1.0000 0.99589  0.72510  0.37581  Biso   1.000  C
  H538     1.0000 0.97349  0.62383  0.41012  Biso   1.000  H
  C299     1.0000 0.04642  0.25801  0.70800  Biso   1.000  C
  C300     1.0000 0.04622  0.24309  0.67701  Biso   1.000  C
  H539     1.0000 0.99449  0.25390  0.60990  Biso   1.000  H
  C301     1.0000 0.93122  0.29658  0.69323  Biso   1.000  C
  C302     1.0000 0.92452  0.26960  0.66261  Biso   1.000  C
  H540     1.0000 0.99621  0.25031  0.57839  Biso   1.000  H
  H541     1.0000 0.60979  0.67119  0.97749  Biso   1.000  H
  H542     1.0000 0.62451  0.66480  0.99059  Biso   1.000  H
  H543     1.0000 0.61910  0.60262  0.02319  Biso   1.000  H
  C303     1.0000 0.71361  0.65008  0.00010  Biso   1.000  C
  C304     1.0000 0.72510  0.62419  0.00411  Biso   1.000  C
  H544     1.0000 0.62383  0.58988  0.02651  Biso   1.000  H
  C305     1.0000 0.25801  0.29200  0.95363  Biso   1.000  C
  C306     1.0000 0.24309  0.32299  0.95378  Biso   1.000  C
  H545     1.0000 0.25390  0.39010  0.00551  Biso   1.000  H
  C307     1.0000 0.29658  0.30682  0.06878  Biso   1.000  C
  C308     1.0000 0.26960  0.33739  0.07548  Biso   1.000  C
  H546     1.0000 0.25031  0.42161  0.00379  Biso   1.000  H
  H547     1.0000 0.47479  0.84810  0.57158  Biso   1.000  H
  C309     1.0000 0.56051  0.91188  0.55329  Biso   1.000  C
  H548     1.0000 0.52521  0.84810  0.42842  Biso   1.000  H
  C310     1.0000 0.43949  0.91188  0.44671  Biso   1.000  C
  C311     1.0000 0.04642  0.74199  0.29200  Biso   1.000  C
  C312     1.0000 0.04622  0.75691  0.32299  Biso   1.000  C
  H549     1.0000 0.99449  0.74610  0.39010  Biso   1.000  H
  C313     1.0000 0.93122  0.70342  0.30682  Biso   1.000  C
  C314     1.0000 0.92452  0.73040  0.33739  Biso   1.000  C
  H550     1.0000 0.99621  0.74969  0.42161  Biso   1.000  H
  H551     1.0000 0.03712  0.20810  0.71429  Biso   1.000  H
  H552     1.0000 0.03660  0.28249  0.75151  Biso   1.000  H
  H553     1.0000 0.09529  0.26440  0.69531  Biso   1.000  H
  H554     1.0000 0.09409  0.25442  0.66370  Biso   1.000  H
  H555     1.0000 0.04029  0.19261  0.67790  Biso   1.000  H
  H556     1.0000 0.03649  0.26211  0.72333  Biso   1.000  H
  H557     1.0000 0.91583  0.25161  0.71143  Biso   1.000  H
  H558     1.0000 0.89509  0.31613  0.66313  Biso   1.000  H
  H559     1.0000 0.94011  0.32850  0.73191  Biso   1.000  H
  H560     1.0000 0.89099  0.30079  0.64041  Biso   1.000  H
  H561     1.0000 0.90741  0.22172  0.66001  Biso   1.000  H
  H562     1.0000 0.93049  0.28291  0.71143  Biso   1.000  H
  C315     1.0000 0.74199  0.70800  0.95363  Biso   1.000  C
  C316     1.0000 0.75691  0.67701  0.95378  Biso   1.000  C
  H563     1.0000 0.74610  0.60990  0.00551  Biso   1.000  H
  C317     1.0000 0.70342  0.69323  0.06878  Biso   1.000  C
  C318     1.0000 0.73040  0.66261  0.07548  Biso   1.000  C
  H564     1.0000 0.74969  0.57839  0.00379  Biso   1.000  H
  H565     1.0000 0.20810  0.28571  0.96293  Biso   1.000  H
  H566     1.0000 0.28249  0.24849  0.96340  Biso   1.000  H
  H567     1.0000 0.26440  0.30469  0.90471  Biso   1.000  H
  H568     1.0000 0.25442  0.33630  0.90591  Biso   1.000  H
  H569     1.0000 0.19261  0.32210  0.95971  Biso   1.000  H
  H570     1.0000 0.26211  0.27672  0.96351  Biso   1.000  H
  H571     1.0000 0.25161  0.28863  0.08422  Biso   1.000  H
  H572     1.0000 0.31613  0.33692  0.10491  Biso   1.000  H
  H573     1.0000 0.32850  0.26809  0.05989  Biso   1.000  H
  H574     1.0000 0.30079  0.35959  0.10901  Biso   1.000  H
  H575     1.0000 0.22172  0.33999  0.09259  Biso   1.000  H
  H576     1.0000 0.28291  0.28863  0.06951  Biso   1.000  H
  H577     1.0000 0.60220  0.90923  0.52319  Biso   1.000  H
  H578     1.0000 0.53488  0.95462  0.54050  Biso   1.000  H
  C319     1.0000 0.58401  0.91823  0.62773  Biso   1.000  C
  H579     1.0000 0.39780  0.90923  0.47681  Biso   1.000  H
  H580     1.0000 0.46512  0.95462  0.45950  Biso   1.000  H
  C320     1.0000 0.41599  0.91823  0.37232  Biso   1.000  C
  H581     1.0000 0.03712  0.79190  0.28571  Biso   1.000  H
  H582     1.0000 0.03660  0.71751  0.24849  Biso   1.000  H
  H583     1.0000 0.09529  0.73560  0.30469  Biso   1.000  H
  H584     1.0000 0.09409  0.74563  0.33630  Biso   1.000  H
  H585     1.0000 0.04029  0.80739  0.32210  Biso   1.000  H
  H586     1.0000 0.03649  0.73789  0.27672  Biso   1.000  H
  H587     1.0000 0.91583  0.74839  0.28863  Biso   1.000  H
  H588     1.0000 0.89509  0.68393  0.33692  Biso   1.000  H
  H589     1.0000 0.94011  0.67150  0.26809  Biso   1.000  H
  H590     1.0000 0.89099  0.69921  0.35959  Biso   1.000  H
  H591     1.0000 0.90741  0.77833  0.33999  Biso   1.000  H
  H592     1.0000 0.93049  0.71709  0.28863  Biso   1.000  H
  H593     1.0000 0.79190  0.71429  0.96293  Biso   1.000  H
  H594     1.0000 0.71751  0.75151  0.96340  Biso   1.000  H
  H595     1.0000 0.73560  0.69531  0.90471  Biso   1.000  H
  H596     1.0000 0.74563  0.66370  0.90591  Biso   1.000  H
  H597     1.0000 0.80739  0.67790  0.95971  Biso   1.000  H
  H598     1.0000 0.73789  0.72333  0.96351  Biso   1.000  H
  H599     1.0000 0.74839  0.71143  0.08422  Biso   1.000  H
  H600     1.0000 0.68393  0.66313  0.10491  Biso   1.000  H
  H601     1.0000 0.67150  0.73191  0.05989  Biso   1.000  H
  H602     1.0000 0.69921  0.64041  0.10901  Biso   1.000  H
  H603     1.0000 0.77833  0.66001  0.09259  Biso   1.000  H
  H604     1.0000 0.71709  0.71143  0.06951  Biso   1.000  H
  H605     1.0000 0.61109  0.87653  0.64073  Biso   1.000  H
  H606     1.0000 0.54278  0.92072  0.65840  Biso   1.000  H
  C321     1.0000 0.62841  0.98279  0.63792  Biso   1.000  C
  C322     1.0000 0.61780  0.98903  0.64540  Biso   1.000  C
  H607     1.0000 0.61780  0.88069  0.63761  Biso   1.000  H
  H608     1.0000 0.54330  0.91110  0.65850  Biso   1.000  H
  H609     1.0000 0.38891  0.87653  0.35933  Biso   1.000  H
  H610     1.0000 0.45722  0.92072  0.34160  Biso   1.000  H
  C323     1.0000 0.37159  0.98279  0.36208  Biso   1.000  C
  C324     1.0000 0.38220  0.98903  0.35460  Biso   1.000  C
  H611     1.0000 0.38220  0.88069  0.36239  Biso   1.000  H
  H612     1.0000 0.45670  0.91110  0.34150  Biso   1.000  H
  H613     1.0000 0.67119  0.97749  0.60979  Biso   1.000  H
  H614     1.0000 0.66480  0.99059  0.62451  Biso   1.000  H
  H615     1.0000 0.60262  0.02319  0.61910  Biso   1.000  H
  C325     1.0000 0.65008  0.00010  0.71361  Biso   1.000  C
  C326     1.0000 0.62419  0.00411  0.72510  Biso   1.000  C
  H616     1.0000 0.58988  0.02651  0.62383  Biso   1.000  H
  H617     1.0000 0.32881  0.97749  0.39021  Biso   1.000  H
  H618     1.0000 0.33520  0.99059  0.37549  Biso   1.000  H
  H619     1.0000 0.39738  0.02319  0.38090  Biso   1.000  H
  C327     1.0000 0.34992  0.00010  0.28639  Biso   1.000  C
  C328     1.0000 0.37581  0.00411  0.27490  Biso   1.000  C
  H620     1.0000 0.41012  0.02651  0.37622  Biso   1.000  H
  C329     1.0000 0.70800  0.95363  0.74199  Biso   1.000  C
  C330     1.0000 0.67701  0.95378  0.75691  Biso   1.000  C
  H621     1.0000 0.60990  0.00551  0.74610  Biso   1.000  H
  C331     1.0000 0.69323  0.06878  0.70342  Biso   1.000  C
  C332     1.0000 0.66261  0.07548  0.73040  Biso   1.000  C
  H622     1.0000 0.57839  0.00379  0.74969  Biso   1.000  H
  C333     1.0000 0.29200  0.95363  0.25801  Biso   1.000  C
  C334     1.0000 0.32299  0.95378  0.24309  Biso   1.000  C
  H623     1.0000 0.39010  0.00551  0.25390  Biso   1.000  H
  C335     1.0000 0.30682  0.06878  0.29658  Biso   1.000  C
  C336     1.0000 0.33739  0.07548  0.26960  Biso   1.000  C
  H624     1.0000 0.42161  0.00379  0.25031  Biso   1.000  H
  H625     1.0000 0.71429  0.96293  0.79190  Biso   1.000  H
  H626     1.0000 0.75151  0.96340  0.71751  Biso   1.000  H
  H627     1.0000 0.69531  0.90471  0.73560  Biso   1.000  H
  H628     1.0000 0.66370  0.90591  0.74563  Biso   1.000  H
  H629     1.0000 0.67790  0.95971  0.80739  Biso   1.000  H
  H630     1.0000 0.72333  0.96351  0.73789  Biso   1.000  H
  H631     1.0000 0.71143  0.08422  0.74839  Biso   1.000  H
  H632     1.0000 0.66313  0.10491  0.68393  Biso   1.000  H
  H633     1.0000 0.73191  0.05989  0.67150  Biso   1.000  H
  H634     1.0000 0.64041  0.10901  0.69921  Biso   1.000  H
  H635     1.0000 0.66001  0.09259  0.77833  Biso   1.000  H
  H636     1.0000 0.71143  0.06951  0.71709  Biso   1.000  H
  H637     1.0000 0.28571  0.96293  0.20810  Biso   1.000  H
  H638     1.0000 0.24849  0.96340  0.28249  Biso   1.000  H
  H639     1.0000 0.30469  0.90471  0.26440  Biso   1.000  H
  H640     1.0000 0.33630  0.90591  0.25442  Biso   1.000  H
  H641     1.0000 0.32210  0.95971  0.19261  Biso   1.000  H
  H642     1.0000 0.27672  0.96351  0.26211  Biso   1.000  H
  H643     1.0000 0.28863  0.08422  0.25161  Biso   1.000  H
  H644     1.0000 0.33692  0.10491  0.31613  Biso   1.000  H
  H645     1.0000 0.26809  0.05989  0.32850  Biso   1.000  H
  H646     1.0000 0.35959  0.10901  0.30079  Biso   1.000  H
  H647     1.0000 0.33999  0.09259  0.22172  Biso   1.000  H
  H648     1.0000 0.28863  0.06951  0.28291  Biso   1.000  H
  Ne1      1.0000 0.00000  0.00000  0.00000  Biso   1.000  Ne
  He1      1.0000 0.91866  0.08133  0.08133  Biso   1.000  He
  He2      1.0000 0.08394  0.91606  0.08394  Biso   1.000  He
  He3      1.0000 0.91950  0.91950  0.91950  Biso   1.000  He
  He4      1.0000 0.08548  0.08548  0.91452  Biso   1.000  He
  Ar1      1.0000 0.99999  0.99999  0.99999  Biso   1.000  Ar
  Ne2      1.0000 0.50000  0.50000  0.50000  Biso   1.000  Ne
  He5      1.0000 0.41866  0.58133  0.58133  Biso   1.000  He
  He6      1.0000 0.58394  0.41606  0.58394  Biso   1.000  He
  He7      1.0000 0.41950  0.41950  0.41950  Biso   1.000  He
  He8      1.0000 0.58548  0.58548  0.41452  Biso   1.000  He
  Ar2      1.0000 0.50000  0.50000  0.50000  Biso   1.000  Ar
