data_image0
_cell_length_a       17.02
_cell_length_b       22.755
_cell_length_c       22.411
_cell_angle_alpha    90
_cell_angle_beta     90
_cell_angle_gamma    90

_symmetry_space_group_name_H-M    "P 1"
_symmetry_int_tables_number       1

loop_
  _symmetry_equiv_pos_as_xyz
  'x, y, z'

loop_
  _atom_site_label
  _atom_site_occupancy
  _atom_site_fract_x
  _atom_site_fract_y
  _atom_site_fract_z
  _atom_site_thermal_displace_type
  _atom_site_B_iso_or_equiv
  _atom_site_type_symbol
  C1       1.0000 0.68249  0.49629  0.40212  Biso   1.000  C
  C2       1.0000 0.74201  0.47330  0.35121  Biso   1.000  C
  C3       1.0000 0.72497  0.52388  0.39342  Biso   1.000  C
  H1       1.0000 0.73749  0.51241  0.43349  Biso   1.000  H
  H2       1.0000 0.67027  0.53408  0.39101  Biso   1.000  H
  H3       1.0000 0.70752  0.52661  0.42510  Biso   1.000  H
  H4       1.0000 0.66857  0.46421  0.42791  Biso   1.000  H
  H5       1.0000 0.63590  0.51171  0.38370  Biso   1.000  H
  C4       1.0000 0.72139  0.48468  0.28709  Biso   1.000  C
  N1       1.0000 0.78637  0.43129  0.36201  Biso   1.000  N
  H6       1.0000 0.75640  0.55720  0.38240  Biso   1.000  H
  C5       1.0000 0.75329  0.44878  0.24220  Biso   1.000  C
  C6       1.0000 0.67051  0.52872  0.27040  Biso   1.000  C
  C7       1.0000 0.81128  0.41468  0.42202  Biso   1.000  C
  C8       1.0000 0.73367  0.45502  0.18321  Biso   1.000  C
  H7       1.0000 0.78907  0.41982  0.25291  Biso   1.000  H
  C9       1.0000 0.64812  0.53689  0.21070  Biso   1.000  C
  H8       1.0000 0.65041  0.55368  0.29950  Biso   1.000  H
  C10      1.0000 0.80347  0.34731  0.43001  Biso   1.000  C
  H9       1.0000 0.77791  0.43459  0.45143  Biso   1.000  H
  C11      1.0000 0.89630  0.43379  0.43090  Biso   1.000  C
  C12      1.0000 0.76569  0.41490  0.13761  Biso   1.000  C
  C13      1.0000 0.68038  0.49971  0.16751  Biso   1.000  C
  C14      1.0000 0.58978  0.58409  0.19589  Biso   1.000  C
  N2       1.0000 0.71898  0.33241  0.42680  Biso   1.000  N
  C15      1.0000 0.83490  0.32859  0.48949  Biso   1.000  C
  H10      1.0000 0.83196  0.32709  0.39811  Biso   1.000  H
  H11      1.0000 0.92867  0.41731  0.39949  Biso   1.000  H
  H12      1.0000 0.89976  0.47629  0.42849  Biso   1.000  H
  C16      1.0000 0.92662  0.41332  0.49132  Biso   1.000  C
  N3       1.0000 0.74571  0.42421  0.08291  Biso   1.000  N
  C17      1.0000 0.83561  0.37952  0.15479  Biso   1.000  C
  C18      1.0000 0.79912  0.35742  0.16122  Biso   1.000  C
  H13      1.0000 0.66651  0.50459  0.12771  Biso   1.000  H
  N4       1.0000 0.58308  0.62571  0.23292  Biso   1.000  N
  C19      1.0000 0.54277  0.57680  0.13980  Biso   1.000  C
  C20      1.0000 0.68872  0.30771  0.38169  Biso   1.000  C
  C21      1.0000 0.92051  0.34841  0.49833  Biso   1.000  C
  H14      1.0000 0.83196  0.28618  0.49270  Biso   1.000  H
  H15      1.0000 0.80259  0.34529  0.52090  Biso   1.000  H
  H16      1.0000 0.98108  0.42509  0.49560  Biso   1.000  H
  H17      1.0000 0.89659  0.43230  0.52260  Biso   1.000  H
  C22      1.0000 0.77092  0.38699  0.03382  Biso   1.000  C
  H18      1.0000 0.87550  0.40501  0.17050  Biso   1.000  H
  H19      1.0000 0.85546  0.35931  0.12039  Biso   1.000  H
  H20      1.0000 0.82092  0.35131  0.18469  Biso   1.000  H
  H21      1.0000 0.82150  0.36379  0.19999  Biso   1.000  H
  H22      1.0000 0.83901  0.34340  0.13449  Biso   1.000  H
  H23      1.0000 0.75781  0.32881  0.16412  Biso   1.000  H
  C23      1.0000 0.53061  0.67502  0.22391  Biso   1.000  C
  H24      1.0000 0.57550  0.58501  0.10589  Biso   1.000  H
  H25      1.0000 0.49918  0.60352  0.14029  Biso   1.000  H
  H26      1.0000 0.52368  0.53720  0.13739  Biso   1.000  H
  C24      1.0000 0.60159  0.29532  0.38472  Biso   1.000  C
  C25      1.0000 0.72979  0.29031  0.32529  Biso   1.000  C
  H27      1.0000 0.93837  0.33720  0.53773  Biso   1.000  H
  H28      1.0000 0.95388  0.32920  0.46910  Biso   1.000  H
  C26      1.0000 0.70188  0.37601  0.99304  Biso   1.000  C
  H29      1.0000 0.78919  0.34929  0.04989  Biso   1.000  H
  C27      1.0000 0.83778  0.41591  0.99982  Biso   1.000  C
  C28      1.0000 0.46939  0.67502  0.27611  Biso   1.000  C
  H30      1.0000 0.50282  0.66992  0.18602  Biso   1.000  H
  C29      1.0000 0.57697  0.73109  0.22172  Biso   1.000  C
  C30      1.0000 0.56898  0.24742  0.35532  Biso   1.000  C
  C31      1.0000 0.55388  0.33250  0.41672  Biso   1.000  C
  H31      1.0000 0.76369  0.32169  0.31261  Biso   1.000  H
  H32      1.0000 0.69148  0.28262  0.29481  Biso   1.000  H
  H33      1.0000 0.76040  0.25559  0.33229  Biso   1.000  H
  N5       1.0000 0.64371  0.34129  0.02561  Biso   1.000  N
  H34      1.0000 0.67867  0.41358  0.98090  Biso   1.000  H
  C32      1.0000 0.72791  0.34221  0.93793  Biso   1.000  C
  H35      1.0000 0.88231  0.42079  0.02642  Biso   1.000  H
  C33      1.0000 0.86357  0.38009  0.94552  Biso   1.000  C
  H36      1.0000 0.82121  0.45458  0.98670  Biso   1.000  H
  N6       1.0000 0.41692  0.62571  0.26710  Biso   1.000  N
  H37      1.0000 0.49718  0.66992  0.31400  Biso   1.000  H
  C34      1.0000 0.42297  0.73109  0.27830  Biso   1.000  C
  H38      1.0000 0.60770  0.73171  0.18522  Biso   1.000  H
  H39      1.0000 0.61340  0.73180  0.25501  Biso   1.000  H
  C35      1.0000 0.52638  0.78611  0.22400  Biso   1.000  C
  C36      1.0000 0.48801  0.23630  0.35920  Biso   1.000  C
  H40      1.0000 0.60088  0.22250  0.33301  Biso   1.000  H
  C37      1.0000 0.47321  0.32279  0.42171  Biso   1.000  C
  H41      1.0000 0.57597  0.36502  0.43541  Biso   1.000  H
  C38      1.0000 0.57891  0.36260  0.04359  Biso   1.000  C
  H42      1.0000 0.74571  0.30341  0.94980  Biso   1.000  H
  H43      1.0000 0.68331  0.33720  0.91152  Biso   1.000  H
  C39      1.0000 0.79230  0.37231  0.90482  Biso   1.000  C
  H44      1.0000 0.90517  0.40048  0.92441  Biso   1.000  H
  H45      1.0000 0.88331  0.34208  0.95810  Biso   1.000  H
  C40      1.0000 0.41022  0.58409  0.30409  Biso   1.000  C
  H46      1.0000 0.39230  0.73171  0.31480  Biso   1.000  H
  H47      1.0000 0.38660  0.73180  0.24501  Biso   1.000  H
  C41      1.0000 0.47362  0.78611  0.27603  Biso   1.000  C
  H48      1.0000 0.56011  0.82039  0.22569  Biso   1.000  H
  H49      1.0000 0.49542  0.78862  0.18781  Biso   1.000  H
  C42      1.0000 0.45617  0.18370  0.32779  Biso   1.000  C
  C43      1.0000 0.44242  0.27440  0.39271  Biso   1.000  C
  C44      1.0000 0.42109  0.36260  0.45643  Biso   1.000  C
  C45      1.0000 0.52679  0.32279  0.07831  Biso   1.000  C
  C46      1.0000 0.55147  0.42540  0.03521  Biso   1.000  C
  H50      1.0000 0.77427  0.41028  0.89090  Biso   1.000  H
  H51      1.0000 0.80699  0.34911  0.87020  Biso   1.000  H
  C47      1.0000 0.35188  0.53689  0.28932  Biso   1.000  C
  C48      1.0000 0.45717  0.57680  0.36022  Biso   1.000  C
  H52      1.0000 0.43989  0.82039  0.27428  Biso   1.000  H
  H53      1.0000 0.50458  0.78862  0.31221  Biso   1.000  H
  N7       1.0000 0.50382  0.14379  0.31279  Biso   1.000  N
  C49      1.0000 0.36821  0.18431  0.31551  Biso   1.000  C
  H54      1.0000 0.38878  0.26711  0.39592  Biso   1.000  H
  N8       1.0000 0.35629  0.34129  0.47441  Biso   1.000  N
  C50      1.0000 0.44847  0.42540  0.46482  Biso   1.000  C
  C51      1.0000 0.44612  0.33250  0.08331  Biso   1.000  C
  C52      1.0000 0.55758  0.27440  0.10731  Biso   1.000  C
  H55      1.0000 0.51651  0.42738  0.00170  Biso   1.000  H
  H56      1.0000 0.59612  0.45032  0.02820  Biso   1.000  H
  H57      1.0000 0.52462  0.43832  0.07050  Biso   1.000  H
  C53      1.0000 0.32949  0.52872  0.22962  Biso   1.000  C
  C54      1.0000 0.31962  0.49971  0.33252  Biso   1.000  C
  H58      1.0000 0.42450  0.58501  0.39409  Biso   1.000  H
  H59      1.0000 0.50082  0.60352  0.35969  Biso   1.000  H
  H60      1.0000 0.47632  0.53720  0.36259  Biso   1.000  H
  C55      1.0000 0.47949  0.09172  0.28031  Biso   1.000  C
  H61      1.0000 0.34260  0.15619  0.34090  Biso   1.000  H
  H62      1.0000 0.35887  0.17420  0.27451  Biso   1.000  H
  H63      1.0000 0.34771  0.22281  0.32341  Biso   1.000  H
  C56      1.0000 0.29812  0.37601  0.50703  Biso   1.000  C
  H64      1.0000 0.48349  0.42738  0.49833  Biso   1.000  H
  H65      1.0000 0.40388  0.45032  0.47182  Biso   1.000  H
  H66      1.0000 0.47538  0.43832  0.42952  Biso   1.000  H
  C57      1.0000 0.39841  0.29532  0.11530  Biso   1.000  C
  H67      1.0000 0.42397  0.36502  0.06461  Biso   1.000  H
  C58      1.0000 0.51199  0.23630  0.14082  Biso   1.000  C
  H68      1.0000 0.61122  0.26711  0.10410  Biso   1.000  H
  C59      1.0000 0.27861  0.48468  0.21289  Biso   1.000  C
  H69      1.0000 0.34959  0.55368  0.20048  Biso   1.000  H
  C60      1.0000 0.26627  0.45502  0.31681  Biso   1.000  C
  H70      1.0000 0.33349  0.50459  0.37232  Biso   1.000  H
  C61      1.0000 0.52051  0.09172  0.21971  Biso   1.000  C
  H71      1.0000 0.42239  0.09189  0.27491  Biso   1.000  H
  C62      1.0000 0.50447  0.03652  0.31489  Biso   1.000  C
  C63      1.0000 0.22908  0.38699  0.46620  Biso   1.000  C
  H72      1.0000 0.32127  0.41358  0.51912  Biso   1.000  H
  C64      1.0000 0.27209  0.34221  0.56209  Biso   1.000  C
  C65      1.0000 0.31128  0.30771  0.11829  Biso   1.000  C
  C66      1.0000 0.43102  0.24742  0.14471  Biso   1.000  C
  C67      1.0000 0.54377  0.18370  0.17219  Biso   1.000  C
  C68      1.0000 0.25799  0.47330  0.14881  Biso   1.000  C
  C69      1.0000 0.24671  0.44878  0.25782  Biso   1.000  C
  C70      1.0000 0.23431  0.41490  0.36241  Biso   1.000  C
  N9       1.0000 0.49618  0.14379  0.18718  Biso   1.000  N
  H73      1.0000 0.57761  0.09189  0.22511  Biso   1.000  H
  C71      1.0000 0.49548  0.03652  0.18509  Biso   1.000  C
  H74      1.0000 0.56087  0.03718  0.32109  Biso   1.000  H
  H75      1.0000 0.47932  0.03639  0.35371  Biso   1.000  H
  C72      1.0000 0.48237  0.98128  0.28151  Biso   1.000  C
  N10      1.0000 0.25429  0.42421  0.41712  Biso   1.000  N
  C73      1.0000 0.16222  0.41591  0.50020  Biso   1.000  C
  H76      1.0000 0.21081  0.34929  0.45009  Biso   1.000  H
  H77      1.0000 0.25429  0.30341  0.55022  Biso   1.000  H
  H78      1.0000 0.31669  0.33720  0.58851  Biso   1.000  H
  C74      1.0000 0.20770  0.37231  0.59520  Biso   1.000  C
  C75      1.0000 0.27021  0.29031  0.17469  Biso   1.000  C
  N11      1.0000 0.28102  0.33241  0.07322  Biso   1.000  N
  H79      1.0000 0.39912  0.22250  0.16702  Biso   1.000  H
  C76      1.0000 0.63179  0.18431  0.18451  Biso   1.000  C
  N12      1.0000 0.21357  0.43129  0.13801  Biso   1.000  N
  C77      1.0000 0.27497  0.52388  0.10660  Biso   1.000  C
  C78      1.0000 0.31751  0.49629  0.09790  Biso   1.000  C
  H80      1.0000 0.21087  0.41982  0.24711  Biso   1.000  H
  C79      1.0000 0.16439  0.37952  0.34519  Biso   1.000  C
  C80      1.0000 0.20088  0.35742  0.33881  Biso   1.000  C
  H81      1.0000 0.43907  0.03718  0.17889  Biso   1.000  H
  H82      1.0000 0.52068  0.03639  0.14631  Biso   1.000  H
  C81      1.0000 0.51757  0.98128  0.21851  Biso   1.000  C
  H83      1.0000 0.42562  0.97851  0.27893  Biso   1.000  H
  H84      1.0000 0.50129  0.94731  0.30329  Biso   1.000  H
  C82      1.0000 0.13643  0.38009  0.55450  Biso   1.000  C
  H85      1.0000 0.11769  0.42079  0.47361  Biso   1.000  H
  H86      1.0000 0.17879  0.45458  0.51332  Biso   1.000  H
  H87      1.0000 0.22568  0.41028  0.60912  Biso   1.000  H
  H88      1.0000 0.19301  0.34911  0.62982  Biso   1.000  H
  H89      1.0000 0.23631  0.32169  0.18741  Biso   1.000  H
  H90      1.0000 0.30852  0.28262  0.20521  Biso   1.000  H
  H91      1.0000 0.23960  0.25559  0.16769  Biso   1.000  H
  C83      1.0000 0.19647  0.34731  0.07001  Biso   1.000  C
  H92      1.0000 0.65740  0.15619  0.15912  Biso   1.000  H
  H93      1.0000 0.64107  0.17420  0.22551  Biso   1.000  H
  H94      1.0000 0.65229  0.22281  0.17661  Biso   1.000  H
  C84      1.0000 0.18872  0.41468  0.07800  Biso   1.000  C
  H95      1.0000 0.26251  0.51241  0.06649  Biso   1.000  H
  H96      1.0000 0.32967  0.53408  0.10901  Biso   1.000  H
  H97      1.0000 0.24360  0.55720  0.11762  Biso   1.000  H
  H98      1.0000 0.29248  0.52661  0.07492  Biso   1.000  H
  H99      1.0000 0.33137  0.46421  0.07211  Biso   1.000  H
  H100     1.0000 0.36410  0.51171  0.11628  Biso   1.000  H
  H101     1.0000 0.12450  0.40501  0.32953  Biso   1.000  H
  H102     1.0000 0.14448  0.35931  0.37959  Biso   1.000  H
  H103     1.0000 0.17908  0.35131  0.31529  Biso   1.000  H
  H104     1.0000 0.17850  0.36379  0.29999  Biso   1.000  H
  H105     1.0000 0.16099  0.34340  0.36549  Biso   1.000  H
  H106     1.0000 0.24219  0.32881  0.33591  Biso   1.000  H
  H107     1.0000 0.57438  0.97851  0.22110  Biso   1.000  H
  H108     1.0000 0.49871  0.94731  0.19669  Biso   1.000  H
  H109     1.0000 0.09477  0.40048  0.57561  Biso   1.000  H
  H110     1.0000 0.11669  0.34208  0.54192  Biso   1.000  H
  C85      1.0000 0.16510  0.32859  0.01049  Biso   1.000  C
  H111     1.0000 0.16798  0.32709  0.10191  Biso   1.000  H
  H112     1.0000 0.22209  0.43459  0.04859  Biso   1.000  H
  C86      1.0000 0.10370  0.43379  0.06912  Biso   1.000  C
  C87      1.0000 0.07949  0.34841  0.00170  Biso   1.000  C
  H113     1.0000 0.16798  0.28618  0.00732  Biso   1.000  H
  H114     1.0000 0.19741  0.34529  0.97912  Biso   1.000  H
  H115     1.0000 0.07133  0.41731  0.10049  Biso   1.000  H
  H116     1.0000 0.10018  0.47629  0.07148  Biso   1.000  H
  C88      1.0000 0.07338  0.41332  0.00870  Biso   1.000  C
  H117     1.0000 0.04612  0.32920  0.03092  Biso   1.000  H
  H118     1.0000 0.06157  0.33720  0.96230  Biso   1.000  H
  H119     1.0000 0.01892  0.42509  0.00442  Biso   1.000  H
  H120     1.0000 0.10341  0.43230  0.97742  Biso   1.000  H
  C89      1.0000 0.68249  0.50371  0.59792  Biso   1.000  C
  C90      1.0000 0.74201  0.52670  0.64883  Biso   1.000  C
  C91      1.0000 0.72497  0.47612  0.60662  Biso   1.000  C
  H121     1.0000 0.73749  0.48759  0.56651  Biso   1.000  H
  H122     1.0000 0.67027  0.46592  0.60903  Biso   1.000  H
  H123     1.0000 0.70752  0.47339  0.57490  Biso   1.000  H
  H124     1.0000 0.66857  0.53579  0.57213  Biso   1.000  H
  H125     1.0000 0.63590  0.48829  0.61630  Biso   1.000  H
  N13      1.0000 0.78637  0.56871  0.63799  Biso   1.000  N
  C92      1.0000 0.72139  0.51532  0.71291  Biso   1.000  C
  H126     1.0000 0.75640  0.44280  0.61760  Biso   1.000  H
  C93      1.0000 0.81128  0.58532  0.57802  Biso   1.000  C
  C94      1.0000 0.67051  0.47128  0.72960  Biso   1.000  C
  C95      1.0000 0.75329  0.55122  0.75780  Biso   1.000  C
  C96      1.0000 0.80347  0.65269  0.56999  Biso   1.000  C
  H127     1.0000 0.77791  0.56541  0.54861  Biso   1.000  H
  C97      1.0000 0.89630  0.56621  0.56910  Biso   1.000  C
  C98      1.0000 0.64812  0.46311  0.78930  Biso   1.000  C
  H128     1.0000 0.65041  0.44632  0.70050  Biso   1.000  H
  C99      1.0000 0.73367  0.54498  0.81683  Biso   1.000  C
  H129     1.0000 0.78907  0.58018  0.74713  Biso   1.000  H
  N14      1.0000 0.71898  0.66759  0.57320  Biso   1.000  N
  C100     1.0000 0.83490  0.67141  0.51051  Biso   1.000  C
  H130     1.0000 0.83196  0.67291  0.60189  Biso   1.000  H
  H131     1.0000 0.92867  0.58269  0.60051  Biso   1.000  H
  H132     1.0000 0.89976  0.52371  0.57151  Biso   1.000  H
  C101     1.0000 0.92662  0.58668  0.50872  Biso   1.000  C
  C102     1.0000 0.58978  0.41591  0.80411  Biso   1.000  C
  C103     1.0000 0.68038  0.50029  0.83249  Biso   1.000  C
  C104     1.0000 0.76569  0.58510  0.86243  Biso   1.000  C
  C105     1.0000 0.68872  0.69229  0.61831  Biso   1.000  C
  C106     1.0000 0.92051  0.65159  0.50172  Biso   1.000  C
  H133     1.0000 0.83196  0.71382  0.50730  Biso   1.000  H
  H134     1.0000 0.80259  0.65471  0.47910  Biso   1.000  H
  H135     1.0000 0.98108  0.57491  0.50440  Biso   1.000  H
  H136     1.0000 0.89659  0.56770  0.47740  Biso   1.000  H
  N15      1.0000 0.58308  0.37429  0.76712  Biso   1.000  N
  C107     1.0000 0.54277  0.42320  0.86020  Biso   1.000  C
  H137     1.0000 0.66651  0.49541  0.87229  Biso   1.000  H
  N16      1.0000 0.74571  0.57579  0.91709  Biso   1.000  N
  C108     1.0000 0.83561  0.62048  0.84521  Biso   1.000  C
  C109     1.0000 0.79912  0.64258  0.83883  Biso   1.000  C
  C110     1.0000 0.60159  0.70468  0.61532  Biso   1.000  C
  C111     1.0000 0.72979  0.70969  0.67471  Biso   1.000  C
  H138     1.0000 0.93837  0.66280  0.46232  Biso   1.000  H
  H139     1.0000 0.95388  0.67080  0.53090  Biso   1.000  H
  C112     1.0000 0.53061  0.32498  0.77609  Biso   1.000  C
  H140     1.0000 0.57550  0.41499  0.89411  Biso   1.000  H
  H141     1.0000 0.49918  0.39648  0.85971  Biso   1.000  H
  H142     1.0000 0.52368  0.46280  0.86261  Biso   1.000  H
  C113     1.0000 0.77092  0.61301  0.96622  Biso   1.000  C
  H143     1.0000 0.87550  0.59499  0.82950  Biso   1.000  H
  H144     1.0000 0.85546  0.64069  0.87961  Biso   1.000  H
  H145     1.0000 0.82092  0.64869  0.81531  Biso   1.000  H
  H146     1.0000 0.82150  0.63621  0.80001  Biso   1.000  H
  H147     1.0000 0.83901  0.65660  0.86551  Biso   1.000  H
  H148     1.0000 0.75781  0.67119  0.83593  Biso   1.000  H
  C114     1.0000 0.55388  0.66750  0.58333  Biso   1.000  C
  C115     1.0000 0.56898  0.75258  0.64473  Biso   1.000  C
  H149     1.0000 0.76369  0.67831  0.68743  Biso   1.000  H
  H150     1.0000 0.69148  0.71738  0.70523  Biso   1.000  H
  H151     1.0000 0.76040  0.74441  0.66771  Biso   1.000  H
  C116     1.0000 0.46939  0.32498  0.72393  Biso   1.000  C
  H152     1.0000 0.50282  0.33008  0.81402  Biso   1.000  H
  C117     1.0000 0.57697  0.26891  0.77832  Biso   1.000  C
  C118     1.0000 0.70188  0.62399  0.00701  Biso   1.000  C
  H153     1.0000 0.78919  0.65071  0.95011  Biso   1.000  H
  C119     1.0000 0.83778  0.58409  0.00018  Biso   1.000  C
  C120     1.0000 0.47321  0.67721  0.57833  Biso   1.000  C
  H154     1.0000 0.57597  0.63498  0.56459  Biso   1.000  H
  C121     1.0000 0.48801  0.76370  0.64080  Biso   1.000  C
  H155     1.0000 0.60088  0.77750  0.66699  Biso   1.000  H
  N17      1.0000 0.41692  0.37429  0.73290  Biso   1.000  N
  H156     1.0000 0.49718  0.33008  0.68600  Biso   1.000  H
  C122     1.0000 0.42297  0.26891  0.72170  Biso   1.000  C
  H157     1.0000 0.60770  0.26829  0.81482  Biso   1.000  H
  H158     1.0000 0.61340  0.26820  0.74499  Biso   1.000  H
  C123     1.0000 0.52638  0.21389  0.77600  Biso   1.000  C
  N18      1.0000 0.64371  0.65871  0.97443  Biso   1.000  N
  H159     1.0000 0.67867  0.58642  0.01910  Biso   1.000  H
  C124     1.0000 0.72791  0.65779  0.06211  Biso   1.000  C
  H160     1.0000 0.88231  0.57921  0.97363  Biso   1.000  H
  C125     1.0000 0.86357  0.61991  0.05448  Biso   1.000  C
  H161     1.0000 0.82121  0.54542  0.01330  Biso   1.000  H
  C126     1.0000 0.42109  0.63740  0.54362  Biso   1.000  C
  C127     1.0000 0.44242  0.72560  0.60729  Biso   1.000  C
  C128     1.0000 0.45617  0.81630  0.67221  Biso   1.000  C
  C129     1.0000 0.41022  0.41591  0.69591  Biso   1.000  C
  H162     1.0000 0.39230  0.26829  0.68520  Biso   1.000  H
  H163     1.0000 0.38660  0.26820  0.75503  Biso   1.000  H
  C130     1.0000 0.47362  0.21389  0.72402  Biso   1.000  C
  H164     1.0000 0.56011  0.17961  0.77431  Biso   1.000  H
  H165     1.0000 0.49542  0.21138  0.81224  Biso   1.000  H
  C131     1.0000 0.57891  0.63740  0.95641  Biso   1.000  C
  H166     1.0000 0.74571  0.69659  0.05020  Biso   1.000  H
  H167     1.0000 0.68331  0.66280  0.08848  Biso   1.000  H
  C132     1.0000 0.79230  0.62769  0.09522  Biso   1.000  C
  H168     1.0000 0.90517  0.59952  0.07559  Biso   1.000  H
  H169     1.0000 0.88331  0.65792  0.04190  Biso   1.000  H
  N19      1.0000 0.35629  0.65871  0.52559  Biso   1.000  N
  C133     1.0000 0.44847  0.57460  0.53523  Biso   1.000  C
  H170     1.0000 0.38878  0.73289  0.60412  Biso   1.000  H
  N20      1.0000 0.50382  0.85621  0.68721  Biso   1.000  N
  C134     1.0000 0.36821  0.81569  0.68453  Biso   1.000  C
  C135     1.0000 0.35188  0.46311  0.71072  Biso   1.000  C
  C136     1.0000 0.45717  0.42320  0.63982  Biso   1.000  C
  H171     1.0000 0.43989  0.17961  0.72572  Biso   1.000  H
  H172     1.0000 0.50458  0.21138  0.68783  Biso   1.000  H
  C137     1.0000 0.52679  0.67721  0.92173  Biso   1.000  C
  C138     1.0000 0.55147  0.57460  0.96484  Biso   1.000  C
  H173     1.0000 0.77427  0.58972  0.10910  Biso   1.000  H
  H174     1.0000 0.80699  0.65089  0.12980  Biso   1.000  H
  C139     1.0000 0.29812  0.62399  0.49302  Biso   1.000  C
  H175     1.0000 0.48349  0.57262  0.50172  Biso   1.000  H
  H176     1.0000 0.40388  0.54968  0.52822  Biso   1.000  H
  H177     1.0000 0.47538  0.56168  0.57052  Biso   1.000  H
  C140     1.0000 0.47949  0.90828  0.71969  Biso   1.000  C
  H178     1.0000 0.34260  0.84381  0.65910  Biso   1.000  H
  H179     1.0000 0.35887  0.82580  0.72549  Biso   1.000  H
  H180     1.0000 0.34771  0.77719  0.67663  Biso   1.000  H
  C141     1.0000 0.31962  0.50029  0.66753  Biso   1.000  C
  C142     1.0000 0.32949  0.47128  0.77043  Biso   1.000  C
  H181     1.0000 0.42450  0.41499  0.60591  Biso   1.000  H
  H182     1.0000 0.50082  0.39648  0.64031  Biso   1.000  H
  H183     1.0000 0.47632  0.46280  0.63741  Biso   1.000  H
  C143     1.0000 0.55758  0.72560  0.89273  Biso   1.000  C
  C144     1.0000 0.44612  0.66750  0.91674  Biso   1.000  C
  H184     1.0000 0.51651  0.57262  0.99830  Biso   1.000  H
  H185     1.0000 0.59612  0.54968  0.97180  Biso   1.000  H
  H186     1.0000 0.52462  0.56168  0.92950  Biso   1.000  H
  C145     1.0000 0.27209  0.65779  0.43791  Biso   1.000  C
  H187     1.0000 0.32127  0.58642  0.48092  Biso   1.000  H
  C146     1.0000 0.22908  0.61301  0.53380  Biso   1.000  C
  C147     1.0000 0.52051  0.90828  0.78033  Biso   1.000  C
  H188     1.0000 0.42239  0.90811  0.72513  Biso   1.000  H
  C148     1.0000 0.50447  0.96348  0.68511  Biso   1.000  C
  C149     1.0000 0.26627  0.54498  0.68319  Biso   1.000  C
  H189     1.0000 0.33349  0.49541  0.62773  Biso   1.000  H
  C150     1.0000 0.27861  0.51532  0.78711  Biso   1.000  C
  H190     1.0000 0.34959  0.44632  0.79952  Biso   1.000  H
  C151     1.0000 0.51199  0.76370  0.85922  Biso   1.000  C
  H191     1.0000 0.61122  0.73289  0.89590  Biso   1.000  H
  C152     1.0000 0.39841  0.70468  0.88470  Biso   1.000  C
  H192     1.0000 0.42397  0.63498  0.93543  Biso   1.000  H
  C153     1.0000 0.20770  0.62769  0.40480  Biso   1.000  C
  H193     1.0000 0.25429  0.69659  0.44982  Biso   1.000  H
  H194     1.0000 0.31669  0.66280  0.41149  Biso   1.000  H
  C154     1.0000 0.16222  0.58409  0.49980  Biso   1.000  C
  N21      1.0000 0.25429  0.57579  0.58293  Biso   1.000  N
  H195     1.0000 0.21081  0.65071  0.54991  Biso   1.000  H
  N22      1.0000 0.49618  0.85621  0.81282  Biso   1.000  N
  H196     1.0000 0.57761  0.90811  0.77493  Biso   1.000  H
  C155     1.0000 0.49548  0.96348  0.81491  Biso   1.000  C
  H197     1.0000 0.56087  0.96282  0.67891  Biso   1.000  H
  H198     1.0000 0.47932  0.96361  0.64629  Biso   1.000  H
  C156     1.0000 0.48237  0.01872  0.71853  Biso   1.000  C
  C157     1.0000 0.23431  0.58510  0.63763  Biso   1.000  C
  C158     1.0000 0.24671  0.55122  0.74222  Biso   1.000  C
  C159     1.0000 0.25799  0.52670  0.85123  Biso   1.000  C
  C160     1.0000 0.54377  0.81630  0.82781  Biso   1.000  C
  C161     1.0000 0.43102  0.75258  0.85529  Biso   1.000  C
  C162     1.0000 0.31128  0.69229  0.88171  Biso   1.000  C
  H199     1.0000 0.22568  0.58972  0.39092  Biso   1.000  H
  H200     1.0000 0.19301  0.65089  0.37022  Biso   1.000  H
  C163     1.0000 0.13643  0.61991  0.44550  Biso   1.000  C
  H201     1.0000 0.11769  0.57921  0.52639  Biso   1.000  H
  H202     1.0000 0.17879  0.54542  0.48673  Biso   1.000  H
  H203     1.0000 0.43907  0.96282  0.82111  Biso   1.000  H
  H204     1.0000 0.52068  0.96361  0.85373  Biso   1.000  H
  C164     1.0000 0.51757  0.01872  0.78154  Biso   1.000  C
  H205     1.0000 0.42562  0.02149  0.72112  Biso   1.000  H
  H206     1.0000 0.50129  0.05269  0.69671  Biso   1.000  H
  C165     1.0000 0.16439  0.62048  0.65481  Biso   1.000  C
  C166     1.0000 0.20088  0.64258  0.66119  Biso   1.000  C
  H207     1.0000 0.21087  0.58018  0.75293  Biso   1.000  H
  N23      1.0000 0.21357  0.56871  0.86203  Biso   1.000  N
  C167     1.0000 0.27497  0.47612  0.89340  Biso   1.000  C
  C168     1.0000 0.31751  0.50371  0.90210  Biso   1.000  C
  C169     1.0000 0.63179  0.81569  0.81549  Biso   1.000  C
  H208     1.0000 0.39912  0.77750  0.83303  Biso   1.000  H
  N24      1.0000 0.28102  0.66759  0.92682  Biso   1.000  N
  C170     1.0000 0.27021  0.70969  0.82531  Biso   1.000  C
  H209     1.0000 0.09477  0.59952  0.42439  Biso   1.000  H
  H210     1.0000 0.11669  0.65792  0.45812  Biso   1.000  H
  H211     1.0000 0.57438  0.02149  0.77890  Biso   1.000  H
  H212     1.0000 0.49871  0.05269  0.80331  Biso   1.000  H
  H213     1.0000 0.12450  0.59499  0.67052  Biso   1.000  H
  H214     1.0000 0.14448  0.64069  0.62041  Biso   1.000  H
  H215     1.0000 0.17908  0.64869  0.68471  Biso   1.000  H
  H216     1.0000 0.17850  0.63621  0.70001  Biso   1.000  H
  H217     1.0000 0.16099  0.65660  0.63451  Biso   1.000  H
  H218     1.0000 0.24219  0.67119  0.66409  Biso   1.000  H
  C171     1.0000 0.18872  0.58532  0.92200  Biso   1.000  C
  H219     1.0000 0.26251  0.48759  0.93351  Biso   1.000  H
  H220     1.0000 0.32967  0.46592  0.89104  Biso   1.000  H
  H221     1.0000 0.24360  0.44280  0.88242  Biso   1.000  H
  H222     1.0000 0.29248  0.47339  0.92513  Biso   1.000  H
  H223     1.0000 0.33137  0.53579  0.92794  Biso   1.000  H
  H224     1.0000 0.36410  0.48829  0.88372  Biso   1.000  H
  H225     1.0000 0.65740  0.84381  0.84093  Biso   1.000  H
  H226     1.0000 0.64107  0.82580  0.77453  Biso   1.000  H
  H227     1.0000 0.65229  0.77719  0.82343  Biso   1.000  H
  C172     1.0000 0.19647  0.65269  0.93003  Biso   1.000  C
  H228     1.0000 0.23631  0.67831  0.81264  Biso   1.000  H
  H229     1.0000 0.30852  0.71738  0.79483  Biso   1.000  H
  H230     1.0000 0.23960  0.74441  0.83231  Biso   1.000  H
  H231     1.0000 0.22209  0.56541  0.95141  Biso   1.000  H
  C173     1.0000 0.10370  0.56621  0.93093  Biso   1.000  C
  C174     1.0000 0.16510  0.67141  0.98951  Biso   1.000  C
  H232     1.0000 0.16798  0.67291  0.89813  Biso   1.000  H
  H233     1.0000 0.07133  0.58269  0.89951  Biso   1.000  H
  H234     1.0000 0.10018  0.52371  0.92852  Biso   1.000  H
  C175     1.0000 0.07338  0.58668  0.99130  Biso   1.000  C
  C176     1.0000 0.07949  0.65159  0.99830  Biso   1.000  C
  H235     1.0000 0.16798  0.71382  0.99273  Biso   1.000  H
  H236     1.0000 0.19741  0.65471  0.02088  Biso   1.000  H
  H237     1.0000 0.01892  0.57491  0.99563  Biso   1.000  H
  H238     1.0000 0.10341  0.56770  0.02258  Biso   1.000  H
  H239     1.0000 0.04612  0.67080  0.96912  Biso   1.000  H
  H240     1.0000 0.06157  0.66280  0.03770  Biso   1.000  H
  C177     1.0000 0.86821  0.68429  0.31551  Biso   1.000  C
  C178     1.0000 0.95617  0.68372  0.32779  Biso   1.000  C
  H241     1.0000 0.84260  0.65621  0.34090  Biso   1.000  H
  H242     1.0000 0.85887  0.67418  0.27451  Biso   1.000  H
  H243     1.0000 0.84771  0.72279  0.32341  Biso   1.000  H
  N25      1.0000 0.00382  0.64381  0.31279  Biso   1.000  N
  C179     1.0000 0.98801  0.73632  0.35920  Biso   1.000  C
  C180     1.0000 0.97949  0.59169  0.28031  Biso   1.000  C
  C181     1.0000 0.94236  0.77438  0.39271  Biso   1.000  C
  C182     1.0000 0.06898  0.74740  0.35532  Biso   1.000  C
  C183     1.0000 0.00452  0.53650  0.31489  Biso   1.000  C
  H244     1.0000 0.92239  0.59191  0.27491  Biso   1.000  H
  C184     1.0000 0.02051  0.59169  0.21971  Biso   1.000  C
  C185     1.0000 0.97321  0.82281  0.42171  Biso   1.000  C
  H245     1.0000 0.88878  0.76708  0.39592  Biso   1.000  H
  C186     1.0000 0.10159  0.79530  0.38472  Biso   1.000  C
  H246     1.0000 0.10088  0.72248  0.33301  Biso   1.000  H
  C187     1.0000 0.98237  0.48130  0.28151  Biso   1.000  C
  H247     1.0000 0.97926  0.53641  0.35371  Biso   1.000  H
  H248     1.0000 0.06093  0.53720  0.32109  Biso   1.000  H
  C188     1.0000 0.99548  0.53650  0.18509  Biso   1.000  C
  N26      1.0000 0.99618  0.64381  0.18718  Biso   1.000  N
  H249     1.0000 0.07761  0.59191  0.22511  Biso   1.000  H
  C189     1.0000 0.92109  0.86258  0.45643  Biso   1.000  C
  C190     1.0000 0.05388  0.83252  0.41672  Biso   1.000  C
  C191     1.0000 0.18872  0.80769  0.38169  Biso   1.000  C
  H250     1.0000 0.92562  0.47849  0.27893  Biso   1.000  H
  C192     1.0000 0.01763  0.48130  0.21851  Biso   1.000  C
  H251     1.0000 0.00129  0.44729  0.30329  Biso   1.000  H
  H252     1.0000 0.93907  0.53720  0.17889  Biso   1.000  H
  H253     1.0000 0.02068  0.53641  0.14631  Biso   1.000  H
  C193     1.0000 0.04377  0.68372  0.17219  Biso   1.000  C
  N27      1.0000 0.85629  0.84131  0.47441  Biso   1.000  N
  C194     1.0000 0.94847  0.92538  0.46482  Biso   1.000  C
  H254     1.0000 0.07603  0.86500  0.43541  Biso   1.000  H
  N28      1.0000 0.21898  0.83239  0.42680  Biso   1.000  N
  C195     1.0000 0.22979  0.79029  0.32529  Biso   1.000  C
  H255     1.0000 0.99871  0.44729  0.19669  Biso   1.000  H
  H256     1.0000 0.07438  0.47849  0.22110  Biso   1.000  H
  C196     1.0000 0.01199  0.73632  0.14082  Biso   1.000  C
  C197     1.0000 0.13179  0.68429  0.18451  Biso   1.000  C
  C198     1.0000 0.79812  0.87598  0.50703  Biso   1.000  C
  H257     1.0000 0.98349  0.92740  0.49833  Biso   1.000  H
  H258     1.0000 0.90388  0.95030  0.47182  Biso   1.000  H
  H259     1.0000 0.97538  0.93830  0.42952  Biso   1.000  H
  C199     1.0000 0.30353  0.84729  0.43001  Biso   1.000  C
  H260     1.0000 0.26369  0.82171  0.31261  Biso   1.000  H
  H261     1.0000 0.19148  0.78260  0.29481  Biso   1.000  H
  H262     1.0000 0.26040  0.75561  0.33229  Biso   1.000  H
  C200     1.0000 0.93096  0.74740  0.14471  Biso   1.000  C
  C201     1.0000 0.05758  0.77438  0.10731  Biso   1.000  C
  H263     1.0000 0.15740  0.65621  0.15912  Biso   1.000  H
  H264     1.0000 0.14107  0.67418  0.22551  Biso   1.000  H
  H265     1.0000 0.15229  0.72279  0.17661  Biso   1.000  H
  H266     1.0000 0.82127  0.91360  0.51912  Biso   1.000  H
  C202     1.0000 0.77209  0.84219  0.56209  Biso   1.000  C
  C203     1.0000 0.72908  0.88701  0.46620  Biso   1.000  C
  C204     1.0000 0.31128  0.91470  0.42202  Biso   1.000  C
  C205     1.0000 0.33490  0.82861  0.48949  Biso   1.000  C
  H267     1.0000 0.33202  0.82711  0.39811  Biso   1.000  H
  C206     1.0000 0.89841  0.79530  0.11530  Biso   1.000  C
  H268     1.0000 0.89912  0.72248  0.16702  Biso   1.000  H
  C207     1.0000 0.02679  0.82281  0.07831  Biso   1.000  C
  H269     1.0000 0.11122  0.76708  0.10410  Biso   1.000  H
  H270     1.0000 0.75429  0.80338  0.55022  Biso   1.000  H
  H271     1.0000 0.81669  0.83718  0.58851  Biso   1.000  H
  C208     1.0000 0.70770  0.87229  0.59520  Biso   1.000  C
  N29      1.0000 0.75429  0.92419  0.41712  Biso   1.000  N
  C209     1.0000 0.66222  0.91589  0.50020  Biso   1.000  C
  H272     1.0000 0.71081  0.84931  0.45009  Biso   1.000  H
  N30      1.0000 0.28637  0.93131  0.36201  Biso   1.000  N
  H273     1.0000 0.27791  0.93461  0.45143  Biso   1.000  H
  C210     1.0000 0.39630  0.93382  0.43090  Biso   1.000  C
  C211     1.0000 0.42051  0.84838  0.49833  Biso   1.000  C
  H274     1.0000 0.33202  0.78620  0.49270  Biso   1.000  H
  H275     1.0000 0.30259  0.84531  0.52090  Biso   1.000  H
  C212     1.0000 0.94606  0.83252  0.08331  Biso   1.000  C
  C213     1.0000 0.81128  0.80769  0.11829  Biso   1.000  C
  C214     1.0000 0.07891  0.86258  0.04359  Biso   1.000  C
  H276     1.0000 0.72568  0.91031  0.60912  Biso   1.000  H
  H277     1.0000 0.69301  0.84909  0.62982  Biso   1.000  H
  C215     1.0000 0.63637  0.88011  0.55450  Biso   1.000  C
  C216     1.0000 0.73431  0.91492  0.36241  Biso   1.000  C
  H278     1.0000 0.61769  0.92081  0.47361  Biso   1.000  H
  H279     1.0000 0.67879  0.95460  0.51332  Biso   1.000  H
  C217     1.0000 0.24201  0.97328  0.35121  Biso   1.000  C
  H280     1.0000 0.42867  0.91729  0.39949  Biso   1.000  H
  H281     1.0000 0.39982  0.97631  0.42849  Biso   1.000  H
  C218     1.0000 0.42662  0.91329  0.49132  Biso   1.000  C
  H282     1.0000 0.43837  0.83718  0.53773  Biso   1.000  H
  H283     1.0000 0.45388  0.82918  0.46910  Biso   1.000  H
  H284     1.0000 0.92397  0.86500  0.06461  Biso   1.000  H
  N31      1.0000 0.78096  0.83239  0.07322  Biso   1.000  N
  C219     1.0000 0.77021  0.79029  0.17469  Biso   1.000  C
  N32      1.0000 0.14371  0.84131  0.02561  Biso   1.000  N
  C220     1.0000 0.05153  0.92538  0.03521  Biso   1.000  C
  H285     1.0000 0.59477  0.90051  0.57561  Biso   1.000  H
  H286     1.0000 0.61669  0.84210  0.54192  Biso   1.000  H
  C221     1.0000 0.76627  0.95500  0.31681  Biso   1.000  C
  C222     1.0000 0.66439  0.87950  0.34519  Biso   1.000  C
  C223     1.0000 0.70088  0.85739  0.33881  Biso   1.000  C
  C224     1.0000 0.22139  0.98471  0.28709  Biso   1.000  C
  C225     1.0000 0.18249  0.99631  0.40212  Biso   1.000  C
  C226     1.0000 0.22497  0.02391  0.39342  Biso   1.000  C
  H287     1.0000 0.48108  0.92512  0.49560  Biso   1.000  H
  H288     1.0000 0.39659  0.93228  0.52260  Biso   1.000  H
  C227     1.0000 0.69647  0.84729  0.07001  Biso   1.000  C
  H289     1.0000 0.73631  0.82171  0.18741  Biso   1.000  H
  H290     1.0000 0.80852  0.78260  0.20521  Biso   1.000  H
  H291     1.0000 0.73960  0.75561  0.16769  Biso   1.000  H
  C228     1.0000 0.20188  0.87598  0.99304  Biso   1.000  C
  H292     1.0000 0.01651  0.92740  0.00170  Biso   1.000  H
  H293     1.0000 0.09612  0.95030  0.02820  Biso   1.000  H
  H294     1.0000 0.02462  0.93830  0.07050  Biso   1.000  H
  C229     1.0000 0.81957  0.99969  0.33252  Biso   1.000  C
  C230     1.0000 0.74671  0.94880  0.25782  Biso   1.000  C
  H295     1.0000 0.62450  0.90499  0.32953  Biso   1.000  H
  H296     1.0000 0.64448  0.85928  0.37959  Biso   1.000  H
  H297     1.0000 0.67908  0.85129  0.31529  Biso   1.000  H
  H298     1.0000 0.67850  0.86381  0.29999  Biso   1.000  H
  H299     1.0000 0.66099  0.84342  0.36549  Biso   1.000  H
  H300     1.0000 0.74219  0.82878  0.33591  Biso   1.000  H
  C231     1.0000 0.25329  0.94880  0.24220  Biso   1.000  C
  C232     1.0000 0.17051  0.02870  0.27040  Biso   1.000  C
  H301     1.0000 0.16863  0.96418  0.42791  Biso   1.000  H
  H302     1.0000 0.23749  0.01239  0.43349  Biso   1.000  H
  H303     1.0000 0.17027  0.03410  0.39101  Biso   1.000  H
  H304     1.0000 0.20752  0.02659  0.42510  Biso   1.000  H
  H305     1.0000 0.13590  0.01169  0.38370  Biso   1.000  H
  H306     1.0000 0.25640  0.05722  0.38240  Biso   1.000  H
  C233     1.0000 0.68872  0.91470  0.07800  Biso   1.000  C
  C234     1.0000 0.66510  0.82861  0.01049  Biso   1.000  C
  H307     1.0000 0.66798  0.82711  0.10191  Biso   1.000  H
  H308     1.0000 0.17867  0.91360  0.98090  Biso   1.000  H
  C235     1.0000 0.22791  0.84219  0.93793  Biso   1.000  C
  C236     1.0000 0.27092  0.88701  0.03382  Biso   1.000  C
  C237     1.0000 0.85188  0.03691  0.28932  Biso   1.000  C
  H309     1.0000 0.83349  0.00461  0.37232  Biso   1.000  H
  C238     1.0000 0.77861  0.98471  0.21289  Biso   1.000  C
  H310     1.0000 0.71087  0.91980  0.24711  Biso   1.000  H
  C239     1.0000 0.23373  0.95500  0.18321  Biso   1.000  C
  H311     1.0000 0.28907  0.91980  0.25291  Biso   1.000  H
  H312     1.0000 0.15041  0.05370  0.29950  Biso   1.000  H
  C240     1.0000 0.14812  0.03691  0.21070  Biso   1.000  C
  N33      1.0000 0.71357  0.93131  0.13801  Biso   1.000  N
  H313     1.0000 0.72209  0.93461  0.04859  Biso   1.000  H
  C241     1.0000 0.60370  0.93382  0.06912  Biso   1.000  C
  C242     1.0000 0.57949  0.84838  0.00170  Biso   1.000  C
  H314     1.0000 0.66798  0.78620  0.00732  Biso   1.000  H
  H315     1.0000 0.69741  0.84531  0.97912  Biso   1.000  H
  H316     1.0000 0.24571  0.80338  0.94980  Biso   1.000  H
  H317     1.0000 0.18331  0.83718  0.91152  Biso   1.000  H
  C243     1.0000 0.29230  0.87229  0.90482  Biso   1.000  C
  C244     1.0000 0.33778  0.91589  0.99982  Biso   1.000  C
  N34      1.0000 0.24571  0.92419  0.08291  Biso   1.000  N
  H318     1.0000 0.28919  0.84931  0.04989  Biso   1.000  H
  C245     1.0000 0.82949  0.02870  0.22962  Biso   1.000  C
  C246     1.0000 0.91016  0.08411  0.30409  Biso   1.000  C
  C247     1.0000 0.75799  0.97328  0.14881  Biso   1.000  C
  C248     1.0000 0.26569  0.91492  0.13761  Biso   1.000  C
  C249     1.0000 0.18038  0.99969  0.16751  Biso   1.000  C
  C250     1.0000 0.08978  0.08411  0.19589  Biso   1.000  C
  H319     1.0000 0.57127  0.91729  0.10049  Biso   1.000  H
  H320     1.0000 0.60018  0.97631  0.07148  Biso   1.000  H
  C251     1.0000 0.57338  0.91329  0.00870  Biso   1.000  C
  H321     1.0000 0.54612  0.82918  0.03092  Biso   1.000  H
  H322     1.0000 0.56157  0.83718  0.96230  Biso   1.000  H
  H323     1.0000 0.27432  0.91031  0.89090  Biso   1.000  H
  H324     1.0000 0.30699  0.84909  0.87020  Biso   1.000  H
  C252     1.0000 0.36357  0.88011  0.94552  Biso   1.000  C
  H325     1.0000 0.32121  0.95460  0.98670  Biso   1.000  H
  H326     1.0000 0.38231  0.92081  0.02642  Biso   1.000  H
  H327     1.0000 0.84959  0.05370  0.20048  Biso   1.000  H
  N35      1.0000 0.91686  0.12569  0.26710  Biso   1.000  N
  C253     1.0000 0.95717  0.07682  0.36022  Biso   1.000  C
  C254     1.0000 0.81751  0.99631  0.09790  Biso   1.000  C
  C255     1.0000 0.77497  0.02391  0.10660  Biso   1.000  C
  C256     1.0000 0.33561  0.87950  0.15479  Biso   1.000  C
  C257     1.0000 0.29912  0.85739  0.16122  Biso   1.000  C
  H328     1.0000 0.16651  0.00461  0.12771  Biso   1.000  H
  N36      1.0000 0.08308  0.12569  0.23292  Biso   1.000  N
  C258     1.0000 0.04277  0.07682  0.13980  Biso   1.000  C
  H329     1.0000 0.51892  0.92512  0.00442  Biso   1.000  H
  H330     1.0000 0.60341  0.93228  0.97742  Biso   1.000  H
  H331     1.0000 0.40517  0.90051  0.92441  Biso   1.000  H
  H332     1.0000 0.38331  0.84210  0.95810  Biso   1.000  H
  C259     1.0000 0.96939  0.17499  0.27611  Biso   1.000  C
  H333     1.0000 0.92450  0.08499  0.39409  Biso   1.000  H
  H334     1.0000 0.97626  0.03718  0.36259  Biso   1.000  H
  H335     1.0000 0.00082  0.10349  0.35969  Biso   1.000  H
  H336     1.0000 0.83137  0.96418  0.07211  Biso   1.000  H
  H337     1.0000 0.76251  0.01239  0.06649  Biso   1.000  H
  H338     1.0000 0.82967  0.03410  0.10901  Biso   1.000  H
  H339     1.0000 0.79248  0.02659  0.07492  Biso   1.000  H
  H340     1.0000 0.86410  0.01169  0.11628  Biso   1.000  H
  H341     1.0000 0.74360  0.05722  0.11762  Biso   1.000  H
  H342     1.0000 0.37550  0.90499  0.17050  Biso   1.000  H
  H343     1.0000 0.35552  0.85928  0.12039  Biso   1.000  H
  H344     1.0000 0.32092  0.85129  0.18469  Biso   1.000  H
  H345     1.0000 0.32150  0.86381  0.19999  Biso   1.000  H
  H346     1.0000 0.33901  0.84342  0.13449  Biso   1.000  H
  H347     1.0000 0.25781  0.82878  0.16412  Biso   1.000  H
  C260     1.0000 0.03061  0.17499  0.22391  Biso   1.000  C
  H348     1.0000 0.99918  0.10349  0.14029  Biso   1.000  H
  H349     1.0000 0.07550  0.08499  0.10589  Biso   1.000  H
  H350     1.0000 0.02368  0.03718  0.13739  Biso   1.000  H
  H351     1.0000 0.99718  0.16990  0.31400  Biso   1.000  H
  C261     1.0000 0.92297  0.23111  0.27830  Biso   1.000  C
  H352     1.0000 0.00282  0.16990  0.18602  Biso   1.000  H
  C262     1.0000 0.07703  0.23111  0.22172  Biso   1.000  C
  H353     1.0000 0.89230  0.23169  0.31480  Biso   1.000  H
  H354     1.0000 0.88660  0.23182  0.24501  Biso   1.000  H
  C263     1.0000 0.97356  0.28609  0.27603  Biso   1.000  C
  H355     1.0000 0.10770  0.23169  0.18522  Biso   1.000  H
  H356     1.0000 0.11340  0.23182  0.25501  Biso   1.000  H
  C264     1.0000 0.02638  0.28609  0.22400  Biso   1.000  C
  H357     1.0000 0.93989  0.32041  0.27428  Biso   1.000  H
  H358     1.0000 0.00458  0.28860  0.31221  Biso   1.000  H
  H359     1.0000 0.99542  0.28860  0.18781  Biso   1.000  H
  H360     1.0000 0.06011  0.32041  0.22569  Biso   1.000  H
  C265     1.0000 0.86821  0.31571  0.68453  Biso   1.000  C
  C266     1.0000 0.95617  0.31628  0.67221  Biso   1.000  C
  H361     1.0000 0.84260  0.34379  0.65910  Biso   1.000  H
  H362     1.0000 0.85887  0.32582  0.72549  Biso   1.000  H
  H363     1.0000 0.84771  0.27721  0.67663  Biso   1.000  H
  C267     1.0000 0.98801  0.26368  0.64080  Biso   1.000  C
  N37      1.0000 0.00382  0.35619  0.68721  Biso   1.000  N
  C268     1.0000 0.94236  0.22562  0.60729  Biso   1.000  C
  C269     1.0000 0.06898  0.25260  0.64473  Biso   1.000  C
  C270     1.0000 0.97949  0.40831  0.71969  Biso   1.000  C
  C271     1.0000 0.97321  0.17719  0.57833  Biso   1.000  C
  H364     1.0000 0.88878  0.23292  0.60412  Biso   1.000  H
  C272     1.0000 0.10159  0.20470  0.61532  Biso   1.000  C
  H365     1.0000 0.10088  0.27752  0.66699  Biso   1.000  H
  H366     1.0000 0.92239  0.40809  0.72513  Biso   1.000  H
  C273     1.0000 0.02051  0.40831  0.78033  Biso   1.000  C
  C274     1.0000 0.00452  0.46350  0.68511  Biso   1.000  C
  C275     1.0000 0.92109  0.13742  0.54362  Biso   1.000  C
  C276     1.0000 0.05388  0.16748  0.58333  Biso   1.000  C
  C277     1.0000 0.18872  0.19231  0.61831  Biso   1.000  C
  N38      1.0000 0.99618  0.35619  0.81282  Biso   1.000  N
  C278     1.0000 0.99548  0.46350  0.81491  Biso   1.000  C
  H367     1.0000 0.07761  0.40809  0.77493  Biso   1.000  H
  H368     1.0000 0.97926  0.46359  0.64629  Biso   1.000  H
  C279     1.0000 0.98237  0.51870  0.71853  Biso   1.000  C
  H369     1.0000 0.06093  0.46280  0.67891  Biso   1.000  H
  N39      1.0000 0.85629  0.15869  0.52559  Biso   1.000  N
  C280     1.0000 0.94847  0.07462  0.53523  Biso   1.000  C
  H370     1.0000 0.07603  0.13500  0.56459  Biso   1.000  H
  N40      1.0000 0.21898  0.16761  0.57320  Biso   1.000  N
  C281     1.0000 0.22979  0.20971  0.67471  Biso   1.000  C
  C282     1.0000 0.04377  0.31628  0.82781  Biso   1.000  C
  H371     1.0000 0.93907  0.46280  0.82111  Biso   1.000  H
  H372     1.0000 0.02068  0.46359  0.85373  Biso   1.000  H
  C283     1.0000 0.01763  0.51870  0.78154  Biso   1.000  C
  H373     1.0000 0.92562  0.52151  0.72112  Biso   1.000  H
  H374     1.0000 0.00129  0.55271  0.69671  Biso   1.000  H
  C284     1.0000 0.79812  0.12402  0.49302  Biso   1.000  C
  H375     1.0000 0.98349  0.07260  0.50172  Biso   1.000  H
  H376     1.0000 0.90388  0.04970  0.52822  Biso   1.000  H
  H377     1.0000 0.97538  0.06170  0.57052  Biso   1.000  H
  C285     1.0000 0.30353  0.15271  0.56999  Biso   1.000  C
  H378     1.0000 0.26369  0.17829  0.68743  Biso   1.000  H
  H379     1.0000 0.19148  0.21740  0.70523  Biso   1.000  H
  H380     1.0000 0.26040  0.24439  0.66771  Biso   1.000  H
  C286     1.0000 0.01199  0.26368  0.85922  Biso   1.000  C
  C287     1.0000 0.13179  0.31571  0.81549  Biso   1.000  C
  H381     1.0000 0.99871  0.55271  0.80331  Biso   1.000  H
  H382     1.0000 0.07438  0.52151  0.77890  Biso   1.000  H
  C288     1.0000 0.77209  0.15781  0.43791  Biso   1.000  C
  C289     1.0000 0.72908  0.11299  0.53380  Biso   1.000  C
  H383     1.0000 0.82127  0.08640  0.48092  Biso   1.000  H
  C290     1.0000 0.31128  0.08530  0.57802  Biso   1.000  C
  C291     1.0000 0.33490  0.17139  0.51051  Biso   1.000  C
  H384     1.0000 0.33202  0.17289  0.60189  Biso   1.000  H
  C292     1.0000 0.93096  0.25260  0.85529  Biso   1.000  C
  C293     1.0000 0.05758  0.22562  0.89273  Biso   1.000  C
  H385     1.0000 0.15740  0.34379  0.84093  Biso   1.000  H
  H386     1.0000 0.14107  0.32582  0.77453  Biso   1.000  H
  H387     1.0000 0.15229  0.27721  0.82343  Biso   1.000  H
  C294     1.0000 0.70770  0.12771  0.40480  Biso   1.000  C
  H388     1.0000 0.75429  0.19662  0.44982  Biso   1.000  H
  H389     1.0000 0.81669  0.16282  0.41149  Biso   1.000  H
  C295     1.0000 0.66222  0.08411  0.49980  Biso   1.000  C
  N41      1.0000 0.75429  0.07581  0.58293  Biso   1.000  N
  H390     1.0000 0.71081  0.15069  0.54991  Biso   1.000  H
  N42      1.0000 0.28637  0.06869  0.63799  Biso   1.000  N
  H391     1.0000 0.27791  0.06539  0.54861  Biso   1.000  H
  C296     1.0000 0.39630  0.06618  0.56910  Biso   1.000  C
  C297     1.0000 0.42051  0.15162  0.50172  Biso   1.000  C
  H392     1.0000 0.33202  0.21380  0.50730  Biso   1.000  H
  H393     1.0000 0.30259  0.15469  0.47910  Biso   1.000  H
  C298     1.0000 0.89841  0.20470  0.88470  Biso   1.000  C
  H394     1.0000 0.89912  0.27752  0.83303  Biso   1.000  H
  C299     1.0000 0.02679  0.17719  0.92173  Biso   1.000  C
  H395     1.0000 0.11122  0.23292  0.89590  Biso   1.000  H
  C300     1.0000 0.63637  0.11989  0.44550  Biso   1.000  C
  H396     1.0000 0.72568  0.08969  0.39092  Biso   1.000  H
  H397     1.0000 0.69301  0.15091  0.37022  Biso   1.000  H
  H398     1.0000 0.61769  0.07919  0.52639  Biso   1.000  H
  H399     1.0000 0.67879  0.04540  0.48673  Biso   1.000  H
  C301     1.0000 0.73431  0.08508  0.63763  Biso   1.000  C
  C302     1.0000 0.24201  0.02672  0.64883  Biso   1.000  C
  H400     1.0000 0.42867  0.08271  0.60051  Biso   1.000  H
  H401     1.0000 0.39982  0.02369  0.57151  Biso   1.000  H
  C303     1.0000 0.42662  0.08671  0.50872  Biso   1.000  C
  H402     1.0000 0.43837  0.16282  0.46232  Biso   1.000  H
  H403     1.0000 0.45388  0.17082  0.53090  Biso   1.000  H
  C304     1.0000 0.81128  0.19231  0.88171  Biso   1.000  C
  C305     1.0000 0.94606  0.16748  0.91674  Biso   1.000  C
  C306     1.0000 0.07891  0.13742  0.95641  Biso   1.000  C
  H404     1.0000 0.59477  0.09949  0.42439  Biso   1.000  H
  H405     1.0000 0.61669  0.15790  0.45812  Biso   1.000  H
  C307     1.0000 0.76627  0.04500  0.68319  Biso   1.000  C
  C308     1.0000 0.66439  0.12050  0.65481  Biso   1.000  C
  C309     1.0000 0.70088  0.14261  0.66119  Biso   1.000  C
  C310     1.0000 0.22497  0.97609  0.60662  Biso   1.000  C
  C311     1.0000 0.22139  0.01529  0.71291  Biso   1.000  C
  C312     1.0000 0.18249  0.00369  0.59792  Biso   1.000  C
  H406     1.0000 0.48108  0.07488  0.50440  Biso   1.000  H
  H407     1.0000 0.39659  0.06772  0.47740  Biso   1.000  H
  N43      1.0000 0.78096  0.16761  0.92682  Biso   1.000  N
  C313     1.0000 0.77021  0.20971  0.82531  Biso   1.000  C
  H408     1.0000 0.92397  0.13500  0.93543  Biso   1.000  H
  N44      1.0000 0.14371  0.15869  0.97443  Biso   1.000  N
  C314     1.0000 0.05153  0.07462  0.96484  Biso   1.000  C
  C315     1.0000 0.81957  0.00031  0.66753  Biso   1.000  C
  C316     1.0000 0.74671  0.05120  0.74222  Biso   1.000  C
  H409     1.0000 0.62450  0.09501  0.67052  Biso   1.000  H
  H410     1.0000 0.64448  0.14072  0.62041  Biso   1.000  H
  H411     1.0000 0.67908  0.14871  0.68471  Biso   1.000  H
  H412     1.0000 0.67850  0.13619  0.70001  Biso   1.000  H
  H413     1.0000 0.66099  0.15658  0.63451  Biso   1.000  H
  H414     1.0000 0.74219  0.17122  0.66409  Biso   1.000  H
  H415     1.0000 0.23749  0.98761  0.56651  Biso   1.000  H
  H416     1.0000 0.17027  0.96590  0.60903  Biso   1.000  H
  H417     1.0000 0.25640  0.94278  0.61760  Biso   1.000  H
  H418     1.0000 0.20752  0.97341  0.57490  Biso   1.000  H
  C317     1.0000 0.17051  0.97130  0.72960  Biso   1.000  C
  C318     1.0000 0.25329  0.05120  0.75780  Biso   1.000  C
  H419     1.0000 0.13590  0.98831  0.61630  Biso   1.000  H
  H420     1.0000 0.16863  0.03582  0.57213  Biso   1.000  H
  C319     1.0000 0.69647  0.15271  0.93003  Biso   1.000  C
  H421     1.0000 0.73631  0.17829  0.81264  Biso   1.000  H
  H422     1.0000 0.80852  0.21740  0.79483  Biso   1.000  H
  H423     1.0000 0.73960  0.24439  0.83231  Biso   1.000  H
  C320     1.0000 0.20188  0.12402  0.00701  Biso   1.000  C
  H424     1.0000 0.01651  0.07260  0.99830  Biso   1.000  H
  H425     1.0000 0.09612  0.04970  0.97180  Biso   1.000  H
  H426     1.0000 0.02462  0.06170  0.92950  Biso   1.000  H
  C321     1.0000 0.85188  0.96309  0.71072  Biso   1.000  C
  H427     1.0000 0.83349  0.99539  0.62773  Biso   1.000  H
  C322     1.0000 0.77861  0.01529  0.78711  Biso   1.000  C
  H428     1.0000 0.71087  0.08020  0.75293  Biso   1.000  H
  C323     1.0000 0.14812  0.96309  0.78930  Biso   1.000  C
  H429     1.0000 0.15041  0.94630  0.70050  Biso   1.000  H
  C324     1.0000 0.23373  0.04500  0.81683  Biso   1.000  C
  H430     1.0000 0.28907  0.08020  0.74713  Biso   1.000  H
  C325     1.0000 0.68872  0.08530  0.92200  Biso   1.000  C
  C326     1.0000 0.66510  0.17139  0.98951  Biso   1.000  C
  H431     1.0000 0.66798  0.17289  0.89813  Biso   1.000  H
  C327     1.0000 0.27092  0.11299  0.96622  Biso   1.000  C
  H432     1.0000 0.17867  0.08640  0.01910  Biso   1.000  H
  C328     1.0000 0.22791  0.15781  0.06211  Biso   1.000  C
  C329     1.0000 0.82949  0.97130  0.77043  Biso   1.000  C
  C330     1.0000 0.91016  0.91589  0.69591  Biso   1.000  C
  C331     1.0000 0.75799  0.02672  0.85123  Biso   1.000  C
  C332     1.0000 0.08978  0.91589  0.80411  Biso   1.000  C
  C333     1.0000 0.18038  0.00031  0.83249  Biso   1.000  C
  C334     1.0000 0.26569  0.08508  0.86243  Biso   1.000  C
  N45      1.0000 0.71357  0.06869  0.86203  Biso   1.000  N
  H433     1.0000 0.72209  0.06539  0.95141  Biso   1.000  H
  C335     1.0000 0.60370  0.06618  0.93093  Biso   1.000  C
  C336     1.0000 0.57949  0.15162  0.99830  Biso   1.000  C
  H434     1.0000 0.66798  0.21380  0.99273  Biso   1.000  H
  H435     1.0000 0.69741  0.15469  0.02088  Biso   1.000  H
  N46      1.0000 0.24571  0.07581  0.91709  Biso   1.000  N
  H436     1.0000 0.28919  0.15069  0.95011  Biso   1.000  H
  C337     1.0000 0.33778  0.08411  0.00018  Biso   1.000  C
  H437     1.0000 0.24571  0.19662  0.05020  Biso   1.000  H
  H438     1.0000 0.18331  0.16282  0.08848  Biso   1.000  H
  C338     1.0000 0.29230  0.12771  0.09522  Biso   1.000  C
  H439     1.0000 0.84959  0.94630  0.79952  Biso   1.000  H
  N47      1.0000 0.91686  0.87431  0.73290  Biso   1.000  N
  C339     1.0000 0.95717  0.92318  0.63982  Biso   1.000  C
  C340     1.0000 0.81751  0.00369  0.90210  Biso   1.000  C
  C341     1.0000 0.77497  0.97609  0.89340  Biso   1.000  C
  N48      1.0000 0.08308  0.87431  0.76712  Biso   1.000  N
  C342     1.0000 0.04277  0.92318  0.86020  Biso   1.000  C
  H440     1.0000 0.16651  0.99539  0.87229  Biso   1.000  H
  C343     1.0000 0.33561  0.12050  0.84521  Biso   1.000  C
  C344     1.0000 0.29912  0.14261  0.83883  Biso   1.000  C
  H441     1.0000 0.57127  0.08271  0.89951  Biso   1.000  H
  H442     1.0000 0.60018  0.02369  0.92852  Biso   1.000  H
  C345     1.0000 0.57338  0.08671  0.99130  Biso   1.000  C
  H443     1.0000 0.54612  0.17082  0.96912  Biso   1.000  H
  H444     1.0000 0.56157  0.16282  0.03770  Biso   1.000  H
  H445     1.0000 0.38231  0.07919  0.97363  Biso   1.000  H
  C346     1.0000 0.36357  0.11989  0.05448  Biso   1.000  C
  H446     1.0000 0.32121  0.04540  0.01330  Biso   1.000  H
  H447     1.0000 0.27432  0.08969  0.10910  Biso   1.000  H
  H448     1.0000 0.30699  0.15091  0.12980  Biso   1.000  H
  C347     1.0000 0.96939  0.82501  0.72393  Biso   1.000  C
  H449     1.0000 0.92450  0.91501  0.60591  Biso   1.000  H
  H450     1.0000 0.97626  0.96282  0.63741  Biso   1.000  H
  H451     1.0000 0.00082  0.89651  0.64031  Biso   1.000  H
  H452     1.0000 0.83137  0.03582  0.92794  Biso   1.000  H
  H453     1.0000 0.76251  0.98761  0.93351  Biso   1.000  H
  H454     1.0000 0.82967  0.96590  0.89104  Biso   1.000  H
  H455     1.0000 0.79248  0.97341  0.92513  Biso   1.000  H
  H456     1.0000 0.86410  0.98831  0.88372  Biso   1.000  H
  H457     1.0000 0.74360  0.94278  0.88242  Biso   1.000  H
  C348     1.0000 0.03061  0.82501  0.77609  Biso   1.000  C
  H458     1.0000 0.99918  0.89651  0.85971  Biso   1.000  H
  H459     1.0000 0.07550  0.91501  0.89411  Biso   1.000  H
  H460     1.0000 0.02368  0.96282  0.86261  Biso   1.000  H
  H461     1.0000 0.37550  0.09501  0.82950  Biso   1.000  H
  H462     1.0000 0.35552  0.14072  0.87961  Biso   1.000  H
  H463     1.0000 0.32092  0.14871  0.81531  Biso   1.000  H
  H464     1.0000 0.32150  0.13619  0.80001  Biso   1.000  H
  H465     1.0000 0.33901  0.15658  0.86551  Biso   1.000  H
  H466     1.0000 0.25781  0.17122  0.83593  Biso   1.000  H
  H467     1.0000 0.51892  0.07488  0.99563  Biso   1.000  H
  H468     1.0000 0.60341  0.06772  0.02258  Biso   1.000  H
  H469     1.0000 0.40517  0.09949  0.07559  Biso   1.000  H
  H470     1.0000 0.38331  0.15790  0.04190  Biso   1.000  H
  H471     1.0000 0.99718  0.83010  0.68600  Biso   1.000  H
  C349     1.0000 0.92297  0.76889  0.72170  Biso   1.000  C
  H472     1.0000 0.00282  0.83010  0.81402  Biso   1.000  H
  C350     1.0000 0.07703  0.76889  0.77832  Biso   1.000  C
  H473     1.0000 0.89230  0.76831  0.68520  Biso   1.000  H
  H474     1.0000 0.88660  0.76818  0.75503  Biso   1.000  H
  C351     1.0000 0.97356  0.71391  0.72402  Biso   1.000  C
  C352     1.0000 0.02638  0.71391  0.77600  Biso   1.000  C
  H475     1.0000 0.10770  0.76831  0.81482  Biso   1.000  H
  H476     1.0000 0.11340  0.76818  0.74499  Biso   1.000  H
  H477     1.0000 0.93989  0.67959  0.72572  Biso   1.000  H
  H478     1.0000 0.00458  0.71140  0.68783  Biso   1.000  H
  H479     1.0000 0.99542  0.71140  0.81224  Biso   1.000  H
  H480     1.0000 0.06011  0.67959  0.77431  Biso   1.000  H
