data_image0
_cell_length_a       24.607
_cell_length_b       24.607
_cell_length_c       24.607
_cell_angle_alpha    90
_cell_angle_beta     90
_cell_angle_gamma    90

_symmetry_space_group_name_H-M    "P 1"
_symmetry_int_tables_number       1

loop_
  _symmetry_equiv_pos_as_xyz
  'x, y, z'

loop_
  _atom_site_label
  _atom_site_occupancy
  _atom_site_fract_x
  _atom_site_fract_y
  _atom_site_fract_z
  _atom_site_thermal_displace_type
  _atom_site_B_iso_or_equiv
  _atom_site_type_symbol
  C1       1.0000 0.44691  0.39562  0.36819  Biso   1.000  C
  H1       1.0000 0.47600  0.38940  0.34352  Biso   1.000  H
  C2       1.0000 0.43870  0.36091  0.41248  Biso   1.000  C
  C3       1.0000 0.41248  0.43870  0.36091  Biso   1.000  C
  C4       1.0000 0.39562  0.36819  0.44691  Biso   1.000  C
  C5       1.0000 0.47840  0.31540  0.42520  Biso   1.000  C
  C6       1.0000 0.36819  0.44691  0.39562  Biso   1.000  C
  C7       1.0000 0.42520  0.47840  0.31540  Biso   1.000  C
  H2       1.0000 0.38940  0.34352  0.47600  Biso   1.000  H
  C8       1.0000 0.36091  0.41248  0.43870  Biso   1.000  C
  C9       1.0000 0.53562  0.32121  0.40098  Biso   1.000  C
  N1       1.0000 0.46141  0.27630  0.45548  Biso   1.000  N
  H3       1.0000 0.34352  0.47600  0.38940  Biso   1.000  H
  C10      1.0000 0.40098  0.53562  0.32121  Biso   1.000  C
  N2       1.0000 0.45548  0.46141  0.27630  Biso   1.000  N
  C11      1.0000 0.31540  0.42520  0.47840  Biso   1.000  C
  H4       1.0000 0.56159  0.30109  0.42350  Biso   1.000  H
  H5       1.0000 0.54590  0.35961  0.40001  Biso   1.000  H
  H6       1.0000 0.53599  0.30642  0.36400  Biso   1.000  H
  C12      1.0000 0.49620  0.23099  0.47011  Biso   1.000  C
  H7       1.0000 0.42350  0.56159  0.30109  Biso   1.000  H
  H8       1.0000 0.40001  0.54590  0.35961  Biso   1.000  H
  H9       1.0000 0.36400  0.53599  0.30642  Biso   1.000  H
  C13      1.0000 0.47011  0.49620  0.23099  Biso   1.000  C
  C14      1.0000 0.32121  0.40098  0.53562  Biso   1.000  C
  N3       1.0000 0.27630  0.45548  0.46141  Biso   1.000  N
  C15      1.0000 0.50380  0.23099  0.52989  Biso   1.000  C
  H10      1.0000 0.53221  0.23469  0.45162  Biso   1.000  H
  C16      1.0000 0.46682  0.17922  0.44959  Biso   1.000  C
  C17      1.0000 0.52989  0.50380  0.23099  Biso   1.000  C
  H11      1.0000 0.45162  0.53221  0.23469  Biso   1.000  H
  C18      1.0000 0.44959  0.46682  0.17922  Biso   1.000  C
  H12      1.0000 0.30109  0.42350  0.56159  Biso   1.000  H
  H13      1.0000 0.35961  0.40001  0.54590  Biso   1.000  H
  H14      1.0000 0.30642  0.36400  0.53599  Biso   1.000  H
  C19      1.0000 0.23099  0.47011  0.49620  Biso   1.000  C
  H15      1.0000 0.46779  0.23469  0.54838  Biso   1.000  H
  C20      1.0000 0.53318  0.17922  0.55041  Biso   1.000  C
  N4       1.0000 0.53859  0.27630  0.54452  Biso   1.000  N
  H16      1.0000 0.46560  0.17901  0.40940  Biso   1.000  H
  H17      1.0000 0.42911  0.17828  0.46361  Biso   1.000  H
  C21      1.0000 0.49941  0.12850  0.47088  Biso   1.000  C
  H18      1.0000 0.54838  0.46779  0.23469  Biso   1.000  H
  C22      1.0000 0.55041  0.53318  0.17922  Biso   1.000  C
  N5       1.0000 0.54452  0.53859  0.27630  Biso   1.000  N
  H19      1.0000 0.40940  0.46560  0.17901  Biso   1.000  H
  H20      1.0000 0.46361  0.42911  0.17828  Biso   1.000  H
  C23      1.0000 0.47088  0.49941  0.12850  Biso   1.000  C
  C24      1.0000 0.23099  0.52989  0.50380  Biso   1.000  C
  H21      1.0000 0.23469  0.45162  0.53221  Biso   1.000  H
  C25      1.0000 0.17922  0.44959  0.46682  Biso   1.000  C
  H22      1.0000 0.53440  0.17901  0.59060  Biso   1.000  H
  H23      1.0000 0.57089  0.17828  0.53639  Biso   1.000  H
  C26      1.0000 0.50059  0.12850  0.52912  Biso   1.000  C
  C27      1.0000 0.52160  0.31540  0.57480  Biso   1.000  C
  H24      1.0000 0.51579  0.10172  0.44841  Biso   1.000  H
  H25      1.0000 0.59060  0.53440  0.17901  Biso   1.000  H
  H26      1.0000 0.53639  0.57089  0.17828  Biso   1.000  H
  C28      1.0000 0.52912  0.50059  0.12850  Biso   1.000  C
  C29      1.0000 0.57480  0.52160  0.31540  Biso   1.000  C
  H27      1.0000 0.44841  0.51579  0.10172  Biso   1.000  H
  H28      1.0000 0.23469  0.54838  0.46779  Biso   1.000  H
  C30      1.0000 0.17922  0.55041  0.53318  Biso   1.000  C
  N6       1.0000 0.27630  0.54452  0.53859  Biso   1.000  N
  H29      1.0000 0.17901  0.40940  0.46560  Biso   1.000  H
  H30      1.0000 0.17828  0.46361  0.42911  Biso   1.000  H
  C31      1.0000 0.12850  0.47088  0.49941  Biso   1.000  C
  H31      1.0000 0.48421  0.10172  0.55159  Biso   1.000  H
  C32      1.0000 0.56130  0.36091  0.58752  Biso   1.000  C
  C33      1.0000 0.46438  0.32121  0.59902  Biso   1.000  C
  H32      1.0000 0.55159  0.48421  0.10172  Biso   1.000  H
  C34      1.0000 0.58752  0.56130  0.36091  Biso   1.000  C
  C35      1.0000 0.59902  0.46438  0.32121  Biso   1.000  C
  H33      1.0000 0.17901  0.59060  0.53440  Biso   1.000  H
  H34      1.0000 0.17828  0.53639  0.57089  Biso   1.000  H
  C36      1.0000 0.12850  0.52912  0.50059  Biso   1.000  C
  C37      1.0000 0.31540  0.57480  0.52160  Biso   1.000  C
  H35      1.0000 0.10172  0.44841  0.51579  Biso   1.000  H
  C38      1.0000 0.60438  0.36819  0.55309  Biso   1.000  C
  C39      1.0000 0.55309  0.39562  0.63181  Biso   1.000  C
  H36      1.0000 0.43841  0.30109  0.57650  Biso   1.000  H
  H37      1.0000 0.45410  0.35961  0.59999  Biso   1.000  H
  H38      1.0000 0.46401  0.30642  0.63600  Biso   1.000  H
  C40      1.0000 0.55309  0.60438  0.36819  Biso   1.000  C
  C41      1.0000 0.63181  0.55309  0.39562  Biso   1.000  C
  H39      1.0000 0.57650  0.43841  0.30109  Biso   1.000  H
  H40      1.0000 0.59999  0.45410  0.35961  Biso   1.000  H
  H41      1.0000 0.63600  0.46401  0.30642  Biso   1.000  H
  H42      1.0000 0.10172  0.55159  0.48421  Biso   1.000  H
  C42      1.0000 0.36091  0.58752  0.56130  Biso   1.000  C
  C43      1.0000 0.32121  0.59902  0.46438  Biso   1.000  C
  H43      1.0000 0.61060  0.34352  0.52400  Biso   1.000  H
  C44      1.0000 0.63909  0.41248  0.56130  Biso   1.000  C
  H44      1.0000 0.52400  0.38940  0.65648  Biso   1.000  H
  C45      1.0000 0.58752  0.43870  0.63909  Biso   1.000  C
  H45      1.0000 0.52400  0.61060  0.34352  Biso   1.000  H
  C46      1.0000 0.56130  0.63909  0.41248  Biso   1.000  C
  H46      1.0000 0.65648  0.52400  0.38940  Biso   1.000  H
  C47      1.0000 0.63909  0.58752  0.43870  Biso   1.000  C
  C48      1.0000 0.39562  0.63181  0.55309  Biso   1.000  C
  C49      1.0000 0.36819  0.55309  0.60438  Biso   1.000  C
  H47      1.0000 0.30109  0.57650  0.43841  Biso   1.000  H
  H48      1.0000 0.35961  0.59999  0.45410  Biso   1.000  H
  H49      1.0000 0.30642  0.63600  0.46401  Biso   1.000  H
  C50      1.0000 0.63181  0.44691  0.60438  Biso   1.000  C
  C51      1.0000 0.68460  0.42520  0.52160  Biso   1.000  C
  C52      1.0000 0.57480  0.47840  0.68460  Biso   1.000  C
  C53      1.0000 0.60438  0.63181  0.44691  Biso   1.000  C
  C54      1.0000 0.52160  0.68460  0.42520  Biso   1.000  C
  C55      1.0000 0.68460  0.57480  0.47840  Biso   1.000  C
  H50      1.0000 0.38940  0.65648  0.52400  Biso   1.000  H
  C56      1.0000 0.43870  0.63909  0.58752  Biso   1.000  C
  H51      1.0000 0.34352  0.52400  0.61060  Biso   1.000  H
  C57      1.0000 0.41248  0.56130  0.63909  Biso   1.000  C
  H52      1.0000 0.65648  0.47600  0.61060  Biso   1.000  H
  C58      1.0000 0.67879  0.40098  0.46438  Biso   1.000  C
  N7       1.0000 0.72370  0.45548  0.53859  Biso   1.000  N
  C59      1.0000 0.59902  0.53562  0.67879  Biso   1.000  C
  N8       1.0000 0.54452  0.46141  0.72370  Biso   1.000  N
  H53      1.0000 0.61060  0.65648  0.47600  Biso   1.000  H
  C60      1.0000 0.46438  0.67879  0.40098  Biso   1.000  C
  N9       1.0000 0.53859  0.72370  0.45548  Biso   1.000  N
  C61      1.0000 0.67879  0.59902  0.53562  Biso   1.000  C
  N10      1.0000 0.72370  0.54452  0.46141  Biso   1.000  N
  C62      1.0000 0.44691  0.60438  0.63181  Biso   1.000  C
  C63      1.0000 0.47840  0.68460  0.57480  Biso   1.000  C
  C64      1.0000 0.42520  0.52160  0.68460  Biso   1.000  C
  H54      1.0000 0.69891  0.42350  0.43841  Biso   1.000  H
  H55      1.0000 0.64039  0.40001  0.45410  Biso   1.000  H
  H56      1.0000 0.69358  0.36400  0.46401  Biso   1.000  H
  C65      1.0000 0.76901  0.47011  0.50380  Biso   1.000  C
  H57      1.0000 0.57650  0.56159  0.69891  Biso   1.000  H
  H58      1.0000 0.59999  0.54590  0.64039  Biso   1.000  H
  H59      1.0000 0.63600  0.53599  0.69358  Biso   1.000  H
  C66      1.0000 0.52989  0.49620  0.76901  Biso   1.000  C
  H60      1.0000 0.43841  0.69891  0.42350  Biso   1.000  H
  H61      1.0000 0.45410  0.64039  0.40001  Biso   1.000  H
  H62      1.0000 0.46401  0.69358  0.36400  Biso   1.000  H
  C67      1.0000 0.50380  0.76901  0.47011  Biso   1.000  C
  H63      1.0000 0.69891  0.57650  0.56159  Biso   1.000  H
  H64      1.0000 0.64039  0.59999  0.54590  Biso   1.000  H
  H65      1.0000 0.69358  0.63600  0.53599  Biso   1.000  H
  C68      1.0000 0.76901  0.52989  0.49620  Biso   1.000  C
  H66      1.0000 0.47600  0.61060  0.65648  Biso   1.000  H
  C69      1.0000 0.53562  0.67879  0.59902  Biso   1.000  C
  N11      1.0000 0.46141  0.72370  0.54452  Biso   1.000  N
  C70      1.0000 0.40098  0.46438  0.67879  Biso   1.000  C
  N12      1.0000 0.45548  0.53859  0.72370  Biso   1.000  N
  H67      1.0000 0.76531  0.45162  0.46779  Biso   1.000  H
  C71      1.0000 0.82078  0.44959  0.53318  Biso   1.000  C
  C72      1.0000 0.47011  0.50380  0.76901  Biso   1.000  C
  H68      1.0000 0.54838  0.53221  0.76531  Biso   1.000  H
  C73      1.0000 0.55041  0.46682  0.82078  Biso   1.000  C
  C74      1.0000 0.49620  0.76901  0.52989  Biso   1.000  C
  H69      1.0000 0.46779  0.76531  0.45162  Biso   1.000  H
  C75      1.0000 0.53318  0.82078  0.44959  Biso   1.000  C
  H70      1.0000 0.76531  0.54838  0.53221  Biso   1.000  H
  C76      1.0000 0.82078  0.55041  0.46682  Biso   1.000  C
  H71      1.0000 0.56159  0.69891  0.57650  Biso   1.000  H
  H72      1.0000 0.54590  0.64039  0.59999  Biso   1.000  H
  H73      1.0000 0.53599  0.69358  0.63600  Biso   1.000  H
  H74      1.0000 0.42350  0.43841  0.69891  Biso   1.000  H
  H75      1.0000 0.40001  0.45410  0.64039  Biso   1.000  H
  H76      1.0000 0.36400  0.46401  0.69358  Biso   1.000  H
  H77      1.0000 0.82099  0.40940  0.53440  Biso   1.000  H
  H78      1.0000 0.82172  0.46361  0.57089  Biso   1.000  H
  C77      1.0000 0.87150  0.47088  0.50059  Biso   1.000  C
  H79      1.0000 0.45162  0.46779  0.76531  Biso   1.000  H
  C78      1.0000 0.44959  0.53318  0.82078  Biso   1.000  C
  H80      1.0000 0.59060  0.46560  0.82099  Biso   1.000  H
  H81      1.0000 0.53639  0.42911  0.82172  Biso   1.000  H
  C79      1.0000 0.52912  0.49941  0.87150  Biso   1.000  C
  H82      1.0000 0.53221  0.76531  0.54838  Biso   1.000  H
  C80      1.0000 0.46682  0.82078  0.55041  Biso   1.000  C
  H83      1.0000 0.53440  0.82099  0.40940  Biso   1.000  H
  H84      1.0000 0.57089  0.82172  0.46361  Biso   1.000  H
  C81      1.0000 0.50059  0.87150  0.47088  Biso   1.000  C
  H85      1.0000 0.82099  0.59060  0.46560  Biso   1.000  H
  H86      1.0000 0.82172  0.53639  0.42911  Biso   1.000  H
  C82      1.0000 0.87150  0.52912  0.49941  Biso   1.000  C
  H87      1.0000 0.89828  0.44841  0.48421  Biso   1.000  H
  H88      1.0000 0.40940  0.53440  0.82099  Biso   1.000  H
  H89      1.0000 0.46361  0.57089  0.82172  Biso   1.000  H
  C83      1.0000 0.47088  0.50059  0.87150  Biso   1.000  C
  H90      1.0000 0.55159  0.51579  0.89828  Biso   1.000  H
  H91      1.0000 0.46560  0.82099  0.59060  Biso   1.000  H
  H92      1.0000 0.42911  0.82172  0.53639  Biso   1.000  H
  C84      1.0000 0.49941  0.87150  0.52912  Biso   1.000  C
  H93      1.0000 0.48421  0.89828  0.44841  Biso   1.000  H
  H94      1.0000 0.89828  0.55159  0.51579  Biso   1.000  H
  H95      1.0000 0.44841  0.48421  0.89828  Biso   1.000  H
  H96      1.0000 0.51579  0.89828  0.55159  Biso   1.000  H
  C85      1.0000 0.37721  0.27960  0.24070  Biso   1.000  C
  C86      1.0000 0.42541  0.29219  0.20551  Biso   1.000  C
  C87      1.0000 0.37721  0.22038  0.25932  Biso   1.000  C
  H97      1.0000 0.34340  0.28711  0.22018  Biso   1.000  H
  H98      1.0000 0.37770  0.30361  0.27301  Biso   1.000  H
  C88      1.0000 0.47702  0.27760  0.23879  Biso   1.000  C
  H99      1.0000 0.42569  0.33121  0.19559  Biso   1.000  H
  H100     1.0000 0.42399  0.27049  0.17170  Biso   1.000  H
  C89      1.0000 0.42541  0.20779  0.29451  Biso   1.000  C
  H101     1.0000 0.34340  0.21291  0.27980  Biso   1.000  H
  H102     1.0000 0.37770  0.19641  0.22701  Biso   1.000  H
  C90      1.0000 0.47702  0.22242  0.26119  Biso   1.000  C
  H103     1.0000 0.47881  0.30341  0.27009  Biso   1.000  H
  N13      1.0000 0.52489  0.28760  0.20490  Biso   1.000  N
  H104     1.0000 0.42569  0.16881  0.30438  Biso   1.000  H
  H105     1.0000 0.42399  0.22949  0.32828  Biso   1.000  H
  H106     1.0000 0.47881  0.19661  0.22989  Biso   1.000  H
  N14      1.0000 0.52489  0.21242  0.29512  Biso   1.000  N
  C91      1.0000 0.55431  0.32670  0.21571  Biso   1.000  C
  C92      1.0000 0.55431  0.17328  0.28431  Biso   1.000  C
  C93      1.0000 0.60410  0.33820  0.18101  Biso   1.000  C
  H107     1.0000 0.54590  0.34962  0.24558  Biso   1.000  H
  C94      1.0000 0.60410  0.16178  0.31901  Biso   1.000  C
  H108     1.0000 0.54590  0.15040  0.25440  Biso   1.000  H
  C95      1.0000 0.63571  0.38282  0.19218  Biso   1.000  C
  C96      1.0000 0.61718  0.30780  0.13569  Biso   1.000  C
  C97      1.0000 0.61718  0.19218  0.36429  Biso   1.000  C
  C98      1.0000 0.63571  0.11720  0.30780  Biso   1.000  C
  H109     1.0000 0.62600  0.40541  0.22189  Biso   1.000  H
  C99      1.0000 0.68099  0.39590  0.16178  Biso   1.000  C
  H110     1.0000 0.59459  0.27809  0.12598  Biso   1.000  H
  C100     1.0000 0.66180  0.31901  0.10412  Biso   1.000  C
  H111     1.0000 0.59459  0.22189  0.37400  Biso   1.000  H
  C101     1.0000 0.66180  0.18101  0.39590  Biso   1.000  C
  H112     1.0000 0.62600  0.09461  0.27809  Biso   1.000  H
  C102     1.0000 0.68099  0.10412  0.33820  Biso   1.000  C
  C103     1.0000 0.69220  0.36429  0.11720  Biso   1.000  C
  C104     1.0000 0.71569  0.44569  0.17328  Biso   1.000  C
  C105     1.0000 0.67330  0.28431  0.05429  Biso   1.000  C
  C106     1.0000 0.69220  0.13569  0.38282  Biso   1.000  C
  C107     1.0000 0.67330  0.21571  0.44569  Biso   1.000  C
  C108     1.0000 0.71569  0.05429  0.32670  Biso   1.000  C
  H113     1.0000 0.72191  0.37400  0.09461  Biso   1.000  H
  H114     1.0000 0.74560  0.45410  0.15040  Biso   1.000  H
  N15      1.0000 0.70488  0.47511  0.21242  Biso   1.000  N
  H115     1.0000 0.65038  0.25440  0.04588  Biso   1.000  H
  N16      1.0000 0.71240  0.29512  0.02491  Biso   1.000  N
  H116     1.0000 0.72191  0.12598  0.40541  Biso   1.000  H
  H117     1.0000 0.65038  0.24558  0.45410  Biso   1.000  H
  N17      1.0000 0.71240  0.20490  0.47511  Biso   1.000  N
  H118     1.0000 0.74560  0.04588  0.34962  Biso   1.000  H
  N18      1.0000 0.70488  0.02491  0.28760  Biso   1.000  N
  C109     1.0000 0.73881  0.52298  0.22242  Biso   1.000  C
  C110     1.0000 0.72240  0.26119  0.97700  Biso   1.000  C
  C111     1.0000 0.72240  0.23879  0.52298  Biso   1.000  C
  C112     1.0000 0.73881  0.97700  0.27760  Biso   1.000  C
  C113     1.0000 0.76121  0.52298  0.27760  Biso   1.000  C
  H119     1.0000 0.77011  0.52119  0.19661  Biso   1.000  H
  C114     1.0000 0.70549  0.57459  0.20779  Biso   1.000  C
  C115     1.0000 0.77758  0.23879  0.97700  Biso   1.000  C
  H120     1.0000 0.69659  0.22989  0.97879  Biso   1.000  H
  C116     1.0000 0.70781  0.29451  0.92539  Biso   1.000  C
  C117     1.0000 0.77758  0.26119  0.52298  Biso   1.000  C
  H121     1.0000 0.69659  0.27009  0.52119  Biso   1.000  H
  C118     1.0000 0.70781  0.20551  0.57459  Biso   1.000  C
  C119     1.0000 0.76121  0.97700  0.22242  Biso   1.000  C
  H122     1.0000 0.77011  0.97879  0.30341  Biso   1.000  H
  C120     1.0000 0.70549  0.92539  0.29219  Biso   1.000  C
  H123     1.0000 0.72991  0.52119  0.30341  Biso   1.000  H
  C121     1.0000 0.79449  0.57459  0.29219  Biso   1.000  C
  N19      1.0000 0.79510  0.47511  0.28760  Biso   1.000  N
  H124     1.0000 0.69562  0.57431  0.16881  Biso   1.000  H
  H125     1.0000 0.67172  0.57601  0.22949  Biso   1.000  H
  C122     1.0000 0.74068  0.62279  0.22038  Biso   1.000  C
  N20      1.0000 0.78758  0.20490  0.02491  Biso   1.000  N
  H126     1.0000 0.80339  0.27009  0.97879  Biso   1.000  H
  C123     1.0000 0.79221  0.20551  0.92539  Biso   1.000  C
  H127     1.0000 0.66879  0.30438  0.92571  Biso   1.000  H
  H128     1.0000 0.72951  0.32828  0.92401  Biso   1.000  H
  C124     1.0000 0.72040  0.25932  0.87719  Biso   1.000  C
  H129     1.0000 0.80339  0.22989  0.52119  Biso   1.000  H
  C125     1.0000 0.79221  0.29451  0.57459  Biso   1.000  C
  N21      1.0000 0.78758  0.29512  0.47511  Biso   1.000  N
  H130     1.0000 0.66879  0.19559  0.57431  Biso   1.000  H
  H131     1.0000 0.72951  0.17170  0.57601  Biso   1.000  H
  C126     1.0000 0.72040  0.24070  0.62279  Biso   1.000  C
  N22      1.0000 0.79510  0.02491  0.21242  Biso   1.000  N
  H132     1.0000 0.72991  0.97879  0.19661  Biso   1.000  H
  C127     1.0000 0.79449  0.92539  0.20779  Biso   1.000  C
  H133     1.0000 0.69562  0.92571  0.33121  Biso   1.000  H
  H134     1.0000 0.67172  0.92401  0.27049  Biso   1.000  H
  C128     1.0000 0.74068  0.87719  0.27960  Biso   1.000  C
  H135     1.0000 0.80441  0.57431  0.33121  Biso   1.000  H
  H136     1.0000 0.82830  0.57601  0.27049  Biso   1.000  H
  C129     1.0000 0.75930  0.62279  0.27960  Biso   1.000  C
  C130     1.0000 0.78429  0.44569  0.32670  Biso   1.000  C
  H137     1.0000 0.72020  0.65660  0.21291  Biso   1.000  H
  H138     1.0000 0.77299  0.62230  0.19641  Biso   1.000  H
  C131     1.0000 0.82672  0.21571  0.05429  Biso   1.000  C
  H139     1.0000 0.83119  0.19559  0.92571  Biso   1.000  H
  H140     1.0000 0.77051  0.17170  0.92401  Biso   1.000  H
  C132     1.0000 0.77962  0.24070  0.87719  Biso   1.000  C
  H141     1.0000 0.71289  0.27980  0.84342  Biso   1.000  H
  H142     1.0000 0.69639  0.22701  0.87772  Biso   1.000  H
  H143     1.0000 0.83119  0.30438  0.57431  Biso   1.000  H
  H144     1.0000 0.77051  0.32828  0.57601  Biso   1.000  H
  C133     1.0000 0.77962  0.25932  0.62279  Biso   1.000  C
  C134     1.0000 0.82672  0.28431  0.44569  Biso   1.000  C
  H145     1.0000 0.71289  0.22018  0.65660  Biso   1.000  H
  H146     1.0000 0.69639  0.27301  0.62230  Biso   1.000  H
  C135     1.0000 0.78429  0.05429  0.17328  Biso   1.000  C
  H147     1.0000 0.80441  0.92571  0.16881  Biso   1.000  H
  H148     1.0000 0.82830  0.92401  0.22949  Biso   1.000  H
  C136     1.0000 0.75930  0.87719  0.22038  Biso   1.000  C
  H149     1.0000 0.72020  0.84342  0.28711  Biso   1.000  H
  H150     1.0000 0.77299  0.87772  0.30361  Biso   1.000  H
  H151     1.0000 0.77982  0.65660  0.28711  Biso   1.000  H
  H152     1.0000 0.72699  0.62230  0.30361  Biso   1.000  H
  C137     1.0000 0.81899  0.39590  0.33820  Biso   1.000  C
  H153     1.0000 0.75442  0.45410  0.34962  Biso   1.000  H
  C138     1.0000 0.83822  0.18101  0.10412  Biso   1.000  C
  H154     1.0000 0.84960  0.24558  0.04588  Biso   1.000  H
  H155     1.0000 0.78709  0.22018  0.84342  Biso   1.000  H
  H156     1.0000 0.80359  0.27301  0.87772  Biso   1.000  H
  H157     1.0000 0.78709  0.27980  0.65660  Biso   1.000  H
  H158     1.0000 0.80359  0.22701  0.62230  Biso   1.000  H
  C139     1.0000 0.83822  0.31901  0.39590  Biso   1.000  C
  H159     1.0000 0.84960  0.25440  0.45410  Biso   1.000  H
  C140     1.0000 0.81899  0.10412  0.16178  Biso   1.000  C
  H160     1.0000 0.75442  0.04588  0.15040  Biso   1.000  H
  H161     1.0000 0.77982  0.84342  0.21291  Biso   1.000  H
  H162     1.0000 0.72699  0.87772  0.19641  Biso   1.000  H
  C141     1.0000 0.80782  0.36429  0.38282  Biso   1.000  C
  C142     1.0000 0.86431  0.38282  0.30780  Biso   1.000  C
  C143     1.0000 0.80782  0.13569  0.11720  Biso   1.000  C
  C144     1.0000 0.88280  0.19218  0.13569  Biso   1.000  C
  C145     1.0000 0.88280  0.30780  0.36429  Biso   1.000  C
  C146     1.0000 0.86431  0.11720  0.19218  Biso   1.000  C
  H163     1.0000 0.77811  0.37400  0.40541  Biso   1.000  H
  H164     1.0000 0.87402  0.40541  0.27809  Biso   1.000  H
  C147     1.0000 0.89588  0.33820  0.31901  Biso   1.000  C
  H165     1.0000 0.77811  0.12598  0.09461  Biso   1.000  H
  H166     1.0000 0.90539  0.22189  0.12598  Biso   1.000  H
  C148     1.0000 0.89588  0.16178  0.18101  Biso   1.000  C
  H167     1.0000 0.90539  0.27809  0.37400  Biso   1.000  H
  H168     1.0000 0.87402  0.09461  0.22189  Biso   1.000  H
  C149     1.0000 0.94571  0.32670  0.28431  Biso   1.000  C
  C150     1.0000 0.94571  0.17328  0.21571  Biso   1.000  C
  H169     1.0000 0.95412  0.34962  0.25440  Biso   1.000  H
  N23      1.0000 0.97509  0.28760  0.29512  Biso   1.000  N
  H170     1.0000 0.95412  0.15040  0.24558  Biso   1.000  H
  N24      1.0000 0.97509  0.21242  0.20490  Biso   1.000  N
  C151     1.0000 0.02300  0.27760  0.26119  Biso   1.000  C
  C152     1.0000 0.02300  0.22242  0.23879  Biso   1.000  C
  H171     1.0000 0.02121  0.30341  0.22989  Biso   1.000  H
  C153     1.0000 0.07461  0.29219  0.29451  Biso   1.000  C
  H172     1.0000 0.02121  0.19661  0.27009  Biso   1.000  H
  C154     1.0000 0.07461  0.20779  0.20551  Biso   1.000  C
  H173     1.0000 0.07429  0.33121  0.30438  Biso   1.000  H
  H174     1.0000 0.07599  0.27049  0.32828  Biso   1.000  H
  C155     1.0000 0.12281  0.27960  0.25932  Biso   1.000  C
  H175     1.0000 0.07429  0.16881  0.19559  Biso   1.000  H
  H176     1.0000 0.07599  0.22949  0.17170  Biso   1.000  H
  C156     1.0000 0.12281  0.22038  0.24070  Biso   1.000  C
  H177     1.0000 0.15658  0.28711  0.27980  Biso   1.000  H
  H178     1.0000 0.12228  0.30361  0.22701  Biso   1.000  H
  H179     1.0000 0.15658  0.21291  0.22018  Biso   1.000  H
  H180     1.0000 0.12228  0.19641  0.27301  Biso   1.000  H
  C157     1.0000 0.27960  0.24070  0.37721  Biso   1.000  C
  C158     1.0000 0.29219  0.20551  0.42541  Biso   1.000  C
  C159     1.0000 0.22038  0.25932  0.37721  Biso   1.000  C
  H181     1.0000 0.28711  0.22018  0.34340  Biso   1.000  H
  H182     1.0000 0.30361  0.27301  0.37770  Biso   1.000  H
  C160     1.0000 0.27760  0.23879  0.47702  Biso   1.000  C
  H183     1.0000 0.33121  0.19559  0.42569  Biso   1.000  H
  H184     1.0000 0.27049  0.17170  0.42399  Biso   1.000  H
  C161     1.0000 0.20779  0.29451  0.42541  Biso   1.000  C
  H185     1.0000 0.21291  0.27980  0.34340  Biso   1.000  H
  H186     1.0000 0.19641  0.22701  0.37770  Biso   1.000  H
  C162     1.0000 0.22242  0.26119  0.47702  Biso   1.000  C
  H187     1.0000 0.30341  0.27009  0.47881  Biso   1.000  H
  N25      1.0000 0.28760  0.20490  0.52489  Biso   1.000  N
  H188     1.0000 0.16881  0.30438  0.42569  Biso   1.000  H
  H189     1.0000 0.22949  0.32828  0.42399  Biso   1.000  H
  H190     1.0000 0.19661  0.22989  0.47881  Biso   1.000  H
  N26      1.0000 0.21242  0.29512  0.52489  Biso   1.000  N
  C163     1.0000 0.32670  0.21571  0.55431  Biso   1.000  C
  C164     1.0000 0.17328  0.28431  0.55431  Biso   1.000  C
  C165     1.0000 0.33820  0.18101  0.60410  Biso   1.000  C
  H191     1.0000 0.34962  0.24558  0.54590  Biso   1.000  H
  C166     1.0000 0.16178  0.31901  0.60410  Biso   1.000  C
  H192     1.0000 0.15040  0.25440  0.54590  Biso   1.000  H
  C167     1.0000 0.38282  0.19218  0.63571  Biso   1.000  C
  C168     1.0000 0.30780  0.13569  0.61718  Biso   1.000  C
  C169     1.0000 0.19218  0.36429  0.61718  Biso   1.000  C
  C170     1.0000 0.11720  0.30780  0.63571  Biso   1.000  C
  H193     1.0000 0.40541  0.22189  0.62600  Biso   1.000  H
  C171     1.0000 0.39590  0.16178  0.68099  Biso   1.000  C
  H194     1.0000 0.27809  0.12598  0.59459  Biso   1.000  H
  C172     1.0000 0.31901  0.10412  0.66180  Biso   1.000  C
  H195     1.0000 0.22189  0.37400  0.59459  Biso   1.000  H
  C173     1.0000 0.18101  0.39590  0.66180  Biso   1.000  C
  H196     1.0000 0.09461  0.27809  0.62600  Biso   1.000  H
  C174     1.0000 0.10412  0.33820  0.68099  Biso   1.000  C
  C175     1.0000 0.36429  0.11720  0.69220  Biso   1.000  C
  C176     1.0000 0.44569  0.17328  0.71569  Biso   1.000  C
  C177     1.0000 0.28431  0.05429  0.67330  Biso   1.000  C
  C178     1.0000 0.13569  0.38282  0.69220  Biso   1.000  C
  C179     1.0000 0.21571  0.44569  0.67330  Biso   1.000  C
  C180     1.0000 0.05429  0.32670  0.71569  Biso   1.000  C
  H197     1.0000 0.37400  0.09461  0.72191  Biso   1.000  H
  H198     1.0000 0.45410  0.15040  0.74560  Biso   1.000  H
  N27      1.0000 0.47511  0.21242  0.70488  Biso   1.000  N
  H199     1.0000 0.25440  0.04588  0.65038  Biso   1.000  H
  N28      1.0000 0.29512  0.02491  0.71240  Biso   1.000  N
  H200     1.0000 0.12598  0.40541  0.72191  Biso   1.000  H
  H201     1.0000 0.24558  0.45410  0.65038  Biso   1.000  H
  N29      1.0000 0.20490  0.47511  0.71240  Biso   1.000  N
  H202     1.0000 0.04588  0.34962  0.74560  Biso   1.000  H
  N30      1.0000 0.02491  0.28760  0.70488  Biso   1.000  N
  C181     1.0000 0.52298  0.22242  0.73881  Biso   1.000  C
  C182     1.0000 0.26119  0.97700  0.72240  Biso   1.000  C
  C183     1.0000 0.23879  0.52298  0.72240  Biso   1.000  C
  C184     1.0000 0.97700  0.27760  0.73881  Biso   1.000  C
  C185     1.0000 0.52298  0.27760  0.76121  Biso   1.000  C
  H203     1.0000 0.52119  0.19661  0.77011  Biso   1.000  H
  C186     1.0000 0.57459  0.20779  0.70549  Biso   1.000  C
  C187     1.0000 0.23879  0.97700  0.77758  Biso   1.000  C
  H204     1.0000 0.22989  0.97879  0.69659  Biso   1.000  H
  C188     1.0000 0.29451  0.92539  0.70781  Biso   1.000  C
  C189     1.0000 0.26119  0.52298  0.77758  Biso   1.000  C
  H205     1.0000 0.27009  0.52119  0.69659  Biso   1.000  H
  C190     1.0000 0.20551  0.57459  0.70781  Biso   1.000  C
  C191     1.0000 0.97700  0.22242  0.76121  Biso   1.000  C
  H206     1.0000 0.97879  0.30341  0.77011  Biso   1.000  H
  C192     1.0000 0.92539  0.29219  0.70549  Biso   1.000  C
  H207     1.0000 0.52119  0.30341  0.72991  Biso   1.000  H
  C193     1.0000 0.57459  0.29219  0.79449  Biso   1.000  C
  N31      1.0000 0.47511  0.28760  0.79510  Biso   1.000  N
  H208     1.0000 0.57431  0.16881  0.69562  Biso   1.000  H
  H209     1.0000 0.57601  0.22949  0.67172  Biso   1.000  H
  C194     1.0000 0.62279  0.22038  0.74068  Biso   1.000  C
  N32      1.0000 0.20490  0.02491  0.78758  Biso   1.000  N
  H210     1.0000 0.27009  0.97879  0.80339  Biso   1.000  H
  C195     1.0000 0.20551  0.92539  0.79221  Biso   1.000  C
  H211     1.0000 0.30438  0.92571  0.66879  Biso   1.000  H
  H212     1.0000 0.32828  0.92401  0.72951  Biso   1.000  H
  C196     1.0000 0.25932  0.87719  0.72040  Biso   1.000  C
  H213     1.0000 0.22989  0.52119  0.80339  Biso   1.000  H
  C197     1.0000 0.29451  0.57459  0.79221  Biso   1.000  C
  N33      1.0000 0.29512  0.47511  0.78758  Biso   1.000  N
  H214     1.0000 0.19559  0.57431  0.66879  Biso   1.000  H
  H215     1.0000 0.17170  0.57601  0.72951  Biso   1.000  H
  C198     1.0000 0.24070  0.62279  0.72040  Biso   1.000  C
  N34      1.0000 0.02491  0.21242  0.79510  Biso   1.000  N
  H216     1.0000 0.97879  0.19661  0.72991  Biso   1.000  H
  C199     1.0000 0.92539  0.20779  0.79449  Biso   1.000  C
  H217     1.0000 0.92571  0.33121  0.69562  Biso   1.000  H
  H218     1.0000 0.92401  0.27049  0.67172  Biso   1.000  H
  C200     1.0000 0.87719  0.27960  0.74068  Biso   1.000  C
  H219     1.0000 0.57431  0.33121  0.80441  Biso   1.000  H
  H220     1.0000 0.57601  0.27049  0.82830  Biso   1.000  H
  C201     1.0000 0.62279  0.27960  0.75930  Biso   1.000  C
  C202     1.0000 0.44569  0.32670  0.78429  Biso   1.000  C
  H221     1.0000 0.65660  0.21291  0.72020  Biso   1.000  H
  H222     1.0000 0.62230  0.19641  0.77299  Biso   1.000  H
  C203     1.0000 0.21571  0.05429  0.82672  Biso   1.000  C
  H223     1.0000 0.19559  0.92571  0.83119  Biso   1.000  H
  H224     1.0000 0.17170  0.92401  0.77051  Biso   1.000  H
  C204     1.0000 0.24070  0.87719  0.77962  Biso   1.000  C
  H225     1.0000 0.27980  0.84342  0.71289  Biso   1.000  H
  H226     1.0000 0.22701  0.87772  0.69639  Biso   1.000  H
  H227     1.0000 0.30438  0.57431  0.83119  Biso   1.000  H
  H228     1.0000 0.32828  0.57601  0.77051  Biso   1.000  H
  C205     1.0000 0.25932  0.62279  0.77962  Biso   1.000  C
  C206     1.0000 0.28431  0.44569  0.82672  Biso   1.000  C
  H229     1.0000 0.22018  0.65660  0.71289  Biso   1.000  H
  H230     1.0000 0.27301  0.62230  0.69639  Biso   1.000  H
  C207     1.0000 0.05429  0.17328  0.78429  Biso   1.000  C
  H231     1.0000 0.92571  0.16881  0.80441  Biso   1.000  H
  H232     1.0000 0.92401  0.22949  0.82830  Biso   1.000  H
  C208     1.0000 0.87719  0.22038  0.75930  Biso   1.000  C
  H233     1.0000 0.84342  0.28711  0.72020  Biso   1.000  H
  H234     1.0000 0.87772  0.30361  0.77299  Biso   1.000  H
  H235     1.0000 0.65660  0.28711  0.77982  Biso   1.000  H
  H236     1.0000 0.62230  0.30361  0.72699  Biso   1.000  H
  C209     1.0000 0.39590  0.33820  0.81899  Biso   1.000  C
  H237     1.0000 0.45410  0.34962  0.75442  Biso   1.000  H
  C210     1.0000 0.18101  0.10412  0.83822  Biso   1.000  C
  H238     1.0000 0.24558  0.04588  0.84960  Biso   1.000  H
  H239     1.0000 0.22018  0.84342  0.78709  Biso   1.000  H
  H240     1.0000 0.27301  0.87772  0.80359  Biso   1.000  H
  H241     1.0000 0.27980  0.65660  0.78709  Biso   1.000  H
  H242     1.0000 0.22701  0.62230  0.80359  Biso   1.000  H
  C211     1.0000 0.31901  0.39590  0.83822  Biso   1.000  C
  H243     1.0000 0.25440  0.45410  0.84960  Biso   1.000  H
  C212     1.0000 0.10412  0.16178  0.81899  Biso   1.000  C
  H244     1.0000 0.04588  0.15040  0.75442  Biso   1.000  H
  H245     1.0000 0.84342  0.21291  0.77982  Biso   1.000  H
  H246     1.0000 0.87772  0.19641  0.72699  Biso   1.000  H
  C213     1.0000 0.36429  0.38282  0.80782  Biso   1.000  C
  C214     1.0000 0.38282  0.30780  0.86431  Biso   1.000  C
  C215     1.0000 0.19218  0.13569  0.88280  Biso   1.000  C
  C216     1.0000 0.13569  0.11720  0.80782  Biso   1.000  C
  C217     1.0000 0.30780  0.36429  0.88280  Biso   1.000  C
  C218     1.0000 0.11720  0.19218  0.86431  Biso   1.000  C
  H247     1.0000 0.37400  0.40541  0.77811  Biso   1.000  H
  H248     1.0000 0.40541  0.27809  0.87402  Biso   1.000  H
  C219     1.0000 0.33820  0.31901  0.89588  Biso   1.000  C
  H249     1.0000 0.22189  0.12598  0.90539  Biso   1.000  H
  C220     1.0000 0.16178  0.18101  0.89588  Biso   1.000  C
  H250     1.0000 0.12598  0.09461  0.77811  Biso   1.000  H
  H251     1.0000 0.27809  0.37400  0.90539  Biso   1.000  H
  H252     1.0000 0.09461  0.22189  0.87402  Biso   1.000  H
  C221     1.0000 0.32670  0.28431  0.94571  Biso   1.000  C
  C222     1.0000 0.17328  0.21571  0.94571  Biso   1.000  C
  H253     1.0000 0.34962  0.25440  0.95412  Biso   1.000  H
  N35      1.0000 0.28760  0.29512  0.97509  Biso   1.000  N
  H254     1.0000 0.15040  0.24558  0.95412  Biso   1.000  H
  N36      1.0000 0.21242  0.20490  0.97509  Biso   1.000  N
  C223     1.0000 0.27760  0.26119  0.02300  Biso   1.000  C
  C224     1.0000 0.22242  0.23879  0.02300  Biso   1.000  C
  H255     1.0000 0.30341  0.22989  0.02121  Biso   1.000  H
  C225     1.0000 0.29219  0.29451  0.07461  Biso   1.000  C
  H256     1.0000 0.19661  0.27009  0.02121  Biso   1.000  H
  C226     1.0000 0.20779  0.20551  0.07461  Biso   1.000  C
  H257     1.0000 0.33121  0.30438  0.07429  Biso   1.000  H
  H258     1.0000 0.27049  0.32828  0.07599  Biso   1.000  H
  C227     1.0000 0.27960  0.25932  0.12281  Biso   1.000  C
  H259     1.0000 0.16881  0.19559  0.07429  Biso   1.000  H
  H260     1.0000 0.22949  0.17170  0.07599  Biso   1.000  H
  C228     1.0000 0.22038  0.24070  0.12281  Biso   1.000  C
  H261     1.0000 0.28711  0.27980  0.15658  Biso   1.000  H
  H262     1.0000 0.30361  0.22701  0.12228  Biso   1.000  H
  H263     1.0000 0.21291  0.22018  0.15658  Biso   1.000  H
  H264     1.0000 0.19641  0.27301  0.12228  Biso   1.000  H
  C229     1.0000 0.24070  0.37721  0.27960  Biso   1.000  C
  C230     1.0000 0.25932  0.37721  0.22038  Biso   1.000  C
  C231     1.0000 0.20551  0.42541  0.29219  Biso   1.000  C
  H265     1.0000 0.22018  0.34340  0.28711  Biso   1.000  H
  H266     1.0000 0.27301  0.37770  0.30361  Biso   1.000  H
  C232     1.0000 0.29451  0.42541  0.20779  Biso   1.000  C
  H267     1.0000 0.27980  0.34340  0.21291  Biso   1.000  H
  H268     1.0000 0.22701  0.37770  0.19641  Biso   1.000  H
  C233     1.0000 0.23879  0.47702  0.27760  Biso   1.000  C
  H269     1.0000 0.19559  0.42569  0.33121  Biso   1.000  H
  H270     1.0000 0.17170  0.42399  0.27049  Biso   1.000  H
  C234     1.0000 0.26119  0.47702  0.22242  Biso   1.000  C
  H271     1.0000 0.30438  0.42569  0.16881  Biso   1.000  H
  H272     1.0000 0.32828  0.42399  0.22949  Biso   1.000  H
  H273     1.0000 0.27009  0.47881  0.30341  Biso   1.000  H
  N37      1.0000 0.20490  0.52489  0.28760  Biso   1.000  N
  H274     1.0000 0.22989  0.47881  0.19661  Biso   1.000  H
  N38      1.0000 0.29512  0.52489  0.21242  Biso   1.000  N
  C235     1.0000 0.21571  0.55431  0.32670  Biso   1.000  C
  C236     1.0000 0.28431  0.55431  0.17328  Biso   1.000  C
  C237     1.0000 0.18101  0.60410  0.33820  Biso   1.000  C
  H275     1.0000 0.24558  0.54590  0.34962  Biso   1.000  H
  C238     1.0000 0.31901  0.60410  0.16178  Biso   1.000  C
  H276     1.0000 0.25440  0.54590  0.15040  Biso   1.000  H
  C239     1.0000 0.19218  0.63571  0.38282  Biso   1.000  C
  C240     1.0000 0.13569  0.61718  0.30780  Biso   1.000  C
  C241     1.0000 0.36429  0.61718  0.19218  Biso   1.000  C
  C242     1.0000 0.30780  0.63571  0.11720  Biso   1.000  C
  H277     1.0000 0.22189  0.62600  0.40541  Biso   1.000  H
  C243     1.0000 0.16178  0.68099  0.39590  Biso   1.000  C
  H278     1.0000 0.12598  0.59459  0.27809  Biso   1.000  H
  C244     1.0000 0.10412  0.66180  0.31901  Biso   1.000  C
  H279     1.0000 0.37400  0.59459  0.22189  Biso   1.000  H
  C245     1.0000 0.39590  0.66180  0.18101  Biso   1.000  C
  H280     1.0000 0.27809  0.62600  0.09461  Biso   1.000  H
  C246     1.0000 0.33820  0.68099  0.10412  Biso   1.000  C
  C247     1.0000 0.11720  0.69220  0.36429  Biso   1.000  C
  C248     1.0000 0.17328  0.71569  0.44569  Biso   1.000  C
  C249     1.0000 0.05429  0.67330  0.28431  Biso   1.000  C
  C250     1.0000 0.38282  0.69220  0.13569  Biso   1.000  C
  C251     1.0000 0.44569  0.67330  0.21571  Biso   1.000  C
  C252     1.0000 0.32670  0.71569  0.05429  Biso   1.000  C
  H281     1.0000 0.09461  0.72191  0.37400  Biso   1.000  H
  H282     1.0000 0.15040  0.74560  0.45410  Biso   1.000  H
  N39      1.0000 0.21242  0.70488  0.47511  Biso   1.000  N
  H283     1.0000 0.04588  0.65038  0.25440  Biso   1.000  H
  N40      1.0000 0.02491  0.71240  0.29512  Biso   1.000  N
  H284     1.0000 0.40541  0.72191  0.12598  Biso   1.000  H
  H285     1.0000 0.45410  0.65038  0.24558  Biso   1.000  H
  N41      1.0000 0.47511  0.71240  0.20490  Biso   1.000  N
  H286     1.0000 0.34962  0.74560  0.04588  Biso   1.000  H
  N42      1.0000 0.28760  0.70488  0.02491  Biso   1.000  N
  C253     1.0000 0.22242  0.73881  0.52298  Biso   1.000  C
  C254     1.0000 0.97700  0.72240  0.26119  Biso   1.000  C
  C255     1.0000 0.52298  0.72240  0.23879  Biso   1.000  C
  C256     1.0000 0.27760  0.73881  0.97700  Biso   1.000  C
  C257     1.0000 0.27760  0.76121  0.52298  Biso   1.000  C
  H287     1.0000 0.19661  0.77011  0.52119  Biso   1.000  H
  C258     1.0000 0.20779  0.70549  0.57459  Biso   1.000  C
  C259     1.0000 0.97700  0.77758  0.23879  Biso   1.000  C
  H288     1.0000 0.97879  0.69659  0.22989  Biso   1.000  H
  C260     1.0000 0.92539  0.70781  0.29451  Biso   1.000  C
  C261     1.0000 0.52298  0.77758  0.26119  Biso   1.000  C
  H289     1.0000 0.52119  0.69659  0.27009  Biso   1.000  H
  C262     1.0000 0.57459  0.70781  0.20551  Biso   1.000  C
  C263     1.0000 0.22242  0.76121  0.97700  Biso   1.000  C
  H290     1.0000 0.30341  0.77011  0.97879  Biso   1.000  H
  C264     1.0000 0.29219  0.70549  0.92539  Biso   1.000  C
  H291     1.0000 0.30341  0.72991  0.52119  Biso   1.000  H
  C265     1.0000 0.29219  0.79449  0.57459  Biso   1.000  C
  N43      1.0000 0.28760  0.79510  0.47511  Biso   1.000  N
  H292     1.0000 0.16881  0.69562  0.57431  Biso   1.000  H
  H293     1.0000 0.22949  0.67172  0.57601  Biso   1.000  H
  C266     1.0000 0.22038  0.74068  0.62279  Biso   1.000  C
  N44      1.0000 0.02491  0.78758  0.20490  Biso   1.000  N
  H294     1.0000 0.97879  0.80339  0.27009  Biso   1.000  H
  C267     1.0000 0.92539  0.79221  0.20551  Biso   1.000  C
  H295     1.0000 0.92571  0.66879  0.30438  Biso   1.000  H
  H296     1.0000 0.92401  0.72951  0.32828  Biso   1.000  H
  C268     1.0000 0.87719  0.72040  0.25932  Biso   1.000  C
  H297     1.0000 0.52119  0.80339  0.22989  Biso   1.000  H
  C269     1.0000 0.57459  0.79221  0.29451  Biso   1.000  C
  N45      1.0000 0.47511  0.78758  0.29512  Biso   1.000  N
  H298     1.0000 0.57431  0.66879  0.19559  Biso   1.000  H
  H299     1.0000 0.57601  0.72951  0.17170  Biso   1.000  H
  C270     1.0000 0.62279  0.72040  0.24070  Biso   1.000  C
  N46      1.0000 0.21242  0.79510  0.02491  Biso   1.000  N
  H300     1.0000 0.19661  0.72991  0.97879  Biso   1.000  H
  C271     1.0000 0.20779  0.79449  0.92539  Biso   1.000  C
  H301     1.0000 0.33121  0.69562  0.92571  Biso   1.000  H
  H302     1.0000 0.27049  0.67172  0.92401  Biso   1.000  H
  C272     1.0000 0.27960  0.74068  0.87719  Biso   1.000  C
  H303     1.0000 0.33121  0.80441  0.57431  Biso   1.000  H
  H304     1.0000 0.27049  0.82830  0.57601  Biso   1.000  H
  C273     1.0000 0.27960  0.75930  0.62279  Biso   1.000  C
  C274     1.0000 0.32670  0.78429  0.44569  Biso   1.000  C
  H305     1.0000 0.21291  0.72020  0.65660  Biso   1.000  H
  H306     1.0000 0.19641  0.77299  0.62230  Biso   1.000  H
  C275     1.0000 0.05429  0.82672  0.21571  Biso   1.000  C
  H307     1.0000 0.92571  0.83119  0.19559  Biso   1.000  H
  H308     1.0000 0.92401  0.77051  0.17170  Biso   1.000  H
  C276     1.0000 0.87719  0.77962  0.24070  Biso   1.000  C
  H309     1.0000 0.84342  0.71289  0.27980  Biso   1.000  H
  H310     1.0000 0.87772  0.69639  0.22701  Biso   1.000  H
  H311     1.0000 0.57431  0.83119  0.30438  Biso   1.000  H
  H312     1.0000 0.57601  0.77051  0.32828  Biso   1.000  H
  C277     1.0000 0.62279  0.77962  0.25932  Biso   1.000  C
  C278     1.0000 0.44569  0.82672  0.28431  Biso   1.000  C
  H313     1.0000 0.65660  0.71289  0.22018  Biso   1.000  H
  H314     1.0000 0.62230  0.69639  0.27301  Biso   1.000  H
  C279     1.0000 0.17328  0.78429  0.05429  Biso   1.000  C
  H315     1.0000 0.16881  0.80441  0.92571  Biso   1.000  H
  H316     1.0000 0.22949  0.82830  0.92401  Biso   1.000  H
  C280     1.0000 0.22038  0.75930  0.87719  Biso   1.000  C
  H317     1.0000 0.28711  0.72020  0.84342  Biso   1.000  H
  H318     1.0000 0.30361  0.77299  0.87772  Biso   1.000  H
  H319     1.0000 0.28711  0.77982  0.65660  Biso   1.000  H
  H320     1.0000 0.30361  0.72699  0.62230  Biso   1.000  H
  C281     1.0000 0.33820  0.81899  0.39590  Biso   1.000  C
  H321     1.0000 0.34962  0.75442  0.45410  Biso   1.000  H
  C282     1.0000 0.10412  0.83822  0.18101  Biso   1.000  C
  H322     1.0000 0.04588  0.84960  0.24558  Biso   1.000  H
  H323     1.0000 0.84342  0.78709  0.22018  Biso   1.000  H
  H324     1.0000 0.87772  0.80359  0.27301  Biso   1.000  H
  H325     1.0000 0.65660  0.78709  0.27980  Biso   1.000  H
  H326     1.0000 0.62230  0.80359  0.22701  Biso   1.000  H
  C283     1.0000 0.39590  0.83822  0.31901  Biso   1.000  C
  H327     1.0000 0.45410  0.84960  0.25440  Biso   1.000  H
  C284     1.0000 0.16178  0.81899  0.10412  Biso   1.000  C
  H328     1.0000 0.15040  0.75442  0.04588  Biso   1.000  H
  H329     1.0000 0.21291  0.77982  0.84342  Biso   1.000  H
  H330     1.0000 0.19641  0.72699  0.87772  Biso   1.000  H
  C285     1.0000 0.38282  0.80782  0.36429  Biso   1.000  C
  C286     1.0000 0.30780  0.86431  0.38282  Biso   1.000  C
  C287     1.0000 0.11720  0.80782  0.13569  Biso   1.000  C
  C288     1.0000 0.13569  0.88280  0.19218  Biso   1.000  C
  C289     1.0000 0.36429  0.88280  0.30780  Biso   1.000  C
  C290     1.0000 0.19218  0.86431  0.11720  Biso   1.000  C
  H331     1.0000 0.40541  0.77811  0.37400  Biso   1.000  H
  C291     1.0000 0.31901  0.89588  0.33820  Biso   1.000  C
  H332     1.0000 0.27809  0.87402  0.40541  Biso   1.000  H
  H333     1.0000 0.09461  0.77811  0.12598  Biso   1.000  H
  C292     1.0000 0.18101  0.89588  0.16178  Biso   1.000  C
  H334     1.0000 0.12598  0.90539  0.22189  Biso   1.000  H
  H335     1.0000 0.37400  0.90539  0.27809  Biso   1.000  H
  H336     1.0000 0.22189  0.87402  0.09461  Biso   1.000  H
  C293     1.0000 0.28431  0.94571  0.32670  Biso   1.000  C
  C294     1.0000 0.21571  0.94571  0.17328  Biso   1.000  C
  H337     1.0000 0.25440  0.95412  0.34962  Biso   1.000  H
  N47      1.0000 0.29512  0.97509  0.28760  Biso   1.000  N
  H338     1.0000 0.24558  0.95412  0.15040  Biso   1.000  H
  N48      1.0000 0.20490  0.97509  0.21242  Biso   1.000  N
  C295     1.0000 0.26119  0.02300  0.27760  Biso   1.000  C
  C296     1.0000 0.23879  0.02300  0.22242  Biso   1.000  C
  H339     1.0000 0.22989  0.02121  0.30341  Biso   1.000  H
  C297     1.0000 0.29451  0.07461  0.29219  Biso   1.000  C
  H340     1.0000 0.27009  0.02121  0.19661  Biso   1.000  H
  C298     1.0000 0.20551  0.07461  0.20779  Biso   1.000  C
  H341     1.0000 0.30438  0.07429  0.33121  Biso   1.000  H
  H342     1.0000 0.32828  0.07599  0.27049  Biso   1.000  H
  C299     1.0000 0.25932  0.12281  0.27960  Biso   1.000  C
  H343     1.0000 0.19559  0.07429  0.16881  Biso   1.000  H
  H344     1.0000 0.17170  0.07599  0.22949  Biso   1.000  H
  C300     1.0000 0.24070  0.12281  0.22038  Biso   1.000  C
  H345     1.0000 0.27980  0.15658  0.28711  Biso   1.000  H
  H346     1.0000 0.22701  0.12228  0.30361  Biso   1.000  H
  H347     1.0000 0.22018  0.15658  0.21291  Biso   1.000  H
  H348     1.0000 0.27301  0.12228  0.19641  Biso   1.000  H
  C301     1.0000 0.46682  0.32080  0.05039  Biso   1.000  C
  C302     1.0000 0.49620  0.26899  0.02991  Biso   1.000  C
  H349     1.0000 0.46560  0.32101  0.09058  Biso   1.000  H
  H350     1.0000 0.42911  0.32170  0.03641  Biso   1.000  H
  C303     1.0000 0.49941  0.37152  0.02910  Biso   1.000  C
  N49      1.0000 0.46141  0.22372  0.04450  Biso   1.000  N
  H351     1.0000 0.53221  0.26529  0.04840  Biso   1.000  H
  C304     1.0000 0.50380  0.26899  0.97009  Biso   1.000  C
  H352     1.0000 0.51579  0.39830  0.05161  Biso   1.000  H
  C305     1.0000 0.50059  0.37152  0.97090  Biso   1.000  C
  C306     1.0000 0.47840  0.18458  0.07482  Biso   1.000  C
  H353     1.0000 0.46779  0.26529  0.95160  Biso   1.000  H
  C307     1.0000 0.53318  0.32080  0.94961  Biso   1.000  C
  N50      1.0000 0.53859  0.22372  0.95550  Biso   1.000  N
  H354     1.0000 0.48421  0.39830  0.94839  Biso   1.000  H
  C308     1.0000 0.43870  0.13911  0.08750  Biso   1.000  C
  C309     1.0000 0.53562  0.17881  0.09900  Biso   1.000  C
  H355     1.0000 0.53440  0.32101  0.90942  Biso   1.000  H
  H356     1.0000 0.57089  0.32170  0.96359  Biso   1.000  H
  C310     1.0000 0.52160  0.18458  0.92518  Biso   1.000  C
  C311     1.0000 0.44691  0.10440  0.13179  Biso   1.000  C
  C312     1.0000 0.39562  0.13179  0.05311  Biso   1.000  C
  H357     1.0000 0.56159  0.19889  0.07648  Biso   1.000  H
  H358     1.0000 0.54590  0.14041  0.10001  Biso   1.000  H
  H359     1.0000 0.53599  0.19360  0.13602  Biso   1.000  H
  C313     1.0000 0.56130  0.13911  0.91250  Biso   1.000  C
  C314     1.0000 0.46438  0.17881  0.90100  Biso   1.000  C
  H360     1.0000 0.47600  0.11062  0.15650  Biso   1.000  H
  C315     1.0000 0.41248  0.06128  0.13911  Biso   1.000  C
  H361     1.0000 0.38940  0.15650  0.02402  Biso   1.000  H
  C316     1.0000 0.36091  0.08750  0.06128  Biso   1.000  C
  C317     1.0000 0.60438  0.13179  0.94689  Biso   1.000  C
  C318     1.0000 0.55309  0.10440  0.86821  Biso   1.000  C
  H362     1.0000 0.43841  0.19889  0.92352  Biso   1.000  H
  H363     1.0000 0.45410  0.14041  0.89999  Biso   1.000  H
  H364     1.0000 0.46401  0.19360  0.86398  Biso   1.000  H
  C319     1.0000 0.36819  0.05311  0.10440  Biso   1.000  C
  C320     1.0000 0.42520  0.02162  0.18458  Biso   1.000  C
  C321     1.0000 0.31540  0.07482  0.02162  Biso   1.000  C
  H365     1.0000 0.61060  0.15650  0.97598  Biso   1.000  H
  C322     1.0000 0.63909  0.08750  0.93872  Biso   1.000  C
  H366     1.0000 0.52400  0.11062  0.84350  Biso   1.000  H
  C323     1.0000 0.58752  0.06128  0.86089  Biso   1.000  C
  H367     1.0000 0.34352  0.02402  0.11062  Biso   1.000  H
  N51      1.0000 0.45548  0.03861  0.22372  Biso   1.000  N
  C324     1.0000 0.40098  0.96440  0.17881  Biso   1.000  C
  N52      1.0000 0.27630  0.04450  0.03861  Biso   1.000  N
  C325     1.0000 0.32121  0.09900  0.96440  Biso   1.000  C
  C326     1.0000 0.63181  0.05311  0.89560  Biso   1.000  C
  C327     1.0000 0.68460  0.07482  0.97838  Biso   1.000  C
  C328     1.0000 0.57480  0.02162  0.81542  Biso   1.000  C
  C329     1.0000 0.47011  0.00382  0.26899  Biso   1.000  C
  H368     1.0000 0.42350  0.93839  0.19889  Biso   1.000  H
  H369     1.0000 0.40001  0.95412  0.14041  Biso   1.000  H
  H370     1.0000 0.36400  0.96399  0.19360  Biso   1.000  H
  C330     1.0000 0.23099  0.02991  0.00382  Biso   1.000  C
  H371     1.0000 0.30109  0.07648  0.93839  Biso   1.000  H
  H372     1.0000 0.35961  0.10001  0.95412  Biso   1.000  H
  H373     1.0000 0.30642  0.13602  0.96399  Biso   1.000  H
  H374     1.0000 0.65648  0.02402  0.88938  Biso   1.000  H
  C331     1.0000 0.67879  0.09900  0.03560  Biso   1.000  C
  N53      1.0000 0.72370  0.04450  0.96139  Biso   1.000  N
  C332     1.0000 0.59902  0.96440  0.82119  Biso   1.000  C
  N54      1.0000 0.54452  0.03861  0.77628  Biso   1.000  N
  C333     1.0000 0.44959  0.03320  0.32080  Biso   1.000  C
  C334     1.0000 0.52989  0.99618  0.26899  Biso   1.000  C
  H375     1.0000 0.45162  0.96781  0.26529  Biso   1.000  H
  C335     1.0000 0.17922  0.05039  0.03320  Biso   1.000  C
  C336     1.0000 0.23099  0.97009  0.99618  Biso   1.000  C
  H376     1.0000 0.23469  0.04840  0.96781  Biso   1.000  H
  H377     1.0000 0.69891  0.07648  0.06161  Biso   1.000  H
  H378     1.0000 0.64039  0.10001  0.04588  Biso   1.000  H
  H379     1.0000 0.69358  0.13602  0.03601  Biso   1.000  H
  C337     1.0000 0.76901  0.02991  0.99618  Biso   1.000  C
  H380     1.0000 0.57650  0.93839  0.80111  Biso   1.000  H
  H381     1.0000 0.59999  0.95412  0.85959  Biso   1.000  H
  H382     1.0000 0.63600  0.96399  0.80640  Biso   1.000  H
  C338     1.0000 0.52989  0.00382  0.73101  Biso   1.000  C
  H383     1.0000 0.40940  0.03438  0.32101  Biso   1.000  H
  H384     1.0000 0.46361  0.07091  0.32170  Biso   1.000  H
  C339     1.0000 0.47088  0.00061  0.37152  Biso   1.000  C
  H385     1.0000 0.54838  0.03219  0.26529  Biso   1.000  H
  C340     1.0000 0.55041  0.96680  0.32080  Biso   1.000  C
  N55      1.0000 0.54452  0.96139  0.22372  Biso   1.000  N
  H386     1.0000 0.17901  0.09058  0.03438  Biso   1.000  H
  H387     1.0000 0.17828  0.03641  0.07091  Biso   1.000  H
  C341     1.0000 0.12850  0.02910  0.00061  Biso   1.000  C
  C342     1.0000 0.17922  0.94961  0.96680  Biso   1.000  C
  N56      1.0000 0.27630  0.95550  0.96139  Biso   1.000  N
  H388     1.0000 0.23469  0.95160  0.03219  Biso   1.000  H
  C343     1.0000 0.76901  0.97009  0.00382  Biso   1.000  C
  H389     1.0000 0.76531  0.04840  0.03219  Biso   1.000  H
  C344     1.0000 0.82078  0.05039  0.96680  Biso   1.000  C
  C345     1.0000 0.47011  0.99618  0.73101  Biso   1.000  C
  H390     1.0000 0.54838  0.96781  0.73471  Biso   1.000  H
  C346     1.0000 0.55041  0.03320  0.67920  Biso   1.000  C
  C347     1.0000 0.52912  0.99939  0.37152  Biso   1.000  C
  H391     1.0000 0.44841  0.98419  0.39830  Biso   1.000  H
  H392     1.0000 0.59060  0.96562  0.32101  Biso   1.000  H
  H393     1.0000 0.53639  0.92909  0.32170  Biso   1.000  H
  C348     1.0000 0.57480  0.97838  0.18458  Biso   1.000  C
  C349     1.0000 0.12850  0.97090  0.99939  Biso   1.000  C
  H394     1.0000 0.10172  0.05161  0.98419  Biso   1.000  H
  H395     1.0000 0.17901  0.90942  0.96562  Biso   1.000  H
  H396     1.0000 0.17828  0.96359  0.92909  Biso   1.000  H
  C350     1.0000 0.31540  0.92518  0.97838  Biso   1.000  C
  N57      1.0000 0.72370  0.95550  0.03861  Biso   1.000  N
  H397     1.0000 0.76531  0.95160  0.96781  Biso   1.000  H
  C351     1.0000 0.82078  0.94961  0.03320  Biso   1.000  C
  H398     1.0000 0.82099  0.09058  0.96562  Biso   1.000  H
  H399     1.0000 0.82172  0.03641  0.92909  Biso   1.000  H
  C352     1.0000 0.87150  0.02910  0.99939  Biso   1.000  C
  N58      1.0000 0.45548  0.96139  0.77628  Biso   1.000  N
  C353     1.0000 0.44959  0.96680  0.67920  Biso   1.000  C
  H400     1.0000 0.45162  0.03219  0.73471  Biso   1.000  H
  H401     1.0000 0.59060  0.03438  0.67899  Biso   1.000  H
  H402     1.0000 0.53639  0.07091  0.67830  Biso   1.000  H
  C354     1.0000 0.52912  0.00061  0.62848  Biso   1.000  C
  H403     1.0000 0.55159  0.01581  0.39830  Biso   1.000  H
  C355     1.0000 0.59902  0.03560  0.17881  Biso   1.000  C
  C356     1.0000 0.58752  0.93872  0.13911  Biso   1.000  C
  H404     1.0000 0.10172  0.94839  0.01581  Biso   1.000  H
  C357     1.0000 0.36091  0.91250  0.93872  Biso   1.000  C
  C358     1.0000 0.32121  0.90100  0.03560  Biso   1.000  C
  C359     1.0000 0.68460  0.92518  0.02162  Biso   1.000  C
  H405     1.0000 0.82099  0.90942  0.03438  Biso   1.000  H
  H406     1.0000 0.82172  0.96359  0.07091  Biso   1.000  H
  C360     1.0000 0.87150  0.97090  0.00061  Biso   1.000  C
  H407     1.0000 0.89828  0.05161  0.01581  Biso   1.000  H
  C361     1.0000 0.42520  0.97838  0.81542  Biso   1.000  C
  H408     1.0000 0.40940  0.96562  0.67899  Biso   1.000  H
  H409     1.0000 0.46361  0.92909  0.67830  Biso   1.000  H
  C362     1.0000 0.47088  0.99939  0.62848  Biso   1.000  C
  H410     1.0000 0.55159  0.98419  0.60170  Biso   1.000  H
  H411     1.0000 0.57650  0.06161  0.19889  Biso   1.000  H
  H412     1.0000 0.59999  0.04588  0.14041  Biso   1.000  H
  H413     1.0000 0.63600  0.03601  0.19360  Biso   1.000  H
  C363     1.0000 0.55309  0.89560  0.13179  Biso   1.000  C
  C364     1.0000 0.63181  0.94689  0.10440  Biso   1.000  C
  C365     1.0000 0.39562  0.86821  0.94689  Biso   1.000  C
  C366     1.0000 0.36819  0.94689  0.89560  Biso   1.000  C
  H414     1.0000 0.30109  0.92352  0.06161  Biso   1.000  H
  H415     1.0000 0.35961  0.89999  0.04588  Biso   1.000  H
  H416     1.0000 0.30642  0.86398  0.03601  Biso   1.000  H
  C367     1.0000 0.63909  0.91250  0.06128  Biso   1.000  C
  C368     1.0000 0.67879  0.90100  0.96440  Biso   1.000  C
  H417     1.0000 0.89828  0.94839  0.98419  Biso   1.000  H
  C369     1.0000 0.41248  0.93872  0.86089  Biso   1.000  C
  C370     1.0000 0.40098  0.03560  0.82119  Biso   1.000  C
  H418     1.0000 0.44841  0.01581  0.60170  Biso   1.000  H
  H419     1.0000 0.52400  0.88938  0.15650  Biso   1.000  H
  C371     1.0000 0.56130  0.86089  0.08750  Biso   1.000  C
  H420     1.0000 0.65648  0.97598  0.11062  Biso   1.000  H
  H421     1.0000 0.38940  0.84350  0.97598  Biso   1.000  H
  C372     1.0000 0.43870  0.86089  0.91250  Biso   1.000  C
  H422     1.0000 0.34352  0.97598  0.88938  Biso   1.000  H
  C373     1.0000 0.60438  0.86821  0.05311  Biso   1.000  C
  H423     1.0000 0.69891  0.92352  0.93839  Biso   1.000  H
  H424     1.0000 0.64039  0.89999  0.95412  Biso   1.000  H
  H425     1.0000 0.69358  0.86398  0.96399  Biso   1.000  H
  C374     1.0000 0.44691  0.89560  0.86821  Biso   1.000  C
  H426     1.0000 0.42350  0.06161  0.80111  Biso   1.000  H
  H427     1.0000 0.40001  0.04588  0.85959  Biso   1.000  H
  H428     1.0000 0.36400  0.03601  0.80640  Biso   1.000  H
  C375     1.0000 0.52160  0.81542  0.07482  Biso   1.000  C
  C376     1.0000 0.47840  0.81542  0.92518  Biso   1.000  C
  H429     1.0000 0.61060  0.84350  0.02402  Biso   1.000  H
  H430     1.0000 0.47600  0.88938  0.84350  Biso   1.000  H
  C377     1.0000 0.46438  0.82119  0.09900  Biso   1.000  C
  N59      1.0000 0.53859  0.77628  0.04450  Biso   1.000  N
  C378     1.0000 0.53562  0.82119  0.90100  Biso   1.000  C
  N60      1.0000 0.46141  0.77628  0.95550  Biso   1.000  N
  H431     1.0000 0.43841  0.80111  0.07648  Biso   1.000  H
  H432     1.0000 0.45410  0.85959  0.10001  Biso   1.000  H
  H433     1.0000 0.46401  0.80640  0.13602  Biso   1.000  H
  C379     1.0000 0.50380  0.73101  0.02991  Biso   1.000  C
  H434     1.0000 0.56159  0.80111  0.92352  Biso   1.000  H
  H435     1.0000 0.54590  0.85959  0.89999  Biso   1.000  H
  H436     1.0000 0.53599  0.80640  0.86398  Biso   1.000  H
  C380     1.0000 0.49620  0.73101  0.97009  Biso   1.000  C
  H437     1.0000 0.46779  0.73471  0.04840  Biso   1.000  H
  C381     1.0000 0.53318  0.67920  0.05039  Biso   1.000  C
  H438     1.0000 0.53221  0.73471  0.95160  Biso   1.000  H
  C382     1.0000 0.46682  0.67920  0.94961  Biso   1.000  C
  H439     1.0000 0.53440  0.67899  0.09058  Biso   1.000  H
  H440     1.0000 0.57089  0.67830  0.03641  Biso   1.000  H
  C383     1.0000 0.50059  0.62848  0.02910  Biso   1.000  C
  H441     1.0000 0.46560  0.67899  0.90942  Biso   1.000  H
  H442     1.0000 0.42911  0.67830  0.96359  Biso   1.000  H
  C384     1.0000 0.49941  0.62848  0.97090  Biso   1.000  C
  H443     1.0000 0.48421  0.60170  0.05161  Biso   1.000  H
  H444     1.0000 0.51579  0.60170  0.94839  Biso   1.000  H
  C385     1.0000 0.32080  0.05039  0.46682  Biso   1.000  C
  C386     1.0000 0.26899  0.02991  0.49620  Biso   1.000  C
  H445     1.0000 0.32101  0.09058  0.46560  Biso   1.000  H
  H446     1.0000 0.32170  0.03641  0.42911  Biso   1.000  H
  C387     1.0000 0.37152  0.02910  0.49941  Biso   1.000  C
  N61      1.0000 0.22372  0.04450  0.46141  Biso   1.000  N
  H447     1.0000 0.26529  0.04840  0.53221  Biso   1.000  H
  C388     1.0000 0.26899  0.97009  0.50380  Biso   1.000  C
  H448     1.0000 0.39830  0.05161  0.51579  Biso   1.000  H
  C389     1.0000 0.37152  0.97090  0.50059  Biso   1.000  C
  C390     1.0000 0.18458  0.07482  0.47840  Biso   1.000  C
  H449     1.0000 0.26529  0.95160  0.46779  Biso   1.000  H
  C391     1.0000 0.32080  0.94961  0.53318  Biso   1.000  C
  N62      1.0000 0.22372  0.95550  0.53859  Biso   1.000  N
  H450     1.0000 0.39830  0.94839  0.48421  Biso   1.000  H
  C392     1.0000 0.13911  0.08750  0.43870  Biso   1.000  C
  C393     1.0000 0.17881  0.09900  0.53562  Biso   1.000  C
  H451     1.0000 0.32101  0.90942  0.53440  Biso   1.000  H
  H452     1.0000 0.32170  0.96359  0.57089  Biso   1.000  H
  C394     1.0000 0.18458  0.92518  0.52160  Biso   1.000  C
  C395     1.0000 0.13179  0.05311  0.39562  Biso   1.000  C
  C396     1.0000 0.10440  0.13179  0.44691  Biso   1.000  C
  H453     1.0000 0.19889  0.07648  0.56159  Biso   1.000  H
  H454     1.0000 0.14041  0.10001  0.54590  Biso   1.000  H
  H455     1.0000 0.19360  0.13602  0.53599  Biso   1.000  H
  C397     1.0000 0.13911  0.91250  0.56130  Biso   1.000  C
  C398     1.0000 0.17881  0.90100  0.46438  Biso   1.000  C
  H456     1.0000 0.15650  0.02402  0.38940  Biso   1.000  H
  C399     1.0000 0.08750  0.06128  0.36091  Biso   1.000  C
  H457     1.0000 0.11062  0.15650  0.47600  Biso   1.000  H
  C400     1.0000 0.06128  0.13911  0.41248  Biso   1.000  C
  C401     1.0000 0.10440  0.86821  0.55309  Biso   1.000  C
  C402     1.0000 0.13179  0.94689  0.60438  Biso   1.000  C
  H458     1.0000 0.19889  0.92352  0.43841  Biso   1.000  H
  H459     1.0000 0.14041  0.89999  0.45410  Biso   1.000  H
  H460     1.0000 0.19360  0.86398  0.46401  Biso   1.000  H
  C403     1.0000 0.05311  0.10440  0.36819  Biso   1.000  C
  C404     1.0000 0.07482  0.02162  0.31540  Biso   1.000  C
  C405     1.0000 0.02162  0.18458  0.42520  Biso   1.000  C
  H461     1.0000 0.11062  0.84350  0.52400  Biso   1.000  H
  C406     1.0000 0.06128  0.86089  0.58752  Biso   1.000  C
  H462     1.0000 0.15650  0.97598  0.61060  Biso   1.000  H
  C407     1.0000 0.08750  0.93872  0.63909  Biso   1.000  C
  H463     1.0000 0.02402  0.11062  0.34352  Biso   1.000  H
  N63      1.0000 0.04450  0.03861  0.27630  Biso   1.000  N
  C408     1.0000 0.09900  0.96440  0.32121  Biso   1.000  C
  N64      1.0000 0.03861  0.22372  0.45548  Biso   1.000  N
  C409     1.0000 0.96440  0.17881  0.40098  Biso   1.000  C
  C410     1.0000 0.05311  0.89560  0.63181  Biso   1.000  C
  C411     1.0000 0.02162  0.81542  0.57480  Biso   1.000  C
  C412     1.0000 0.07482  0.97838  0.68460  Biso   1.000  C
  C413     1.0000 0.02991  0.00382  0.23099  Biso   1.000  C
  H464     1.0000 0.07648  0.93839  0.30109  Biso   1.000  H
  H465     1.0000 0.10001  0.95412  0.35961  Biso   1.000  H
  H466     1.0000 0.13602  0.96399  0.30642  Biso   1.000  H
  C414     1.0000 0.00382  0.26899  0.47011  Biso   1.000  C
  H467     1.0000 0.93839  0.19889  0.42350  Biso   1.000  H
  H468     1.0000 0.95412  0.14041  0.40001  Biso   1.000  H
  H469     1.0000 0.96399  0.19360  0.36400  Biso   1.000  H
  H470     1.0000 0.02402  0.88938  0.65648  Biso   1.000  H
  C415     1.0000 0.96440  0.82119  0.59902  Biso   1.000  C
  N65      1.0000 0.03861  0.77628  0.54452  Biso   1.000  N
  C416     1.0000 0.09900  0.03560  0.67879  Biso   1.000  C
  N66      1.0000 0.04450  0.96139  0.72370  Biso   1.000  N
  C417     1.0000 0.05039  0.03320  0.17922  Biso   1.000  C
  C418     1.0000 0.97009  0.99618  0.23099  Biso   1.000  C
  H471     1.0000 0.04840  0.96781  0.23469  Biso   1.000  H
  C419     1.0000 0.03320  0.32080  0.44959  Biso   1.000  C
  C420     1.0000 0.99618  0.26899  0.52989  Biso   1.000  C
  H472     1.0000 0.96781  0.26529  0.45162  Biso   1.000  H
  H473     1.0000 0.93839  0.80111  0.57650  Biso   1.000  H
  H474     1.0000 0.95412  0.85959  0.59999  Biso   1.000  H
  H475     1.0000 0.96399  0.80640  0.63600  Biso   1.000  H
  C421     1.0000 0.00382  0.73101  0.52989  Biso   1.000  C
  H476     1.0000 0.07648  0.06161  0.69891  Biso   1.000  H
  H477     1.0000 0.10001  0.04588  0.64039  Biso   1.000  H
  H478     1.0000 0.13602  0.03601  0.69358  Biso   1.000  H
  C422     1.0000 0.02991  0.99618  0.76901  Biso   1.000  C
  H479     1.0000 0.09058  0.03438  0.17901  Biso   1.000  H
  H480     1.0000 0.03641  0.07091  0.17828  Biso   1.000  H
  C423     1.0000 0.02910  0.00061  0.12850  Biso   1.000  C
  C424     1.0000 0.94961  0.96680  0.17922  Biso   1.000  C
  N67      1.0000 0.95550  0.96139  0.27630  Biso   1.000  N
  H481     1.0000 0.95160  0.03219  0.23469  Biso   1.000  H
  H482     1.0000 0.03438  0.32101  0.40940  Biso   1.000  H
  H483     1.0000 0.07091  0.32170  0.46361  Biso   1.000  H
  C425     1.0000 0.00061  0.37152  0.47088  Biso   1.000  C
  H484     1.0000 0.03219  0.26529  0.54838  Biso   1.000  H
  C426     1.0000 0.96680  0.32080  0.55041  Biso   1.000  C
  N68      1.0000 0.96139  0.22372  0.54452  Biso   1.000  N
  C427     1.0000 0.99618  0.73101  0.47011  Biso   1.000  C
  H485     1.0000 0.96781  0.73471  0.54838  Biso   1.000  H
  C428     1.0000 0.03320  0.67920  0.55041  Biso   1.000  C
  H486     1.0000 0.04840  0.03219  0.76531  Biso   1.000  H
  C429     1.0000 0.97009  0.00382  0.76901  Biso   1.000  C
  C430     1.0000 0.05039  0.96680  0.82078  Biso   1.000  C
  C431     1.0000 0.97090  0.99939  0.12850  Biso   1.000  C
  H487     1.0000 0.05161  0.98419  0.10172  Biso   1.000  H
  H488     1.0000 0.90942  0.96562  0.17901  Biso   1.000  H
  H489     1.0000 0.96359  0.92909  0.17828  Biso   1.000  H
  C432     1.0000 0.92518  0.97838  0.31540  Biso   1.000  C
  C433     1.0000 0.99939  0.37152  0.52912  Biso   1.000  C
  H490     1.0000 0.98419  0.39830  0.44841  Biso   1.000  H
  H491     1.0000 0.96562  0.32101  0.59060  Biso   1.000  H
  H492     1.0000 0.92909  0.32170  0.53639  Biso   1.000  H
  C434     1.0000 0.97838  0.18458  0.57480  Biso   1.000  C
  N69      1.0000 0.96139  0.77628  0.45548  Biso   1.000  N
  C435     1.0000 0.96680  0.67920  0.44959  Biso   1.000  C
  H493     1.0000 0.03219  0.73471  0.45162  Biso   1.000  H
  H494     1.0000 0.03438  0.67899  0.59060  Biso   1.000  H
  H495     1.0000 0.07091  0.67830  0.53639  Biso   1.000  H
  C436     1.0000 0.00061  0.62848  0.52912  Biso   1.000  C
  N70      1.0000 0.95550  0.03861  0.72370  Biso   1.000  N
  H496     1.0000 0.95160  0.96781  0.76531  Biso   1.000  H
  C437     1.0000 0.94961  0.03320  0.82078  Biso   1.000  C
  H497     1.0000 0.09058  0.96562  0.82099  Biso   1.000  H
  H498     1.0000 0.03641  0.92909  0.82172  Biso   1.000  H
  C438     1.0000 0.02910  0.99939  0.87150  Biso   1.000  C
  H499     1.0000 0.94839  0.01581  0.10172  Biso   1.000  H
  C439     1.0000 0.91250  0.93872  0.36091  Biso   1.000  C
  C440     1.0000 0.90100  0.03560  0.32121  Biso   1.000  C
  H500     1.0000 0.01581  0.39830  0.55159  Biso   1.000  H
  C441     1.0000 0.03560  0.17881  0.59902  Biso   1.000  C
  C442     1.0000 0.93872  0.13911  0.58752  Biso   1.000  C
  C443     1.0000 0.97838  0.81542  0.42520  Biso   1.000  C
  H501     1.0000 0.96562  0.67899  0.40940  Biso   1.000  H
  H502     1.0000 0.92909  0.67830  0.46361  Biso   1.000  H
  C444     1.0000 0.99939  0.62848  0.47088  Biso   1.000  C
  H503     1.0000 0.98419  0.60170  0.55159  Biso   1.000  H
  C445     1.0000 0.92518  0.02162  0.68460  Biso   1.000  C
  H504     1.0000 0.90942  0.03438  0.82099  Biso   1.000  H
  H505     1.0000 0.96359  0.07091  0.82172  Biso   1.000  H
  C446     1.0000 0.97090  0.00061  0.87150  Biso   1.000  C
  H506     1.0000 0.05161  0.01581  0.89828  Biso   1.000  H
  C447     1.0000 0.94689  0.89560  0.36819  Biso   1.000  C
  C448     1.0000 0.86821  0.94689  0.39562  Biso   1.000  C
  H507     1.0000 0.92352  0.06161  0.30109  Biso   1.000  H
  H508     1.0000 0.89999  0.04588  0.35961  Biso   1.000  H
  H509     1.0000 0.86398  0.03601  0.30642  Biso   1.000  H
  H510     1.0000 0.06161  0.19889  0.57650  Biso   1.000  H
  H511     1.0000 0.04588  0.14041  0.59999  Biso   1.000  H
  H512     1.0000 0.03601  0.19360  0.63600  Biso   1.000  H
  C449     1.0000 0.89560  0.13179  0.55309  Biso   1.000  C
  C450     1.0000 0.94689  0.10440  0.63181  Biso   1.000  C
  C451     1.0000 0.93872  0.86089  0.41248  Biso   1.000  C
  C452     1.0000 0.03560  0.82119  0.40098  Biso   1.000  C
  H513     1.0000 0.01581  0.60170  0.44841  Biso   1.000  H
  C453     1.0000 0.91250  0.06128  0.63909  Biso   1.000  C
  C454     1.0000 0.90100  0.96440  0.67879  Biso   1.000  C
  H514     1.0000 0.94839  0.98419  0.89828  Biso   1.000  H
  H515     1.0000 0.97598  0.88938  0.34352  Biso   1.000  H
  H516     1.0000 0.84350  0.97598  0.38940  Biso   1.000  H
  C455     1.0000 0.86089  0.91250  0.43870  Biso   1.000  C
  H517     1.0000 0.88938  0.15650  0.52400  Biso   1.000  H
  C456     1.0000 0.86089  0.08750  0.56130  Biso   1.000  C
  H518     1.0000 0.97598  0.11062  0.65648  Biso   1.000  H
  C457     1.0000 0.89560  0.86821  0.44691  Biso   1.000  C
  H519     1.0000 0.06161  0.80111  0.42350  Biso   1.000  H
  H520     1.0000 0.04588  0.85959  0.40001  Biso   1.000  H
  H521     1.0000 0.03601  0.80640  0.36400  Biso   1.000  H
  C458     1.0000 0.86821  0.05311  0.60438  Biso   1.000  C
  H522     1.0000 0.92352  0.93839  0.69891  Biso   1.000  H
  H523     1.0000 0.89999  0.95412  0.64039  Biso   1.000  H
  H524     1.0000 0.86398  0.96399  0.69358  Biso   1.000  H
  C459     1.0000 0.81542  0.92518  0.47840  Biso   1.000  C
  C460     1.0000 0.81542  0.07482  0.52160  Biso   1.000  C
  H525     1.0000 0.88938  0.84350  0.47600  Biso   1.000  H
  H526     1.0000 0.84350  0.02402  0.61060  Biso   1.000  H
  C461     1.0000 0.82119  0.90100  0.53562  Biso   1.000  C
  N71      1.0000 0.77628  0.95550  0.46141  Biso   1.000  N
  C462     1.0000 0.82119  0.09900  0.46438  Biso   1.000  C
  N72      1.0000 0.77628  0.04450  0.53859  Biso   1.000  N
  H527     1.0000 0.80111  0.92352  0.56159  Biso   1.000  H
  H528     1.0000 0.85959  0.89999  0.54590  Biso   1.000  H
  H529     1.0000 0.80640  0.86398  0.53599  Biso   1.000  H
  C463     1.0000 0.73101  0.97009  0.49620  Biso   1.000  C
  H530     1.0000 0.80111  0.07648  0.43841  Biso   1.000  H
  H531     1.0000 0.85959  0.10001  0.45410  Biso   1.000  H
  H532     1.0000 0.80640  0.13602  0.46401  Biso   1.000  H
  C464     1.0000 0.73101  0.02991  0.50380  Biso   1.000  C
  H533     1.0000 0.73471  0.95160  0.53221  Biso   1.000  H
  C465     1.0000 0.67920  0.94961  0.46682  Biso   1.000  C
  H534     1.0000 0.73471  0.04840  0.46779  Biso   1.000  H
  C466     1.0000 0.67920  0.05039  0.53318  Biso   1.000  C
  H535     1.0000 0.67899  0.90942  0.46560  Biso   1.000  H
  H536     1.0000 0.67830  0.96359  0.42911  Biso   1.000  H
  C467     1.0000 0.62848  0.97090  0.49941  Biso   1.000  C
  C468     1.0000 0.62848  0.02910  0.50059  Biso   1.000  C
  H537     1.0000 0.67899  0.09058  0.53440  Biso   1.000  H
  H538     1.0000 0.67830  0.03641  0.57089  Biso   1.000  H
  H539     1.0000 0.60170  0.94839  0.51579  Biso   1.000  H
  H540     1.0000 0.60170  0.05161  0.48421  Biso   1.000  H
  C469     1.0000 0.05039  0.46682  0.32080  Biso   1.000  C
  C470     1.0000 0.02991  0.49620  0.26899  Biso   1.000  C
  H541     1.0000 0.09058  0.46560  0.32101  Biso   1.000  H
  H542     1.0000 0.03641  0.42911  0.32170  Biso   1.000  H
  C471     1.0000 0.02910  0.49941  0.37152  Biso   1.000  C
  N73      1.0000 0.04450  0.46141  0.22372  Biso   1.000  N
  H543     1.0000 0.04840  0.53221  0.26529  Biso   1.000  H
  C472     1.0000 0.97009  0.50380  0.26899  Biso   1.000  C
  H544     1.0000 0.05161  0.51579  0.39830  Biso   1.000  H
  C473     1.0000 0.97090  0.50059  0.37152  Biso   1.000  C
  C474     1.0000 0.07482  0.47840  0.18458  Biso   1.000  C
  H545     1.0000 0.95160  0.46779  0.26529  Biso   1.000  H
  C475     1.0000 0.94961  0.53318  0.32080  Biso   1.000  C
  N74      1.0000 0.95550  0.53859  0.22372  Biso   1.000  N
  H546     1.0000 0.94839  0.48421  0.39830  Biso   1.000  H
  C476     1.0000 0.08750  0.43870  0.13911  Biso   1.000  C
  C477     1.0000 0.09900  0.53562  0.17881  Biso   1.000  C
  H547     1.0000 0.90942  0.53440  0.32101  Biso   1.000  H
  H548     1.0000 0.96359  0.57089  0.32170  Biso   1.000  H
  C478     1.0000 0.92518  0.52160  0.18458  Biso   1.000  C
  C479     1.0000 0.13179  0.44691  0.10440  Biso   1.000  C
  C480     1.0000 0.05311  0.39562  0.13179  Biso   1.000  C
  H549     1.0000 0.07648  0.56159  0.19889  Biso   1.000  H
  H550     1.0000 0.10001  0.54590  0.14041  Biso   1.000  H
  H551     1.0000 0.13602  0.53599  0.19360  Biso   1.000  H
  C481     1.0000 0.91250  0.56130  0.13911  Biso   1.000  C
  C482     1.0000 0.90100  0.46438  0.17881  Biso   1.000  C
  H552     1.0000 0.15650  0.47600  0.11062  Biso   1.000  H
  C483     1.0000 0.13911  0.41248  0.06128  Biso   1.000  C
  C484     1.0000 0.06128  0.36091  0.08750  Biso   1.000  C
  H553     1.0000 0.02402  0.38940  0.15650  Biso   1.000  H
  C485     1.0000 0.94689  0.60438  0.13179  Biso   1.000  C
  C486     1.0000 0.86821  0.55309  0.10440  Biso   1.000  C
  H554     1.0000 0.92352  0.43841  0.19889  Biso   1.000  H
  H555     1.0000 0.89999  0.45410  0.14041  Biso   1.000  H
  H556     1.0000 0.86398  0.46401  0.19360  Biso   1.000  H
  C487     1.0000 0.10440  0.36819  0.05311  Biso   1.000  C
  C488     1.0000 0.18458  0.42520  0.02162  Biso   1.000  C
  C489     1.0000 0.02162  0.31540  0.07482  Biso   1.000  C
  H557     1.0000 0.97598  0.61060  0.15650  Biso   1.000  H
  C490     1.0000 0.93872  0.63909  0.08750  Biso   1.000  C
  H558     1.0000 0.84350  0.52400  0.11062  Biso   1.000  H
  C491     1.0000 0.86089  0.58752  0.06128  Biso   1.000  C
  H559     1.0000 0.11062  0.34352  0.02402  Biso   1.000  H
  N75      1.0000 0.22372  0.45548  0.03861  Biso   1.000  N
  C492     1.0000 0.17881  0.40098  0.96440  Biso   1.000  C
  N76      1.0000 0.03861  0.27630  0.04450  Biso   1.000  N
  C493     1.0000 0.96440  0.32121  0.09900  Biso   1.000  C
  C494     1.0000 0.89560  0.63181  0.05311  Biso   1.000  C
  C495     1.0000 0.97838  0.68460  0.07482  Biso   1.000  C
  C496     1.0000 0.81542  0.57480  0.02162  Biso   1.000  C
  C497     1.0000 0.26899  0.47011  0.00382  Biso   1.000  C
  H560     1.0000 0.19889  0.42350  0.93839  Biso   1.000  H
  H561     1.0000 0.14041  0.40001  0.95412  Biso   1.000  H
  H562     1.0000 0.19360  0.36400  0.96399  Biso   1.000  H
  C498     1.0000 0.00382  0.23099  0.02991  Biso   1.000  C
  H563     1.0000 0.93839  0.30109  0.07648  Biso   1.000  H
  H564     1.0000 0.95412  0.35961  0.10001  Biso   1.000  H
  H565     1.0000 0.96399  0.30642  0.13602  Biso   1.000  H
  H566     1.0000 0.88938  0.65648  0.02402  Biso   1.000  H
  C499     1.0000 0.03560  0.67879  0.09900  Biso   1.000  C
  N77      1.0000 0.96139  0.72370  0.04450  Biso   1.000  N
  C500     1.0000 0.82119  0.59902  0.96440  Biso   1.000  C
  N78      1.0000 0.77628  0.54452  0.03861  Biso   1.000  N
  C501     1.0000 0.32080  0.44959  0.03320  Biso   1.000  C
  C502     1.0000 0.26899  0.52989  0.99618  Biso   1.000  C
  H567     1.0000 0.26529  0.45162  0.96781  Biso   1.000  H
  C503     1.0000 0.03320  0.17922  0.05039  Biso   1.000  C
  C504     1.0000 0.99618  0.23099  0.97009  Biso   1.000  C
  H568     1.0000 0.96781  0.23469  0.04840  Biso   1.000  H
  H569     1.0000 0.06161  0.69891  0.07648  Biso   1.000  H
  H570     1.0000 0.04588  0.64039  0.10001  Biso   1.000  H
  H571     1.0000 0.03601  0.69358  0.13602  Biso   1.000  H
  C505     1.0000 0.99618  0.76901  0.02991  Biso   1.000  C
  H572     1.0000 0.80111  0.57650  0.93839  Biso   1.000  H
  H573     1.0000 0.85959  0.59999  0.95412  Biso   1.000  H
  H574     1.0000 0.80640  0.63600  0.96399  Biso   1.000  H
  C506     1.0000 0.73101  0.52989  0.00382  Biso   1.000  C
  H575     1.0000 0.32101  0.40940  0.03438  Biso   1.000  H
  H576     1.0000 0.32170  0.46361  0.07091  Biso   1.000  H
  C507     1.0000 0.37152  0.47088  0.00061  Biso   1.000  C
  H577     1.0000 0.26529  0.54838  0.03219  Biso   1.000  H
  C508     1.0000 0.32080  0.55041  0.96680  Biso   1.000  C
  N79      1.0000 0.22372  0.54452  0.96139  Biso   1.000  N
  H578     1.0000 0.03438  0.17901  0.09058  Biso   1.000  H
  H579     1.0000 0.07091  0.17828  0.03641  Biso   1.000  H
  C509     1.0000 0.00061  0.12850  0.02910  Biso   1.000  C
  C510     1.0000 0.96680  0.17922  0.94961  Biso   1.000  C
  N80      1.0000 0.96139  0.27630  0.95550  Biso   1.000  N
  H580     1.0000 0.03219  0.23469  0.95160  Biso   1.000  H
  C511     1.0000 0.00382  0.76901  0.97009  Biso   1.000  C
  H581     1.0000 0.03219  0.76531  0.04840  Biso   1.000  H
  C512     1.0000 0.96680  0.82078  0.05039  Biso   1.000  C
  C513     1.0000 0.73101  0.47011  0.99618  Biso   1.000  C
  H582     1.0000 0.73471  0.54838  0.96781  Biso   1.000  H
  C514     1.0000 0.67920  0.55041  0.03320  Biso   1.000  C
  C515     1.0000 0.37152  0.52912  0.99939  Biso   1.000  C
  H583     1.0000 0.39830  0.44841  0.98419  Biso   1.000  H
  H584     1.0000 0.32101  0.59060  0.96562  Biso   1.000  H
  H585     1.0000 0.32170  0.53639  0.92909  Biso   1.000  H
  C516     1.0000 0.18458  0.57480  0.97838  Biso   1.000  C
  C517     1.0000 0.99939  0.12850  0.97090  Biso   1.000  C
  H586     1.0000 0.98419  0.10172  0.05161  Biso   1.000  H
  H587     1.0000 0.96562  0.17901  0.90942  Biso   1.000  H
  H588     1.0000 0.92909  0.17828  0.96359  Biso   1.000  H
  C518     1.0000 0.97838  0.31540  0.92518  Biso   1.000  C
  N81      1.0000 0.03861  0.72370  0.95550  Biso   1.000  N
  H589     1.0000 0.96781  0.76531  0.95160  Biso   1.000  H
  C519     1.0000 0.03320  0.82078  0.94961  Biso   1.000  C
  H590     1.0000 0.96562  0.82099  0.09058  Biso   1.000  H
  H591     1.0000 0.92909  0.82172  0.03641  Biso   1.000  H
  C520     1.0000 0.99939  0.87150  0.02910  Biso   1.000  C
  N82      1.0000 0.77628  0.45548  0.96139  Biso   1.000  N
  C521     1.0000 0.67920  0.44959  0.96680  Biso   1.000  C
  H592     1.0000 0.73471  0.45162  0.03219  Biso   1.000  H
  H593     1.0000 0.67899  0.59060  0.03438  Biso   1.000  H
  H594     1.0000 0.67830  0.53639  0.07091  Biso   1.000  H
  C522     1.0000 0.62848  0.52912  0.00061  Biso   1.000  C
  H595     1.0000 0.39830  0.55159  0.01581  Biso   1.000  H
  C523     1.0000 0.17881  0.59902  0.03560  Biso   1.000  C
  C524     1.0000 0.13911  0.58752  0.93872  Biso   1.000  C
  H596     1.0000 0.01581  0.10172  0.94839  Biso   1.000  H
  C525     1.0000 0.93872  0.36091  0.91250  Biso   1.000  C
  C526     1.0000 0.03560  0.32121  0.90100  Biso   1.000  C
  C527     1.0000 0.02162  0.68460  0.92518  Biso   1.000  C
  H597     1.0000 0.03438  0.82099  0.90942  Biso   1.000  H
  H598     1.0000 0.07091  0.82172  0.96359  Biso   1.000  H
  C528     1.0000 0.00061  0.87150  0.97090  Biso   1.000  C
  H599     1.0000 0.01581  0.89828  0.05161  Biso   1.000  H
  C529     1.0000 0.81542  0.42520  0.97838  Biso   1.000  C
  H600     1.0000 0.67899  0.40940  0.96562  Biso   1.000  H
  H601     1.0000 0.67830  0.46361  0.92909  Biso   1.000  H
  C530     1.0000 0.62848  0.47088  0.99939  Biso   1.000  C
  H602     1.0000 0.60170  0.55159  0.98419  Biso   1.000  H
  H603     1.0000 0.19889  0.57650  0.06161  Biso   1.000  H
  H604     1.0000 0.14041  0.59999  0.04588  Biso   1.000  H
  H605     1.0000 0.19360  0.63600  0.03601  Biso   1.000  H
  C531     1.0000 0.10440  0.63181  0.94689  Biso   1.000  C
  C532     1.0000 0.13179  0.55309  0.89560  Biso   1.000  C
  C533     1.0000 0.89560  0.36819  0.94689  Biso   1.000  C
  C534     1.0000 0.94689  0.39562  0.86821  Biso   1.000  C
  H606     1.0000 0.06161  0.30109  0.92352  Biso   1.000  H
  H607     1.0000 0.04588  0.35961  0.89999  Biso   1.000  H
  H608     1.0000 0.03601  0.30642  0.86398  Biso   1.000  H
  C535     1.0000 0.06128  0.63909  0.91250  Biso   1.000  C
  C536     1.0000 0.96440  0.67879  0.90100  Biso   1.000  C
  H609     1.0000 0.98419  0.89828  0.94839  Biso   1.000  H
  C537     1.0000 0.86089  0.41248  0.93872  Biso   1.000  C
  C538     1.0000 0.82119  0.40098  0.03560  Biso   1.000  C
  H610     1.0000 0.60170  0.44841  0.01581  Biso   1.000  H
  H611     1.0000 0.11062  0.65648  0.97598  Biso   1.000  H
  H612     1.0000 0.15650  0.52400  0.88938  Biso   1.000  H
  C539     1.0000 0.08750  0.56130  0.86089  Biso   1.000  C
  H613     1.0000 0.88938  0.34352  0.97598  Biso   1.000  H
  H614     1.0000 0.97598  0.38940  0.84350  Biso   1.000  H
  C540     1.0000 0.91250  0.43870  0.86089  Biso   1.000  C
  C541     1.0000 0.05311  0.60438  0.86821  Biso   1.000  C
  H615     1.0000 0.93839  0.69891  0.92352  Biso   1.000  H
  H616     1.0000 0.95412  0.64039  0.89999  Biso   1.000  H
  H617     1.0000 0.96399  0.69358  0.86398  Biso   1.000  H
  C542     1.0000 0.86821  0.44691  0.89560  Biso   1.000  C
  H618     1.0000 0.80111  0.42350  0.06161  Biso   1.000  H
  H619     1.0000 0.85959  0.40001  0.04588  Biso   1.000  H
  H620     1.0000 0.80640  0.36400  0.03601  Biso   1.000  H
  C543     1.0000 0.07482  0.52160  0.81542  Biso   1.000  C
  C544     1.0000 0.92518  0.47840  0.81542  Biso   1.000  C
  H621     1.0000 0.02402  0.61060  0.84350  Biso   1.000  H
  H622     1.0000 0.84350  0.47600  0.88938  Biso   1.000  H
  C545     1.0000 0.09900  0.46438  0.82119  Biso   1.000  C
  N83      1.0000 0.04450  0.53859  0.77628  Biso   1.000  N
  C546     1.0000 0.90100  0.53562  0.82119  Biso   1.000  C
  N84      1.0000 0.95550  0.46141  0.77628  Biso   1.000  N
  H623     1.0000 0.07648  0.43841  0.80111  Biso   1.000  H
  H624     1.0000 0.10001  0.45410  0.85959  Biso   1.000  H
  H625     1.0000 0.13602  0.46401  0.80640  Biso   1.000  H
  C547     1.0000 0.02991  0.50380  0.73101  Biso   1.000  C
  H626     1.0000 0.92352  0.56159  0.80111  Biso   1.000  H
  H627     1.0000 0.89999  0.54590  0.85959  Biso   1.000  H
  H628     1.0000 0.86398  0.53599  0.80640  Biso   1.000  H
  C548     1.0000 0.97009  0.49620  0.73101  Biso   1.000  C
  H629     1.0000 0.04840  0.46779  0.73471  Biso   1.000  H
  C549     1.0000 0.05039  0.53318  0.67920  Biso   1.000  C
  H630     1.0000 0.95160  0.53221  0.73471  Biso   1.000  H
  C550     1.0000 0.94961  0.46682  0.67920  Biso   1.000  C
  H631     1.0000 0.09058  0.53440  0.67899  Biso   1.000  H
  H632     1.0000 0.03641  0.57089  0.67830  Biso   1.000  H
  C551     1.0000 0.02910  0.50059  0.62848  Biso   1.000  C
  H633     1.0000 0.90942  0.46560  0.67899  Biso   1.000  H
  H634     1.0000 0.96359  0.42911  0.67830  Biso   1.000  H
  C552     1.0000 0.97090  0.49941  0.62848  Biso   1.000  C
  H635     1.0000 0.05161  0.48421  0.60170  Biso   1.000  H
  H636     1.0000 0.94839  0.51579  0.60170  Biso   1.000  H
  C553     1.0000 0.75930  0.37721  0.72040  Biso   1.000  C
  C554     1.0000 0.79449  0.42541  0.70781  Biso   1.000  C
  C555     1.0000 0.74068  0.37721  0.77962  Biso   1.000  C
  H637     1.0000 0.77982  0.34340  0.71289  Biso   1.000  H
  H638     1.0000 0.72699  0.37770  0.69639  Biso   1.000  H
  C556     1.0000 0.76121  0.47702  0.72240  Biso   1.000  C
  H639     1.0000 0.80441  0.42569  0.66879  Biso   1.000  H
  H640     1.0000 0.82830  0.42399  0.72951  Biso   1.000  H
  C557     1.0000 0.70549  0.42541  0.79221  Biso   1.000  C
  H641     1.0000 0.72020  0.34340  0.78709  Biso   1.000  H
  H642     1.0000 0.77299  0.37770  0.80359  Biso   1.000  H
  C558     1.0000 0.73881  0.47702  0.77758  Biso   1.000  C
  H643     1.0000 0.72991  0.47881  0.69659  Biso   1.000  H
  N85      1.0000 0.79510  0.52489  0.71240  Biso   1.000  N
  H644     1.0000 0.69562  0.42569  0.83119  Biso   1.000  H
  H645     1.0000 0.67172  0.42399  0.77051  Biso   1.000  H
  H646     1.0000 0.77011  0.47881  0.80339  Biso   1.000  H
  N86      1.0000 0.70488  0.52489  0.78758  Biso   1.000  N
  C559     1.0000 0.78429  0.55431  0.67330  Biso   1.000  C
  C560     1.0000 0.71569  0.55431  0.82672  Biso   1.000  C
  C561     1.0000 0.81899  0.60410  0.66180  Biso   1.000  C
  H647     1.0000 0.75442  0.54590  0.65038  Biso   1.000  H
  C562     1.0000 0.68099  0.60410  0.83822  Biso   1.000  C
  H648     1.0000 0.74560  0.54590  0.84960  Biso   1.000  H
  C563     1.0000 0.80782  0.63571  0.61718  Biso   1.000  C
  C564     1.0000 0.86431  0.61718  0.69220  Biso   1.000  C
  C565     1.0000 0.63571  0.61718  0.80782  Biso   1.000  C
  C566     1.0000 0.69220  0.63571  0.88280  Biso   1.000  C
  H649     1.0000 0.77811  0.62600  0.59459  Biso   1.000  H
  C567     1.0000 0.83822  0.68099  0.60410  Biso   1.000  C
  H650     1.0000 0.87402  0.59459  0.72191  Biso   1.000  H
  C568     1.0000 0.89588  0.66180  0.68099  Biso   1.000  C
  H651     1.0000 0.62600  0.59459  0.77811  Biso   1.000  H
  C569     1.0000 0.60410  0.66180  0.81899  Biso   1.000  C
  H652     1.0000 0.72191  0.62600  0.90539  Biso   1.000  H
  C570     1.0000 0.66180  0.68099  0.89588  Biso   1.000  C
  C571     1.0000 0.88280  0.69220  0.63571  Biso   1.000  C
  C572     1.0000 0.82672  0.71569  0.55431  Biso   1.000  C
  C573     1.0000 0.94571  0.67330  0.71569  Biso   1.000  C
  C574     1.0000 0.61718  0.69220  0.86431  Biso   1.000  C
  C575     1.0000 0.55431  0.67330  0.78429  Biso   1.000  C
  C576     1.0000 0.67330  0.71569  0.94571  Biso   1.000  C
  H653     1.0000 0.90539  0.72191  0.62600  Biso   1.000  H
  H654     1.0000 0.84960  0.74560  0.54590  Biso   1.000  H
  N87      1.0000 0.78758  0.70488  0.52489  Biso   1.000  N
  H655     1.0000 0.95412  0.65038  0.74560  Biso   1.000  H
  N88      1.0000 0.97509  0.71240  0.70488  Biso   1.000  N
  H656     1.0000 0.59459  0.72191  0.87402  Biso   1.000  H
  H657     1.0000 0.54590  0.65038  0.75442  Biso   1.000  H
  N89      1.0000 0.52489  0.71240  0.79510  Biso   1.000  N
  H658     1.0000 0.65038  0.74560  0.95412  Biso   1.000  H
  N90      1.0000 0.71240  0.70488  0.97509  Biso   1.000  N
  C577     1.0000 0.77758  0.73881  0.47702  Biso   1.000  C
  C578     1.0000 0.02300  0.72240  0.73881  Biso   1.000  C
  C579     1.0000 0.47702  0.72240  0.76121  Biso   1.000  C
  C580     1.0000 0.72240  0.73881  0.02300  Biso   1.000  C
  C581     1.0000 0.72240  0.76121  0.47702  Biso   1.000  C
  H659     1.0000 0.80339  0.77011  0.47881  Biso   1.000  H
  C582     1.0000 0.79221  0.70549  0.42541  Biso   1.000  C
  C583     1.0000 0.02300  0.77758  0.76121  Biso   1.000  C
  H660     1.0000 0.02121  0.69659  0.77011  Biso   1.000  H
  C584     1.0000 0.07461  0.70781  0.70549  Biso   1.000  C
  C585     1.0000 0.47702  0.77758  0.73881  Biso   1.000  C
  H661     1.0000 0.47881  0.69659  0.72991  Biso   1.000  H
  C586     1.0000 0.42541  0.70781  0.79449  Biso   1.000  C
  C587     1.0000 0.77758  0.76121  0.02300  Biso   1.000  C
  H662     1.0000 0.69659  0.77011  0.02121  Biso   1.000  H
  C588     1.0000 0.70781  0.70549  0.07461  Biso   1.000  C
  H663     1.0000 0.69659  0.72991  0.47881  Biso   1.000  H
  C589     1.0000 0.70781  0.79449  0.42541  Biso   1.000  C
  N91      1.0000 0.71240  0.79510  0.52489  Biso   1.000  N
  H664     1.0000 0.83119  0.69562  0.42569  Biso   1.000  H
  H665     1.0000 0.77051  0.67172  0.42399  Biso   1.000  H
  C590     1.0000 0.77962  0.74068  0.37721  Biso   1.000  C
  N92      1.0000 0.97509  0.78758  0.79510  Biso   1.000  N
  H666     1.0000 0.02121  0.80339  0.72991  Biso   1.000  H
  C591     1.0000 0.07461  0.79221  0.79449  Biso   1.000  C
  H667     1.0000 0.07429  0.66879  0.69562  Biso   1.000  H
  H668     1.0000 0.07599  0.72951  0.67172  Biso   1.000  H
  C592     1.0000 0.12281  0.72040  0.74068  Biso   1.000  C
  H669     1.0000 0.47881  0.80339  0.77011  Biso   1.000  H
  C593     1.0000 0.42541  0.79221  0.70549  Biso   1.000  C
  N93      1.0000 0.52489  0.78758  0.70488  Biso   1.000  N
  H670     1.0000 0.42569  0.66879  0.80441  Biso   1.000  H
  H671     1.0000 0.42399  0.72951  0.82830  Biso   1.000  H
  C594     1.0000 0.37721  0.72040  0.75930  Biso   1.000  C
  N94      1.0000 0.78758  0.79510  0.97509  Biso   1.000  N
  H672     1.0000 0.80339  0.72991  0.02121  Biso   1.000  H
  C595     1.0000 0.79221  0.79449  0.07461  Biso   1.000  C
  H673     1.0000 0.66879  0.69562  0.07429  Biso   1.000  H
  H674     1.0000 0.72951  0.67172  0.07599  Biso   1.000  H
  C596     1.0000 0.72040  0.74068  0.12281  Biso   1.000  C
  H675     1.0000 0.66879  0.80441  0.42569  Biso   1.000  H
  H676     1.0000 0.72951  0.82830  0.42399  Biso   1.000  H
  C597     1.0000 0.72040  0.75930  0.37721  Biso   1.000  C
  C598     1.0000 0.67330  0.78429  0.55431  Biso   1.000  C
  H677     1.0000 0.78709  0.72020  0.34340  Biso   1.000  H
  H678     1.0000 0.80359  0.77299  0.37770  Biso   1.000  H
  C599     1.0000 0.94571  0.82672  0.78429  Biso   1.000  C
  H679     1.0000 0.07429  0.83119  0.80441  Biso   1.000  H
  H680     1.0000 0.07599  0.77051  0.82830  Biso   1.000  H
  C600     1.0000 0.12281  0.77962  0.75930  Biso   1.000  C
  H681     1.0000 0.15658  0.71289  0.72020  Biso   1.000  H
  H682     1.0000 0.12228  0.69639  0.77299  Biso   1.000  H
  H683     1.0000 0.42569  0.83119  0.69562  Biso   1.000  H
  H684     1.0000 0.42399  0.77051  0.67172  Biso   1.000  H
  C601     1.0000 0.37721  0.77962  0.74068  Biso   1.000  C
  C602     1.0000 0.55431  0.82672  0.71569  Biso   1.000  C
  H685     1.0000 0.34340  0.71289  0.77982  Biso   1.000  H
  H686     1.0000 0.37770  0.69639  0.72699  Biso   1.000  H
  C603     1.0000 0.82672  0.78429  0.94571  Biso   1.000  C
  H687     1.0000 0.83119  0.80441  0.07429  Biso   1.000  H
  H688     1.0000 0.77051  0.82830  0.07599  Biso   1.000  H
  C604     1.0000 0.77962  0.75930  0.12281  Biso   1.000  C
  H689     1.0000 0.71289  0.72020  0.15658  Biso   1.000  H
  H690     1.0000 0.69639  0.77299  0.12228  Biso   1.000  H
  H691     1.0000 0.71289  0.77982  0.34340  Biso   1.000  H
  H692     1.0000 0.69639  0.72699  0.37770  Biso   1.000  H
  C605     1.0000 0.66180  0.81899  0.60410  Biso   1.000  C
  H693     1.0000 0.65038  0.75442  0.54590  Biso   1.000  H
  C606     1.0000 0.89588  0.83822  0.81899  Biso   1.000  C
  H694     1.0000 0.95412  0.84960  0.75442  Biso   1.000  H
  H695     1.0000 0.15658  0.78709  0.77982  Biso   1.000  H
  H696     1.0000 0.12228  0.80359  0.72699  Biso   1.000  H
  H697     1.0000 0.34340  0.78709  0.72020  Biso   1.000  H
  H698     1.0000 0.37770  0.80359  0.77299  Biso   1.000  H
  C607     1.0000 0.60410  0.83822  0.68099  Biso   1.000  C
  H699     1.0000 0.54590  0.84960  0.74560  Biso   1.000  H
  C608     1.0000 0.83822  0.81899  0.89588  Biso   1.000  C
  H700     1.0000 0.84960  0.75442  0.95412  Biso   1.000  H
  H701     1.0000 0.78709  0.77982  0.15658  Biso   1.000  H
  H702     1.0000 0.80359  0.72699  0.12228  Biso   1.000  H
  C609     1.0000 0.61718  0.80782  0.63571  Biso   1.000  C
  C610     1.0000 0.69220  0.86431  0.61718  Biso   1.000  C
  C611     1.0000 0.88280  0.80782  0.86431  Biso   1.000  C
  C612     1.0000 0.86431  0.88280  0.80782  Biso   1.000  C
  C613     1.0000 0.63571  0.88280  0.69220  Biso   1.000  C
  C614     1.0000 0.80782  0.86431  0.88280  Biso   1.000  C
  H703     1.0000 0.59459  0.77811  0.62600  Biso   1.000  H
  H704     1.0000 0.72191  0.87402  0.59459  Biso   1.000  H
  C615     1.0000 0.68099  0.89588  0.66180  Biso   1.000  C
  H705     1.0000 0.90539  0.77811  0.87402  Biso   1.000  H
  H706     1.0000 0.87402  0.90539  0.77811  Biso   1.000  H
  C616     1.0000 0.81899  0.89588  0.83822  Biso   1.000  C
  H707     1.0000 0.62600  0.90539  0.72191  Biso   1.000  H
  H708     1.0000 0.77811  0.87402  0.90539  Biso   1.000  H
  C617     1.0000 0.71569  0.94571  0.67330  Biso   1.000  C
  C618     1.0000 0.78429  0.94571  0.82672  Biso   1.000  C
  H709     1.0000 0.74560  0.95412  0.65038  Biso   1.000  H
  N95      1.0000 0.70488  0.97509  0.71240  Biso   1.000  N
  H710     1.0000 0.75442  0.95412  0.84960  Biso   1.000  H
  N96      1.0000 0.79510  0.97509  0.78758  Biso   1.000  N
  C619     1.0000 0.73881  0.02300  0.72240  Biso   1.000  C
  C620     1.0000 0.76121  0.02300  0.77758  Biso   1.000  C
  H711     1.0000 0.77011  0.02121  0.69659  Biso   1.000  H
  C621     1.0000 0.70549  0.07461  0.70781  Biso   1.000  C
  H712     1.0000 0.72991  0.02121  0.80339  Biso   1.000  H
  C622     1.0000 0.79449  0.07461  0.79221  Biso   1.000  C
  H713     1.0000 0.69562  0.07429  0.66879  Biso   1.000  H
  H714     1.0000 0.67172  0.07599  0.72951  Biso   1.000  H
  C623     1.0000 0.74068  0.12281  0.72040  Biso   1.000  C
  H715     1.0000 0.80441  0.07429  0.83119  Biso   1.000  H
  H716     1.0000 0.82830  0.07599  0.77051  Biso   1.000  H
  C624     1.0000 0.75930  0.12281  0.77962  Biso   1.000  C
  H717     1.0000 0.72020  0.15658  0.71289  Biso   1.000  H
  H718     1.0000 0.77299  0.12228  0.69639  Biso   1.000  H
  H719     1.0000 0.77982  0.15658  0.78709  Biso   1.000  H
  H720     1.0000 0.72699  0.12228  0.80359  Biso   1.000  H
  Ne1      1.0000 0.75000  0.25000  0.25000  Biso   1.000  Ne
  He1      1.0000 0.81516  0.18483  0.31515  Biso   1.000  He
  He2      1.0000 0.68397  0.31603  0.31603  Biso   1.000  He
  He3      1.0000 0.68215  0.18215  0.18214  Biso   1.000  He
  He4      1.0000 0.81846  0.31844  0.18155  Biso   1.000  He
  Ar1      1.0000 0.75000  0.25000  0.25000  Biso   1.000  Ar
  Ne2      1.0000 0.25000  0.25000  0.75000  Biso   1.000  Ne
  He5      1.0000 0.31517  0.18483  0.81519  Biso   1.000  He
  He6      1.0000 0.18395  0.31604  0.81604  Biso   1.000  He
  He7      1.0000 0.18215  0.18213  0.68216  Biso   1.000  He
  He8      1.0000 0.31845  0.31845  0.68155  Biso   1.000  He
  Ar2      1.0000 0.25000  0.25000  0.75000  Biso   1.000  Ar
  Ne3      1.0000 0.25000  0.75000  0.25000  Biso   1.000  Ne
  He9      1.0000 0.31516  0.68484  0.31516  Biso   1.000  He
  He10     1.0000 0.18397  0.81604  0.31602  Biso   1.000  He
  He11     1.0000 0.18212  0.68214  0.18213  Biso   1.000  He
  He12     1.0000 0.31844  0.81845  0.18154  Biso   1.000  He
  Ar3      1.0000 0.25000  0.75000  0.25000  Biso   1.000  Ar
  Ne4      1.0000 0.50000  0.00000  0.00000  Biso   1.000  Ne
  He13     1.0000 0.40136  0.84944  0.04040  Biso   1.000  He
  He14     1.0000 0.67166  0.04431  0.11796  Biso   1.000  He
  He15     1.0000 0.41285  0.13811  0.96399  Biso   1.000  He
  He16     1.0000 0.59561  0.90439  0.90438  Biso   1.000  He
  Ar4      1.0000 0.50000  0.00000  0.00000  Biso   1.000  Ar
  Ne5      1.0000 0.50000  0.50000  0.50000  Biso   1.000  Ne
  He17     1.0000 0.40136  0.34946  0.54042  Biso   1.000  He
  He18     1.0000 0.67166  0.54434  0.61794  Biso   1.000  He
  He19     1.0000 0.41285  0.63809  0.46397  Biso   1.000  He
  He20     1.0000 0.59561  0.40439  0.40439  Biso   1.000  He
  Ar5      1.0000 0.50000  0.50000  0.50000  Biso   1.000  Ar
  Ne6      1.0000 0.00000  0.00000  0.50000  Biso   1.000  Ne
  He21     1.0000 0.90135  0.84943  0.54043  Biso   1.000  He
  He22     1.0000 0.17164  0.04432  0.61794  Biso   1.000  He
  He23     1.0000 0.91284  0.13811  0.46397  Biso   1.000  He
  He24     1.0000 0.09561  0.90438  0.40438  Biso   1.000  He
  Ar6      1.0000 0.00000  0.00000  0.50000  Biso   1.000  Ar
  Ne7      1.0000 0.00000  0.50000  0.00000  Biso   1.000  Ne
  He25     1.0000 0.90135  0.34946  0.04041  Biso   1.000  He
  He26     1.0000 0.17164  0.54433  0.11796  Biso   1.000  He
  He27     1.0000 0.91284  0.63809  0.96398  Biso   1.000  He
  He28     1.0000 0.09563  0.40437  0.90438  Biso   1.000  He
  Ar7      1.0000 0.00000  0.50000  0.00000  Biso   1.000  Ar
  Ne8      1.0000 0.75000  0.75000  0.75000  Biso   1.000  Ne
  He29     1.0000 0.81517  0.68484  0.81516  Biso   1.000  He
  He30     1.0000 0.68398  0.81603  0.81604  Biso   1.000  He
  He31     1.0000 0.68215  0.68215  0.68215  Biso   1.000  He
  He32     1.0000 0.81846  0.81847  0.68155  Biso   1.000  He
  Ar8      1.0000 0.75000  0.75000  0.75000  Biso   1.000  Ar
