data_image0
_cell_length_a       40.094
_cell_length_b       14.35
_cell_length_c       20.027
_cell_angle_alpha    90
_cell_angle_beta     107.93
_cell_angle_gamma    90

_symmetry_space_group_name_H-M    "P 1"
_symmetry_int_tables_number       1

loop_
  _symmetry_equiv_pos_as_xyz
  'x, y, z'

loop_
  _atom_site_label
  _atom_site_occupancy
  _atom_site_fract_x
  _atom_site_fract_y
  _atom_site_fract_z
  _atom_site_thermal_displace_type
  _atom_site_B_iso_or_equiv
  _atom_site_type_symbol
  C1       1.0000 0.43851  0.50007  0.45554  Biso   1.000  C
  C2       1.0000 0.43175  0.51247  0.37881  Biso   1.000  C
  C3       1.0000 0.41203  0.55679  0.48173  Biso   1.000  C
  H1       1.0000 0.46268  0.52070  0.48089  Biso   1.000  H
  H2       1.0000 0.43659  0.43317  0.46593  Biso   1.000  H
  C4       1.0000 0.40629  0.45916  0.33037  Biso   1.000  C
  C5       1.0000 0.45086  0.57854  0.35178  Biso   1.000  C
  C6       1.0000 0.37820  0.53519  0.47485  Biso   1.000  C
  C7       1.0000 0.42442  0.64955  0.50944  Biso   1.000  C
  C8       1.0000 0.39923  0.47087  0.25884  Biso   1.000  C
  H3       1.0000 0.39360  0.41373  0.34711  Biso   1.000  H
  C9       1.0000 0.44377  0.58216  0.27794  Biso   1.000  C
  O1       1.0000 0.47444  0.62188  0.40148  Biso   1.000  O
  C10      1.0000 0.35648  0.59233  0.49695  Biso   1.000  C
  O2       1.0000 0.37045  0.44530  0.44604  Biso   1.000  O
  C11      1.0000 0.40175  0.70453  0.53069  Biso   1.000  C
  H4       1.0000 0.44729  0.67052  0.51248  Biso   1.000  H
  O3       1.0000 0.37364  0.42091  0.20856  Biso   1.000  O
  C12      1.0000 0.41684  0.53812  0.22982  Biso   1.000  C
  H5       1.0000 0.45909  0.61840  0.26062  Biso   1.000  H
  C13      1.0000 0.50199  0.66955  0.38033  Biso   1.000  C
  C14      1.0000 0.36690  0.67596  0.52334  Biso   1.000  C
  H6       1.0000 0.33351  0.57178  0.49333  Biso   1.000  H
  C15      1.0000 0.33332  0.42418  0.42090  Biso   1.000  C
  O4       1.0000 0.40934  0.79652  0.55651  Biso   1.000  O
  C16      1.0000 0.35130  0.37066  0.23307  Biso   1.000  C
  C17      1.0000 0.40857  0.54899  0.15314  Biso   1.000  C
  H7       1.0000 0.51159  0.62690  0.35273  Biso   1.000  H
  H8       1.0000 0.52070  0.68934  0.42221  Biso   1.000  H
  H9       1.0000 0.49201  0.72432  0.35189  Biso   1.000  H
  C18      1.0000 0.34214  0.74334  0.54707  Biso   1.000  C
  H10      1.0000 0.32119  0.47101  0.38632  Biso   1.000  H
  H11      1.0000 0.32381  0.42481  0.46042  Biso   1.000  H
  H12      1.0000 0.32989  0.36230  0.39912  Biso   1.000  H
  C19      1.0000 0.44450  0.82753  0.55924  Biso   1.000  C
  H13      1.0000 0.34539  0.40627  0.26960  Biso   1.000  H
  H14      1.0000 0.36249  0.31192  0.25280  Biso   1.000  H
  H15      1.0000 0.32990  0.35763  0.19450  Biso   1.000  H
  H16      1.0000 0.39941  0.48948  0.12958  Biso   1.000  H
  H17      1.0000 0.43010  0.56523  0.14149  Biso   1.000  H
  C20      1.0000 0.38164  0.62439  0.12737  Biso   1.000  C
  C21      1.0000 0.31837  0.79714  0.48346  Biso   1.000  C
  H18      1.0000 0.32749  0.70718  0.56953  Biso   1.000  H
  H19      1.0000 0.35630  0.78801  0.58202  Biso   1.000  H
  H20      1.0000 0.44730  0.82990  0.51190  Biso   1.000  H
  H21      1.0000 0.46279  0.78683  0.58989  Biso   1.000  H
  C22      1.0000 0.44525  0.92244  0.58973  Biso   1.000  C
  C23      1.0000 0.34646  0.60118  0.10916  Biso   1.000  C
  C24      1.0000 0.39123  0.71721  0.12228  Biso   1.000  C
  C25      1.0000 0.28575  0.76341  0.43953  Biso   1.000  C
  C26      1.0000 0.33109  0.88348  0.46740  Biso   1.000  C
  H22      1.0000 0.42539  0.92648  0.60931  Biso   1.000  H
  H23      1.0000 0.44040  0.96760  0.55053  Biso   1.000  H
  N1       1.0000 0.47748  0.95526  0.64552  Biso   1.000  N
  H24      1.0000 0.33990  0.53798  0.11189  Biso   1.000  H
  C27      1.0000 0.32096  0.66787  0.08738  Biso   1.000  C
  C28      1.0000 0.36515  0.78453  0.09982  Biso   1.000  C
  O5       1.0000 0.42701  0.73791  0.15041  Biso   1.000  O
  C29      1.0000 0.26788  0.80962  0.38301  Biso   1.000  C
  O6       1.0000 0.27810  0.67449  0.45937  Biso   1.000  O
  H25      1.0000 0.35331  0.90592  0.49542  Biso   1.000  H
  C30      1.0000 0.31086  0.93631  0.40978  Biso   1.000  C
  C31      1.0000 0.49692  0.99958  0.61267  Biso   1.000  C
  H26      1.0000 0.48239  0.94739  0.69013  Biso   1.000  H
  C32      1.0000 0.33019  0.76077  0.08234  Biso   1.000  C
  O7       1.0000 0.28432  0.64683  0.06188  Biso   1.000  O
  H27      1.0000 0.37160  0.84774  0.09651  Biso   1.000  H
  C33      1.0000 0.43535  0.83415  0.14369  Biso   1.000  C
  C34      1.0000 0.27861  0.89408  0.36506  Biso   1.000  C
  H28      1.0000 0.24671  0.78341  0.35351  Biso   1.000  H
  C35      1.0000 0.24530  0.63443  0.41508  Biso   1.000  C
  O8       1.0000 0.32101  0.01986  0.38983  Biso   1.000  O
  N2       1.0000 0.52971  0.04564  0.65009  Biso   1.000  N
  O9       1.0000 0.48603  0.00132  0.54607  Biso   1.000  O
  C36      1.0000 0.29913  0.83456  0.05274  Biso   1.000  C
  C37      1.0000 0.27609  0.55296  0.06985  Biso   1.000  C
  H29      1.0000 0.42479  0.85422  0.09499  Biso   1.000  H
  H30      1.0000 0.46089  0.84160  0.15702  Biso   1.000  H
  H31      1.0000 0.42611  0.87220  0.17461  Biso   1.000  H
  C38      1.0000 0.25727  0.95185  0.30103  Biso   1.000  C
  H32      1.0000 0.24540  0.63352  0.36622  Biso   1.000  H
  H33      1.0000 0.22560  0.67220  0.41880  Biso   1.000  H
  H34      1.0000 0.24289  0.57059  0.43051  Biso   1.000  H
  C39      1.0000 0.35288  0.05240  0.43197  Biso   1.000  C
  C40      1.0000 0.55891  0.06258  0.61797  Biso   1.000  C
  H35      1.0000 0.53300  0.06307  0.69260  Biso   1.000  H
  H36      1.0000 0.27921  0.80592  0.01648  Biso   1.000  H
  H37      1.0000 0.30740  0.88941  0.03228  Biso   1.000  H
  C41      1.0000 0.28809  0.86369  0.12060  Biso   1.000  C
  H38      1.0000 0.28651  0.53429  0.11892  Biso   1.000  H
  H39      1.0000 0.28539  0.51373  0.03968  Biso   1.000  H
  H40      1.0000 0.25061  0.54557  0.05642  Biso   1.000  H
  C42      1.0000 0.26805  0.91875  0.23685  Biso   1.000  C
  H41      1.0000 0.23190  0.94202  0.29243  Biso   1.000  H
  H42      1.0000 0.26240  0.01902  0.30959  Biso   1.000  H
  H43      1.0000 0.35891  0.10983  0.41182  Biso   1.000  H
  H44      1.0000 0.37100  0.00530  0.43502  Biso   1.000  H
  H45      1.0000 0.35140  0.06523  0.47900  Biso   1.000  H
  H46      1.0000 0.57370  0.00613  0.62463  Biso   1.000  H
  H47      1.0000 0.54839  0.07247  0.56690  Biso   1.000  H
  C43      1.0000 0.58092  0.14153  0.64725  Biso   1.000  C
  C44      1.0000 0.26103  0.82383  0.13488  Biso   1.000  C
  C45      1.0000 0.30488  0.93819  0.16526  Biso   1.000  C
  C46      1.0000 0.25186  0.84718  0.18946  Biso   1.000  C
  C47      1.0000 0.29325  0.96767  0.21633  Biso   1.000  C
  H48      1.0000 0.57069  0.17199  0.68079  Biso   1.000  H
  H49      1.0000 0.57871  0.18627  0.60852  Biso   1.000  H
  C48      1.0000 0.61970  0.12899  0.68452  Biso   1.000  C
  H50      1.0000 0.24799  0.77700  0.10428  Biso   1.000  H
  O10      1.0000 0.33340  0.97930  0.14233  Biso   1.000  O
  O11      1.0000 0.22449  0.80676  0.21145  Biso   1.000  O
  H51      1.0000 0.30230  0.02397  0.23979  Biso   1.000  H
  H52      1.0000 0.62579  0.06258  0.68131  Biso   1.000  H
  H53      1.0000 0.62439  0.14397  0.73479  Biso   1.000  H
  C49      1.0000 0.64477  0.19178  0.65418  Biso   1.000  C
  C50      1.0000 0.35049  0.05171  0.18662  Biso   1.000  C
  C51      1.0000 0.21120  0.72411  0.18101  Biso   1.000  C
  H54      1.0000 0.66270  0.15387  0.64201  Biso   1.000  H
  H55      1.0000 0.63131  0.22843  0.61272  Biso   1.000  H
  C52      1.0000 0.66079  0.25352  0.71768  Biso   1.000  C
  H56      1.0000 0.36280  0.09122  0.16191  Biso   1.000  H
  H57      1.0000 0.36750  0.02537  0.22861  Biso   1.000  H
  H58      1.0000 0.33321  0.08913  0.20043  Biso   1.000  H
  H59      1.0000 0.21050  0.72432  0.13168  Biso   1.000  H
  H60      1.0000 0.18739  0.71568  0.18379  Biso   1.000  H
  H61      1.0000 0.22610  0.67289  0.20573  Biso   1.000  H
  H62      1.0000 0.64138  0.28502  0.72949  Biso   1.000  H
  H63      1.0000 0.67269  0.21261  0.75773  Biso   1.000  H
  C53      1.0000 0.68672  0.32760  0.71212  Biso   1.000  C
  H64      1.0000 0.70380  0.30021  0.69181  Biso   1.000  H
  H65      1.0000 0.69889  0.35199  0.75899  Biso   1.000  H
  H66      1.0000 0.67419  0.37833  0.68200  Biso   1.000  H
  C54      1.0000 0.56148  0.49993  0.54449  Biso   1.000  C
  C55      1.0000 0.58796  0.44321  0.51831  Biso   1.000  C
  H67      1.0000 0.53730  0.47930  0.51909  Biso   1.000  H
  H68      1.0000 0.56340  0.56683  0.53410  Biso   1.000  H
  C56      1.0000 0.56827  0.48753  0.62122  Biso   1.000  C
  C57      1.0000 0.57556  0.35045  0.49054  Biso   1.000  C
  C58      1.0000 0.62179  0.46481  0.52518  Biso   1.000  C
  C59      1.0000 0.59369  0.54091  0.66961  Biso   1.000  C
  C60      1.0000 0.54913  0.42146  0.64825  Biso   1.000  C
  C61      1.0000 0.59824  0.29547  0.46934  Biso   1.000  C
  H69      1.0000 0.55269  0.32948  0.48750  Biso   1.000  H
  C62      1.0000 0.64351  0.40767  0.50309  Biso   1.000  C
  O12      1.0000 0.62954  0.55470  0.55399  Biso   1.000  O
  H70      1.0000 0.60639  0.58627  0.65292  Biso   1.000  H
  C63      1.0000 0.60075  0.52913  0.74114  Biso   1.000  C
  C64      1.0000 0.55621  0.41784  0.72204  Biso   1.000  C
  O13      1.0000 0.52557  0.37812  0.59855  Biso   1.000  O
  O14      1.0000 0.59067  0.20348  0.44352  Biso   1.000  O
  C65      1.0000 0.63308  0.32404  0.47664  Biso   1.000  C
  H71      1.0000 0.66651  0.42822  0.50671  Biso   1.000  H
  C66      1.0000 0.66666  0.57582  0.57908  Biso   1.000  C
  C67      1.0000 0.58315  0.46195  0.77022  Biso   1.000  C
  O15      1.0000 0.62634  0.57909  0.79142  Biso   1.000  O
  H72      1.0000 0.54090  0.38160  0.73941  Biso   1.000  H
  C68      1.0000 0.49800  0.33045  0.61970  Biso   1.000  C
  C69      1.0000 0.55550  0.17247  0.44074  Biso   1.000  C
  C70      1.0000 0.65787  0.25666  0.45297  Biso   1.000  C
  H73      1.0000 0.67880  0.52899  0.61372  Biso   1.000  H
  H74      1.0000 0.67621  0.57519  0.53961  Biso   1.000  H
  H75      1.0000 0.67010  0.63770  0.60091  Biso   1.000  H
  C71      1.0000 0.59144  0.45101  0.84684  Biso   1.000  C
  C72      1.0000 0.64872  0.62934  0.76696  Biso   1.000  C
  H76      1.0000 0.48840  0.37310  0.64731  Biso   1.000  H
  H77      1.0000 0.47931  0.31073  0.57782  Biso   1.000  H
  H78      1.0000 0.50800  0.27568  0.64809  Biso   1.000  H
  C73      1.0000 0.55475  0.07756  0.41025  Biso   1.000  C
  H79      1.0000 0.55271  0.17010  0.48813  Biso   1.000  H
  H80      1.0000 0.53720  0.21317  0.41009  Biso   1.000  H
  C74      1.0000 0.68162  0.20286  0.51657  Biso   1.000  C
  H81      1.0000 0.67250  0.29282  0.43051  Biso   1.000  H
  H82      1.0000 0.64369  0.21199  0.41801  Biso   1.000  H
  H83      1.0000 0.60060  0.51052  0.87040  Biso   1.000  H
  H84      1.0000 0.56988  0.43477  0.85849  Biso   1.000  H
  C75      1.0000 0.61835  0.37561  0.87266  Biso   1.000  C
  H85      1.0000 0.65460  0.59373  0.73044  Biso   1.000  H
  H86      1.0000 0.63750  0.68808  0.74723  Biso   1.000  H
  H87      1.0000 0.67011  0.64244  0.80554  Biso   1.000  H
  N3       1.0000 0.52253  0.04474  0.35446  Biso   1.000  N
  H88      1.0000 0.57460  0.07352  0.39072  Biso   1.000  H
  H89      1.0000 0.55959  0.03240  0.44950  Biso   1.000  H
  C76      1.0000 0.71426  0.23659  0.56045  Biso   1.000  C
  C77      1.0000 0.66890  0.11652  0.53263  Biso   1.000  C
  C78      1.0000 0.65355  0.39889  0.89082  Biso   1.000  C
  C79      1.0000 0.60878  0.28279  0.87770  Biso   1.000  C
  C80      1.0000 0.50307  0.00042  0.38737  Biso   1.000  C
  H90      1.0000 0.51760  0.05261  0.30990  Biso   1.000  H
  C81      1.0000 0.73211  0.19038  0.61702  Biso   1.000  C
  O16      1.0000 0.72191  0.32551  0.54061  Biso   1.000  O
  H91      1.0000 0.64671  0.09408  0.50461  Biso   1.000  H
  C82      1.0000 0.68916  0.06369  0.59026  Biso   1.000  C
  H92      1.0000 0.66008  0.46202  0.88809  Biso   1.000  H
  C83      1.0000 0.67905  0.33213  0.91265  Biso   1.000  C
  C84      1.0000 0.63483  0.21547  0.90016  Biso   1.000  C
  O17      1.0000 0.57299  0.26209  0.84962  Biso   1.000  O
  N4       1.0000 0.47030  0.95436  0.34989  Biso   1.000  N
  O18      1.0000 0.51396  0.99868  0.45396  Biso   1.000  O
  C85      1.0000 0.72139  0.10592  0.63492  Biso   1.000  C
  H93      1.0000 0.75331  0.21659  0.64652  Biso   1.000  H
  C86      1.0000 0.75471  0.36557  0.58496  Biso   1.000  C
  O19      1.0000 0.67898  0.98014  0.61020  Biso   1.000  O
  C87      1.0000 0.66979  0.23923  0.91764  Biso   1.000  C
  O20      1.0000 0.71570  0.35317  0.93816  Biso   1.000  O
  H94      1.0000 0.62839  0.15233  0.90352  Biso   1.000  H
  C88      1.0000 0.56464  0.16585  0.85634  Biso   1.000  C
  C89      1.0000 0.44110  0.93742  0.38206  Biso   1.000  C
  H95      1.0000 0.46701  0.93693  0.30738  Biso   1.000  H
  C90      1.0000 0.74272  0.04815  0.69900  Biso   1.000  C
  H96      1.0000 0.75460  0.36648  0.63382  Biso   1.000  H
  H97      1.0000 0.77439  0.32780  0.58123  Biso   1.000  H
  H98      1.0000 0.75711  0.42941  0.56953  Biso   1.000  H
  C91      1.0000 0.64711  0.94760  0.56806  Biso   1.000  C
  C92      1.0000 0.70086  0.16544  0.94724  Biso   1.000  C
  C93      1.0000 0.72390  0.44704  0.93018  Biso   1.000  C
  H99      1.0000 0.57519  0.14578  0.90499  Biso   1.000  H
  H100     1.0000 0.53910  0.15840  0.84301  Biso   1.000  H
  H101     1.0000 0.57390  0.12780  0.82543  Biso   1.000  H
  H102     1.0000 0.42629  0.99394  0.37540  Biso   1.000  H
  H103     1.0000 0.45160  0.92753  0.43313  Biso   1.000  H
  C94      1.0000 0.41906  0.85847  0.35273  Biso   1.000  C
  C95      1.0000 0.73194  0.08125  0.76319  Biso   1.000  C
  H104     1.0000 0.76809  0.05798  0.70761  Biso   1.000  H
  H105     1.0000 0.73761  0.98098  0.69039  Biso   1.000  H
  H106     1.0000 0.64111  0.89017  0.58821  Biso   1.000  H
  H107     1.0000 0.62901  0.99470  0.56502  Biso   1.000  H
  H108     1.0000 0.64860  0.93477  0.52098  Biso   1.000  H
  C96      1.0000 0.71190  0.13631  0.87938  Biso   1.000  C
  H109     1.0000 0.72080  0.19408  0.98350  Biso   1.000  H
  H110     1.0000 0.69260  0.11059  0.96771  Biso   1.000  H
  H111     1.0000 0.71348  0.46571  0.88111  Biso   1.000  H
  H112     1.0000 0.71459  0.48627  0.96031  Biso   1.000  H
  H113     1.0000 0.74938  0.45443  0.94362  Biso   1.000  H
  H114     1.0000 0.42929  0.82801  0.31919  Biso   1.000  H
  H115     1.0000 0.42131  0.81373  0.39151  Biso   1.000  H
  C97      1.0000 0.38028  0.87101  0.31547  Biso   1.000  C
  C98      1.0000 0.74813  0.15282  0.81058  Biso   1.000  C
  C99      1.0000 0.70674  0.03233  0.78371  Biso   1.000  C
  C100     1.0000 0.73898  0.17617  0.86510  Biso   1.000  C
  C101     1.0000 0.69510  0.06181  0.83472  Biso   1.000  C
  H116     1.0000 0.37420  0.93742  0.31872  Biso   1.000  H
  H117     1.0000 0.37559  0.85603  0.26519  Biso   1.000  H
  C102     1.0000 0.35522  0.80822  0.34585  Biso   1.000  C
  O21      1.0000 0.77550  0.19324  0.78859  Biso   1.000  O
  H118     1.0000 0.69768  0.97603  0.76019  Biso   1.000  H
  H119     1.0000 0.75199  0.22300  0.89570  Biso   1.000  H
  O22      1.0000 0.66658  0.02070  0.85765  Biso   1.000  O
  H120     1.0000 0.33729  0.84613  0.35803  Biso   1.000  H
  H121     1.0000 0.36871  0.77164  0.38731  Biso   1.000  H
  C103     1.0000 0.33920  0.74648  0.28235  Biso   1.000  C
  C104     1.0000 0.78878  0.27589  0.81897  Biso   1.000  C
  C105     1.0000 0.64950  0.94829  0.81341  Biso   1.000  C
  H122     1.0000 0.35860  0.71498  0.27049  Biso   1.000  H
  H123     1.0000 0.32730  0.78739  0.24231  Biso   1.000  H
  C106     1.0000 0.31327  0.67240  0.28791  Biso   1.000  C
  H124     1.0000 0.78951  0.27568  0.86831  Biso   1.000  H
  H125     1.0000 0.81259  0.28432  0.81619  Biso   1.000  H
  H126     1.0000 0.77389  0.32711  0.79431  Biso   1.000  H
  H127     1.0000 0.63719  0.90878  0.83813  Biso   1.000  H
  H128     1.0000 0.63249  0.97463  0.77142  Biso   1.000  H
  H129     1.0000 0.66681  0.91094  0.79961  Biso   1.000  H
  H130     1.0000 0.29621  0.69979  0.30822  Biso   1.000  H
  H131     1.0000 0.30109  0.64801  0.24099  Biso   1.000  H
  H132     1.0000 0.32580  0.62167  0.31799  Biso   1.000  H
  C107     1.0000 0.40857  0.45101  0.65318  Biso   1.000  C
  C108     1.0000 0.38163  0.37561  0.62736  Biso   1.000  C
  C109     1.0000 0.41683  0.46195  0.72981  Biso   1.000  C
  H133     1.0000 0.39941  0.51052  0.62962  Biso   1.000  H
  H134     1.0000 0.43010  0.43477  0.64153  Biso   1.000  H
  C110     1.0000 0.34646  0.39889  0.60920  Biso   1.000  C
  C111     1.0000 0.39123  0.28279  0.62232  Biso   1.000  C
  C112     1.0000 0.39923  0.52913  0.75888  Biso   1.000  C
  C113     1.0000 0.44377  0.41784  0.77798  Biso   1.000  C
  C114     1.0000 0.32096  0.33213  0.58737  Biso   1.000  C
  H135     1.0000 0.33990  0.46202  0.61193  Biso   1.000  H
  C115     1.0000 0.36515  0.21547  0.59986  Biso   1.000  C
  O23      1.0000 0.42700  0.26209  0.65040  Biso   1.000  O
  C116     1.0000 0.40629  0.54091  0.83041  Biso   1.000  C
  O24      1.0000 0.37364  0.57909  0.70860  Biso   1.000  O
  H136     1.0000 0.45908  0.38160  0.76061  Biso   1.000  H
  C117     1.0000 0.45085  0.42146  0.85177  Biso   1.000  C
  C118     1.0000 0.33019  0.23923  0.58239  Biso   1.000  C
  O25      1.0000 0.28431  0.35317  0.56187  Biso   1.000  O
  H137     1.0000 0.37159  0.15233  0.59650  Biso   1.000  H
  C119     1.0000 0.43534  0.16585  0.64368  Biso   1.000  C
  C120     1.0000 0.43174  0.48753  0.87880  Biso   1.000  C
  H138     1.0000 0.39359  0.58627  0.84710  Biso   1.000  H
  C121     1.0000 0.35129  0.62934  0.73306  Biso   1.000  C
  O26      1.0000 0.47443  0.37812  0.90147  Biso   1.000  O
  C122     1.0000 0.29912  0.16544  0.55273  Biso   1.000  C
  C123     1.0000 0.27608  0.44704  0.56984  Biso   1.000  C
  H139     1.0000 0.42479  0.14578  0.59503  Biso   1.000  H
  H140     1.0000 0.46089  0.15840  0.65702  Biso   1.000  H
  H141     1.0000 0.42610  0.12780  0.67460  Biso   1.000  H
  C124     1.0000 0.43850  0.49993  0.95553  Biso   1.000  C
  H142     1.0000 0.34538  0.59373  0.76959  Biso   1.000  H
  H143     1.0000 0.36248  0.68808  0.75279  Biso   1.000  H
  H144     1.0000 0.32989  0.64244  0.69449  Biso   1.000  H
  C125     1.0000 0.50198  0.33045  0.88032  Biso   1.000  C
  H145     1.0000 0.27921  0.19408  0.51652  Biso   1.000  H
  H146     1.0000 0.30740  0.11059  0.53232  Biso   1.000  H
  C126     1.0000 0.28808  0.13631  0.62059  Biso   1.000  C
  H147     1.0000 0.28650  0.46571  0.61891  Biso   1.000  H
  H148     1.0000 0.28539  0.48627  0.53972  Biso   1.000  H
  H149     1.0000 0.25060  0.45443  0.55641  Biso   1.000  H
  C127     1.0000 0.41202  0.44321  0.98172  Biso   1.000  C
  H150     1.0000 0.46268  0.47930  0.98093  Biso   1.000  H
  H151     1.0000 0.43661  0.56683  0.96592  Biso   1.000  H
  H152     1.0000 0.51161  0.37310  0.85272  Biso   1.000  H
  H153     1.0000 0.52070  0.31073  0.92220  Biso   1.000  H
  H154     1.0000 0.49201  0.27568  0.85193  Biso   1.000  H
  C128     1.0000 0.26103  0.17617  0.63492  Biso   1.000  C
  C129     1.0000 0.30488  0.06181  0.66531  Biso   1.000  C
  C130     1.0000 0.37819  0.46481  0.97484  Biso   1.000  C
  C131     1.0000 0.42444  0.35045  0.00943  Biso   1.000  C
  H155     1.0000 0.24799  0.22300  0.60432  Biso   1.000  H
  C132     1.0000 0.25185  0.15282  0.68945  Biso   1.000  C
  C133     1.0000 0.29325  0.03233  0.71632  Biso   1.000  C
  O27      1.0000 0.33340  0.02070  0.64237  Biso   1.000  O
  C134     1.0000 0.35648  0.40767  0.99694  Biso   1.000  C
  O28      1.0000 0.37045  0.55470  0.94603  Biso   1.000  O
  C135     1.0000 0.40176  0.29547  0.03063  Biso   1.000  C
  H156     1.0000 0.44731  0.32948  0.01247  Biso   1.000  H
  C136     1.0000 0.26804  0.08125  0.73684  Biso   1.000  C
  O29      1.0000 0.22448  0.19324  0.71144  Biso   1.000  O
  H157     1.0000 0.30230  0.97603  0.73983  Biso   1.000  H
  C137     1.0000 0.35048  0.94829  0.68661  Biso   1.000  C
  C138     1.0000 0.36692  0.32404  0.02334  Biso   1.000  C
  H158     1.0000 0.33350  0.42822  0.99332  Biso   1.000  H
  C139     1.0000 0.33332  0.57582  0.92094  Biso   1.000  C
  O30      1.0000 0.40936  0.20348  0.05650  Biso   1.000  O
  C140     1.0000 0.25726  0.04815  0.80102  Biso   1.000  C
  C141     1.0000 0.21120  0.27589  0.68105  Biso   1.000  C
  H159     1.0000 0.36279  0.90878  0.66190  Biso   1.000  H
  H160     1.0000 0.36749  0.97463  0.72860  Biso   1.000  H
  H161     1.0000 0.33320  0.91094  0.70042  Biso   1.000  H
  C142     1.0000 0.34216  0.25666  0.04706  Biso   1.000  C
  H162     1.0000 0.32118  0.52899  0.88631  Biso   1.000  H
  H163     1.0000 0.32380  0.57519  0.96041  Biso   1.000  H
  H164     1.0000 0.32988  0.63770  0.89911  Biso   1.000  H
  C143     1.0000 0.44452  0.17247  0.05923  Biso   1.000  C
  H165     1.0000 0.23189  0.05798  0.79242  Biso   1.000  H
  C144     1.0000 0.27861  0.10592  0.86510  Biso   1.000  C
  H166     1.0000 0.26240  0.98098  0.80963  Biso   1.000  H
  H167     1.0000 0.21050  0.27568  0.63172  Biso   1.000  H
  H168     1.0000 0.18739  0.28432  0.68383  Biso   1.000  H
  H169     1.0000 0.22609  0.32711  0.70572  Biso   1.000  H
  C145     1.0000 0.31836  0.20286  0.98345  Biso   1.000  C
  H170     1.0000 0.32750  0.29282  0.06947  Biso   1.000  H
  H171     1.0000 0.35631  0.21199  0.08196  Biso   1.000  H
  H172     1.0000 0.44732  0.17010  0.01189  Biso   1.000  H
  H173     1.0000 0.46280  0.21317  0.08988  Biso   1.000  H
  C146     1.0000 0.44527  0.07756  0.08972  Biso   1.000  C
  C147     1.0000 0.26787  0.19038  0.88300  Biso   1.000  C
  C148     1.0000 0.31085  0.06369  0.90977  Biso   1.000  C
  C149     1.0000 0.28575  0.23659  0.93958  Biso   1.000  C
  C150     1.0000 0.33108  0.11652  0.96739  Biso   1.000  C
  H174     1.0000 0.42541  0.07352  0.10930  Biso   1.000  H
  H175     1.0000 0.44040  0.03240  0.05047  Biso   1.000  H
  N5       1.0000 0.47747  0.04474  0.14551  Biso   1.000  N
  H176     1.0000 0.24670  0.21659  0.85351  Biso   1.000  H
  O31      1.0000 0.32100  0.98014  0.88982  Biso   1.000  O
  O32      1.0000 0.27810  0.32551  0.95941  Biso   1.000  O
  H177     1.0000 0.35330  0.09408  0.99542  Biso   1.000  H
  C151     1.0000 0.49692  0.00042  0.11261  Biso   1.000  C
  H178     1.0000 0.48240  0.05261  0.19007  Biso   1.000  H
  C152     1.0000 0.35287  0.94760  0.93197  Biso   1.000  C
  C153     1.0000 0.24529  0.36557  0.91507  Biso   1.000  C
  N6       1.0000 0.52970  0.95436  0.15008  Biso   1.000  N
  O33      1.0000 0.48603  0.99868  0.04601  Biso   1.000  O
  H179     1.0000 0.35890  0.89017  0.91181  Biso   1.000  H
  H180     1.0000 0.37100  0.99470  0.93501  Biso   1.000  H
  H181     1.0000 0.35140  0.93477  0.97899  Biso   1.000  H
  H182     1.0000 0.24539  0.36648  0.86621  Biso   1.000  H
  H183     1.0000 0.22559  0.32780  0.91879  Biso   1.000  H
  H184     1.0000 0.24290  0.42941  0.93050  Biso   1.000  H
  C154     1.0000 0.55893  0.93742  0.11796  Biso   1.000  C
  H185     1.0000 0.53302  0.93693  0.19259  Biso   1.000  H
  H186     1.0000 0.57371  0.99394  0.12457  Biso   1.000  H
  H187     1.0000 0.54841  0.92753  0.06690  Biso   1.000  H
  C155     1.0000 0.58094  0.85847  0.14724  Biso   1.000  C
  H188     1.0000 0.57071  0.82801  0.18078  Biso   1.000  H
  H189     1.0000 0.57872  0.81373  0.10846  Biso   1.000  H
  C156     1.0000 0.61972  0.87101  0.18451  Biso   1.000  C
  H190     1.0000 0.62581  0.93742  0.18130  Biso   1.000  H
  H191     1.0000 0.62441  0.85603  0.23478  Biso   1.000  H
  C157     1.0000 0.64478  0.80822  0.15412  Biso   1.000  C
  H192     1.0000 0.66271  0.84613  0.14200  Biso   1.000  H
  H193     1.0000 0.63132  0.77164  0.11266  Biso   1.000  H
  C158     1.0000 0.66080  0.74648  0.21762  Biso   1.000  C
  H194     1.0000 0.64140  0.71498  0.22948  Biso   1.000  H
  H195     1.0000 0.67269  0.78739  0.25767  Biso   1.000  H
  C159     1.0000 0.68674  0.67240  0.21211  Biso   1.000  C
  H196     1.0000 0.70382  0.69979  0.19180  Biso   1.000  H
  H197     1.0000 0.69891  0.64801  0.25898  Biso   1.000  H
  H198     1.0000 0.67420  0.62167  0.18199  Biso   1.000  H
  C160     1.0000 0.59145  0.54899  0.34685  Biso   1.000  C
  C161     1.0000 0.58316  0.53812  0.27023  Biso   1.000  C
  H199     1.0000 0.60061  0.48948  0.37041  Biso   1.000  H
  H200     1.0000 0.56989  0.56523  0.35850  Biso   1.000  H
  C162     1.0000 0.61836  0.62439  0.37267  Biso   1.000  C
  C163     1.0000 0.55622  0.58216  0.22205  Biso   1.000  C
  C164     1.0000 0.60076  0.47087  0.24115  Biso   1.000  C
  C165     1.0000 0.65355  0.60118  0.39083  Biso   1.000  C
  C166     1.0000 0.60879  0.71721  0.37771  Biso   1.000  C
  C167     1.0000 0.54913  0.57854  0.14821  Biso   1.000  C
  H201     1.0000 0.54091  0.61840  0.23942  Biso   1.000  H
  C168     1.0000 0.59370  0.45916  0.16962  Biso   1.000  C
  O34      1.0000 0.62635  0.42091  0.29143  Biso   1.000  O
  H202     1.0000 0.66009  0.53798  0.38810  Biso   1.000  H
  C169     1.0000 0.67906  0.66787  0.41266  Biso   1.000  C
  C170     1.0000 0.63484  0.78453  0.40017  Biso   1.000  C
  O35      1.0000 0.57299  0.73791  0.34963  Biso   1.000  O
  O36      1.0000 0.52555  0.62188  0.09851  Biso   1.000  O
  C171     1.0000 0.56828  0.51247  0.12123  Biso   1.000  C
  H203     1.0000 0.60639  0.41373  0.15288  Biso   1.000  H
  C172     1.0000 0.64873  0.37066  0.26697  Biso   1.000  C
  C173     1.0000 0.66980  0.76077  0.41765  Biso   1.000  C
  O37      1.0000 0.71570  0.64683  0.43812  Biso   1.000  O
  H204     1.0000 0.62840  0.84774  0.40353  Biso   1.000  H
  C174     1.0000 0.56464  0.83415  0.35630  Biso   1.000  C
  C175     1.0000 0.49801  0.66955  0.11971  Biso   1.000  C
  C176     1.0000 0.56148  0.50007  0.04445  Biso   1.000  C
  H205     1.0000 0.65460  0.40627  0.23039  Biso   1.000  H
  H206     1.0000 0.63750  0.31192  0.24719  Biso   1.000  H
  H207     1.0000 0.67009  0.35763  0.30549  Biso   1.000  H
  C177     1.0000 0.70086  0.83456  0.44725  Biso   1.000  C
  C178     1.0000 0.72390  0.55296  0.43014  Biso   1.000  C
  H208     1.0000 0.57520  0.85422  0.40500  Biso   1.000  H
  H209     1.0000 0.53910  0.84160  0.34302  Biso   1.000  H
  H210     1.0000 0.57390  0.87220  0.32538  Biso   1.000  H
  H211     1.0000 0.48841  0.62690  0.14732  Biso   1.000  H
  H212     1.0000 0.47929  0.68934  0.07778  Biso   1.000  H
  H213     1.0000 0.50801  0.72432  0.14810  Biso   1.000  H
  C179     1.0000 0.58796  0.55679  0.01826  Biso   1.000  C
  H214     1.0000 0.53731  0.52070  0.01910  Biso   1.000  H
  H215     1.0000 0.56341  0.43317  0.03411  Biso   1.000  H
  H216     1.0000 0.72081  0.80592  0.48351  Biso   1.000  H
  H217     1.0000 0.69259  0.88941  0.46771  Biso   1.000  H
  C180     1.0000 0.71190  0.86369  0.37939  Biso   1.000  C
  H218     1.0000 0.71349  0.53429  0.38112  Biso   1.000  H
  H219     1.0000 0.71460  0.51373  0.46031  Biso   1.000  H
  H220     1.0000 0.74939  0.54557  0.44363  Biso   1.000  H
  C181     1.0000 0.62179  0.53519  0.02514  Biso   1.000  C
  C182     1.0000 0.57555  0.64955  0.99061  Biso   1.000  C
  C183     1.0000 0.73899  0.82383  0.36511  Biso   1.000  C
  C184     1.0000 0.69511  0.93819  0.33473  Biso   1.000  C
  C185     1.0000 0.64352  0.59233  0.00310  Biso   1.000  C
  O38      1.0000 0.62954  0.44530  0.05395  Biso   1.000  O
  C186     1.0000 0.59825  0.70453  0.96935  Biso   1.000  C
  H221     1.0000 0.55268  0.67052  0.98751  Biso   1.000  H
  H222     1.0000 0.75200  0.77700  0.39571  Biso   1.000  H
  C187     1.0000 0.74813  0.84718  0.31053  Biso   1.000  C
  C188     1.0000 0.70674  0.96767  0.28371  Biso   1.000  C
  O39      1.0000 0.66659  0.97930  0.35766  Biso   1.000  O
  H223     1.0000 0.66649  0.57178  0.00672  Biso   1.000  H
  C189     1.0000 0.63307  0.67596  0.97670  Biso   1.000  C
  C190     1.0000 0.66667  0.42418  0.07909  Biso   1.000  C
  O40      1.0000 0.59066  0.79652  0.94353  Biso   1.000  O
  C191     1.0000 0.73195  0.91875  0.26319  Biso   1.000  C
  O41      1.0000 0.77551  0.80676  0.28860  Biso   1.000  O
  H224     1.0000 0.69769  0.02397  0.26020  Biso   1.000  H
  C192     1.0000 0.64950  0.05171  0.31337  Biso   1.000  C
  C193     1.0000 0.65786  0.74334  0.95298  Biso   1.000  C
  H225     1.0000 0.67881  0.47101  0.11373  Biso   1.000  H
  H226     1.0000 0.67622  0.42481  0.03962  Biso   1.000  H
  H227     1.0000 0.67011  0.36230  0.10092  Biso   1.000  H
  C194     1.0000 0.55549  0.82753  0.94080  Biso   1.000  C
  C195     1.0000 0.74272  0.95185  0.19896  Biso   1.000  C
  C196     1.0000 0.78879  0.72411  0.31898  Biso   1.000  C
  H228     1.0000 0.63719  0.09122  0.33809  Biso   1.000  H
  H229     1.0000 0.63249  0.02537  0.27138  Biso   1.000  H
  H230     1.0000 0.66681  0.08913  0.29962  Biso   1.000  H
  C197     1.0000 0.68162  0.79714  0.01653  Biso   1.000  C
  H231     1.0000 0.67248  0.70718  0.93051  Biso   1.000  H
  H232     1.0000 0.64368  0.78801  0.91802  Biso   1.000  H
  H233     1.0000 0.55270  0.82990  0.98814  Biso   1.000  H
  H234     1.0000 0.53719  0.78683  0.91015  Biso   1.000  H
  C198     1.0000 0.55475  0.92244  0.91031  Biso   1.000  C
  C199     1.0000 0.72140  0.89408  0.13493  Biso   1.000  C
  H235     1.0000 0.76810  0.94202  0.20762  Biso   1.000  H
  H236     1.0000 0.73761  0.01902  0.19040  Biso   1.000  H
  H237     1.0000 0.78949  0.72432  0.36831  Biso   1.000  H
  H238     1.0000 0.81260  0.71568  0.31620  Biso   1.000  H
  H239     1.0000 0.77390  0.67289  0.29432  Biso   1.000  H
  C200     1.0000 0.71424  0.76341  0.06046  Biso   1.000  C
  C201     1.0000 0.66891  0.88348  0.03264  Biso   1.000  C
  H240     1.0000 0.57458  0.92648  0.89073  Biso   1.000  H
  H241     1.0000 0.55958  0.96760  0.94951  Biso   1.000  H
  N7       1.0000 0.52252  0.95526  0.85452  Biso   1.000  N
  C202     1.0000 0.73211  0.80962  0.11698  Biso   1.000  C
  C203     1.0000 0.68916  0.93631  0.09022  Biso   1.000  C
  O42      1.0000 0.72191  0.67449  0.04062  Biso   1.000  O
  H242     1.0000 0.64672  0.90592  0.00462  Biso   1.000  H
  C204     1.0000 0.50306  0.99958  0.88737  Biso   1.000  C
  H243     1.0000 0.51758  0.94739  0.80991  Biso   1.000  H
  H244     1.0000 0.75331  0.78341  0.14653  Biso   1.000  H
  O43      1.0000 0.67899  0.01986  0.11021  Biso   1.000  O
  C205     1.0000 0.75472  0.63443  0.08497  Biso   1.000  C
  N8       1.0000 0.47029  0.04564  0.84996  Biso   1.000  N
  O44      1.0000 0.51395  0.00132  0.95397  Biso   1.000  O
  C206     1.0000 0.64712  0.05240  0.06807  Biso   1.000  C
  H245     1.0000 0.75460  0.63352  0.13383  Biso   1.000  H
  H246     1.0000 0.77439  0.67220  0.08119  Biso   1.000  H
  H247     1.0000 0.75711  0.57059  0.06949  Biso   1.000  H
  C207     1.0000 0.44109  0.06258  0.88207  Biso   1.000  C
  H248     1.0000 0.46700  0.06307  0.80745  Biso   1.000  H
  H249     1.0000 0.64112  0.10983  0.08822  Biso   1.000  H
  H250     1.0000 0.62899  0.00530  0.06502  Biso   1.000  H
  H251     1.0000 0.64861  0.06523  0.02099  Biso   1.000  H
  H252     1.0000 0.42629  0.00613  0.87541  Biso   1.000  H
  H253     1.0000 0.45158  0.07247  0.93314  Biso   1.000  H
  C208     1.0000 0.41904  0.14153  0.85274  Biso   1.000  C
  H254     1.0000 0.42928  0.17199  0.81925  Biso   1.000  H
  H255     1.0000 0.42129  0.18627  0.89152  Biso   1.000  H
  C209     1.0000 0.38026  0.12899  0.81548  Biso   1.000  C
  H256     1.0000 0.37418  0.06258  0.81873  Biso   1.000  H
  H257     1.0000 0.37558  0.14397  0.76525  Biso   1.000  H
  C210     1.0000 0.35521  0.19178  0.84586  Biso   1.000  C
  H258     1.0000 0.33728  0.15387  0.85804  Biso   1.000  H
  H259     1.0000 0.36869  0.22843  0.88732  Biso   1.000  H
  C211     1.0000 0.33918  0.25352  0.78236  Biso   1.000  C
  H260     1.0000 0.35859  0.28502  0.77055  Biso   1.000  H
  H261     1.0000 0.32729  0.21261  0.74232  Biso   1.000  H
  C212     1.0000 0.31325  0.32760  0.78792  Biso   1.000  C
  H262     1.0000 0.29620  0.30021  0.80823  Biso   1.000  H
  H263     1.0000 0.30107  0.35199  0.74100  Biso   1.000  H
  H264     1.0000 0.32579  0.37833  0.81805  Biso   1.000  H
  C213     1.0000 0.28879  0.22411  0.31898  Biso   1.000  C
  O45      1.0000 0.27551  0.30676  0.28860  Biso   1.000  O
  H265     1.0000 0.28949  0.22432  0.36831  Biso   1.000  H
  H266     1.0000 0.31260  0.21568  0.31620  Biso   1.000  H
  H267     1.0000 0.27390  0.17289  0.29432  Biso   1.000  H
  C214     1.0000 0.24813  0.34718  0.31053  Biso   1.000  C
  C215     1.0000 0.23899  0.32383  0.36511  Biso   1.000  C
  C216     1.0000 0.23195  0.41875  0.26319  Biso   1.000  C
  C217     1.0000 0.21190  0.36369  0.37939  Biso   1.000  C
  H268     1.0000 0.25200  0.27700  0.39571  Biso   1.000  H
  C218     1.0000 0.20674  0.46767  0.28371  Biso   1.000  C
  C219     1.0000 0.24272  0.45185  0.19896  Biso   1.000  C
  C220     1.0000 0.20086  0.33456  0.44725  Biso   1.000  C
  C221     1.0000 0.19511  0.43819  0.33473  Biso   1.000  C
  H269     1.0000 0.19769  0.52397  0.26020  Biso   1.000  H
  H270     1.0000 0.23759  0.51902  0.19040  Biso   1.000  H
  H271     1.0000 0.26810  0.44202  0.20762  Biso   1.000  H
  C222     1.0000 0.22140  0.39408  0.13493  Biso   1.000  C
  C223     1.0000 0.16980  0.26077  0.41765  Biso   1.000  C
  H272     1.0000 0.22081  0.30592  0.48351  Biso   1.000  H
  H273     1.0000 0.19259  0.38941  0.46771  Biso   1.000  H
  O46      1.0000 0.16659  0.47930  0.35766  Biso   1.000  O
  C224     1.0000 0.23211  0.30962  0.11698  Biso   1.000  C
  C225     1.0000 0.18914  0.43631  0.09022  Biso   1.000  C
  C226     1.0000 0.17906  0.16787  0.41266  Biso   1.000  C
  C227     1.0000 0.13484  0.28453  0.40017  Biso   1.000  C
  C228     1.0000 0.14950  0.55171  0.31337  Biso   1.000  C
  H274     1.0000 0.25331  0.28341  0.14653  Biso   1.000  H
  C229     1.0000 0.21424  0.26341  0.06046  Biso   1.000  C
  C230     1.0000 0.16891  0.38348  0.03264  Biso   1.000  C
  O47      1.0000 0.17899  0.51986  0.11021  Biso   1.000  O
  C231     1.0000 0.15355  0.10118  0.39083  Biso   1.000  C
  O48      1.0000 0.21567  0.14683  0.43812  Biso   1.000  O
  H275     1.0000 0.12840  0.34774  0.40353  Biso   1.000  H
  C232     1.0000 0.10879  0.21721  0.37771  Biso   1.000  C
  H276     1.0000 0.13719  0.59122  0.33809  Biso   1.000  H
  H277     1.0000 0.13249  0.52544  0.27138  Biso   1.000  H
  H278     1.0000 0.16679  0.58913  0.29962  Biso   1.000  H
  C233     1.0000 0.18162  0.29714  0.01653  Biso   1.000  C
  O49      1.0000 0.22189  0.17449  0.04062  Biso   1.000  O
  H279     1.0000 0.14669  0.40592  0.00462  Biso   1.000  H
  C234     1.0000 0.14712  0.55240  0.06807  Biso   1.000  C
  C235     1.0000 0.11836  0.12439  0.37267  Biso   1.000  C
  H280     1.0000 0.16009  0.03798  0.38810  Biso   1.000  H
  C236     1.0000 0.22390  0.05296  0.43014  Biso   1.000  C
  O50      1.0000 0.07299  0.23791  0.34963  Biso   1.000  O
  C237     1.0000 0.15786  0.24334  0.95298  Biso   1.000  C
  C238     1.0000 0.25472  0.13443  0.08497  Biso   1.000  C
  H281     1.0000 0.14109  0.60983  0.08822  Biso   1.000  H
  H282     1.0000 0.12899  0.50530  0.06502  Biso   1.000  H
  H283     1.0000 0.14861  0.56523  0.02099  Biso   1.000  H
  C239     1.0000 0.09145  0.04899  0.34685  Biso   1.000  C
  H284     1.0000 0.21349  0.03429  0.38112  Biso   1.000  H
  H285     1.0000 0.21460  0.01373  0.46031  Biso   1.000  H
  H286     1.0000 0.24939  0.04557  0.44363  Biso   1.000  H
  C240     1.0000 0.06464  0.33415  0.35630  Biso   1.000  C
  C241     1.0000 0.13307  0.17596  0.97670  Biso   1.000  C
  H287     1.0000 0.17248  0.20718  0.93051  Biso   1.000  H
  H288     1.0000 0.14368  0.28801  0.91802  Biso   1.000  H
  H289     1.0000 0.25460  0.13352  0.13383  Biso   1.000  H
  H290     1.0000 0.27439  0.17220  0.08119  Biso   1.000  H
  H291     1.0000 0.25711  0.07059  0.06949  Biso   1.000  H
  C242     1.0000 0.08316  0.03805  0.27023  Biso   1.000  C
  H292     1.0000 0.06989  0.06523  0.35850  Biso   1.000  H
  H293     1.0000 0.10061  0.98948  0.37041  Biso   1.000  H
  H294     1.0000 0.07520  0.35422  0.40500  Biso   1.000  H
  H295     1.0000 0.03910  0.34160  0.34302  Biso   1.000  H
  H296     1.0000 0.07390  0.37220  0.32538  Biso   1.000  H
  C243     1.0000 0.14352  0.09233  0.00310  Biso   1.000  C
  C244     1.0000 0.09822  0.20453  0.96935  Biso   1.000  C
  C245     1.0000 0.05622  0.08216  0.22205  Biso   1.000  C
  C246     1.0000 0.10076  0.97094  0.24115  Biso   1.000  C
  H297     1.0000 0.16649  0.07178  0.00672  Biso   1.000  H
  C247     1.0000 0.12179  0.03519  0.02514  Biso   1.000  C
  C248     1.0000 0.07555  0.14955  0.99061  Biso   1.000  C
  O51      1.0000 0.09066  0.29652  0.94353  Biso   1.000  O
  H298     1.0000 0.04091  0.11840  0.23942  Biso   1.000  H
  C249     1.0000 0.04913  0.07854  0.14821  Biso   1.000  C
  C250     1.0000 0.09370  0.95916  0.16962  Biso   1.000  C
  O52      1.0000 0.12635  0.92091  0.29143  Biso   1.000  O
  C251     1.0000 0.08796  0.05679  0.01826  Biso   1.000  C
  O53      1.0000 0.12954  0.94530  0.05395  Biso   1.000  O
  H299     1.0000 0.05268  0.17052  0.98751  Biso   1.000  H
  C252     1.0000 0.05549  0.32753  0.94080  Biso   1.000  C
  C253     1.0000 0.06825  0.01247  0.12123  Biso   1.000  C
  O54      1.0000 0.02555  0.12188  0.09851  Biso   1.000  O
  H300     1.0000 0.10639  0.91373  0.15288  Biso   1.000  H
  C254     1.0000 0.14870  0.87066  0.26697  Biso   1.000  C
  C255     1.0000 0.06148  0.00007  0.04445  Biso   1.000  C
  C256     1.0000 0.16667  0.92418  0.07909  Biso   1.000  C
  H301     1.0000 0.05267  0.32990  0.98814  Biso   1.000  H
  H302     1.0000 0.03719  0.28683  0.91015  Biso   1.000  H
  C257     1.0000 0.05475  0.42244  0.91031  Biso   1.000  C
  C258     1.0000 0.99801  0.16955  0.11971  Biso   1.000  C
  H303     1.0000 0.15460  0.90627  0.23039  Biso   1.000  H
  H304     1.0000 0.13750  0.81192  0.24719  Biso   1.000  H
  H305     1.0000 0.17009  0.85763  0.30549  Biso   1.000  H
  H306     1.0000 0.03731  0.02070  0.01910  Biso   1.000  H
  H307     1.0000 0.06341  0.93324  0.03411  Biso   1.000  H
  H308     1.0000 0.17881  0.97101  0.11373  Biso   1.000  H
  H309     1.0000 0.17619  0.92481  0.03962  Biso   1.000  H
  H310     1.0000 0.17011  0.86230  0.10092  Biso   1.000  H
  H311     1.0000 0.07458  0.42648  0.89073  Biso   1.000  H
  H312     1.0000 0.05958  0.46760  0.94951  Biso   1.000  H
  N9       1.0000 0.02252  0.45526  0.85452  Biso   1.000  N
  H313     1.0000 0.00801  0.22432  0.14810  Biso   1.000  H
  H314     1.0000 0.98841  0.12690  0.14732  Biso   1.000  H
  H315     1.0000 0.97931  0.18927  0.07778  Biso   1.000  H
  C259     1.0000 0.00306  0.49958  0.88737  Biso   1.000  C
  H316     1.0000 0.01758  0.44739  0.80991  Biso   1.000  H
  N10      1.0000 0.97029  0.54564  0.84996  Biso   1.000  N
  O55      1.0000 0.01395  0.50132  0.95397  Biso   1.000  O
  C260     1.0000 0.94109  0.56265  0.88207  Biso   1.000  C
  H317     1.0000 0.96700  0.56314  0.80745  Biso   1.000  H
  H318     1.0000 0.92629  0.50613  0.87541  Biso   1.000  H
  H319     1.0000 0.95158  0.57247  0.93314  Biso   1.000  H
  C261     1.0000 0.91907  0.64153  0.85274  Biso   1.000  C
  H320     1.0000 0.92928  0.67199  0.81925  Biso   1.000  H
  H321     1.0000 0.92129  0.68627  0.89152  Biso   1.000  H
  C262     1.0000 0.88026  0.62899  0.81548  Biso   1.000  C
  H322     1.0000 0.87418  0.56258  0.81873  Biso   1.000  H
  H323     1.0000 0.87558  0.64397  0.76525  Biso   1.000  H
  C263     1.0000 0.85521  0.69178  0.84586  Biso   1.000  C
  H324     1.0000 0.83730  0.65394  0.85804  Biso   1.000  H
  H325     1.0000 0.86869  0.72843  0.88732  Biso   1.000  H
  C264     1.0000 0.83921  0.75352  0.78236  Biso   1.000  C
  H326     1.0000 0.85859  0.78502  0.77055  Biso   1.000  H
  H327     1.0000 0.82729  0.71261  0.74232  Biso   1.000  H
  C265     1.0000 0.81325  0.82760  0.78792  Biso   1.000  C
  H328     1.0000 0.79620  0.80021  0.80823  Biso   1.000  H
  H329     1.0000 0.80110  0.85199  0.74100  Biso   1.000  H
  H330     1.0000 0.82579  0.87833  0.81805  Biso   1.000  H
  C266     1.0000 0.71120  0.77596  0.68105  Biso   1.000  C
  H331     1.0000 0.71050  0.77568  0.63172  Biso   1.000  H
  H332     1.0000 0.68741  0.78432  0.68383  Biso   1.000  H
  H333     1.0000 0.72609  0.82711  0.70572  Biso   1.000  H
  O56      1.0000 0.72448  0.69324  0.71144  Biso   1.000  O
  C267     1.0000 0.75185  0.65282  0.68945  Biso   1.000  C
  C268     1.0000 0.76103  0.67617  0.63492  Biso   1.000  C
  C269     1.0000 0.76804  0.58125  0.73684  Biso   1.000  C
  C270     1.0000 0.78808  0.63631  0.62059  Biso   1.000  C
  H334     1.0000 0.74799  0.72300  0.60432  Biso   1.000  H
  C271     1.0000 0.79325  0.53233  0.71632  Biso   1.000  C
  C272     1.0000 0.75729  0.54815  0.80102  Biso   1.000  C
  C273     1.0000 0.79912  0.66544  0.55273  Biso   1.000  C
  C274     1.0000 0.80488  0.56181  0.66531  Biso   1.000  C
  H335     1.0000 0.80230  0.47603  0.73983  Biso   1.000  H
  H336     1.0000 0.76240  0.48098  0.80963  Biso   1.000  H
  H337     1.0000 0.73189  0.55798  0.79242  Biso   1.000  H
  C275     1.0000 0.77861  0.60592  0.86510  Biso   1.000  C
  C276     1.0000 0.83019  0.73923  0.58239  Biso   1.000  C
  H338     1.0000 0.77921  0.69408  0.51652  Biso   1.000  H
  H339     1.0000 0.80740  0.61059  0.53232  Biso   1.000  H
  O57      1.0000 0.83340  0.52070  0.64237  Biso   1.000  O
  C277     1.0000 0.76787  0.69038  0.88300  Biso   1.000  C
  C278     1.0000 0.81085  0.56369  0.90977  Biso   1.000  C
  C279     1.0000 0.82096  0.83213  0.58737  Biso   1.000  C
  C280     1.0000 0.86515  0.71547  0.59986  Biso   1.000  C
  C281     1.0000 0.85051  0.44829  0.68661  Biso   1.000  C
  H340     1.0000 0.74670  0.71659  0.85351  Biso   1.000  H
  C282     1.0000 0.78575  0.73659  0.93958  Biso   1.000  C
  C283     1.0000 0.83111  0.61652  0.96739  Biso   1.000  C
  O58      1.0000 0.82100  0.48014  0.88982  Biso   1.000  O
  C284     1.0000 0.84646  0.89889  0.60920  Biso   1.000  C
  O59      1.0000 0.78431  0.85324  0.56187  Biso   1.000  O
  H341     1.0000 0.87159  0.65233  0.59650  Biso   1.000  H
  C285     1.0000 0.89123  0.78279  0.62232  Biso   1.000  C
  H342     1.0000 0.86279  0.40878  0.66190  Biso   1.000  H
  H343     1.0000 0.86749  0.47463  0.72860  Biso   1.000  H
  H344     1.0000 0.83320  0.41087  0.70042  Biso   1.000  H
  C286     1.0000 0.81836  0.70286  0.98345  Biso   1.000  C
  O60      1.0000 0.77810  0.82551  0.95941  Biso   1.000  O
  H345     1.0000 0.85330  0.59408  0.99542  Biso   1.000  H
  C287     1.0000 0.85287  0.44760  0.93197  Biso   1.000  C
  C288     1.0000 0.88163  0.87561  0.62736  Biso   1.000  C
  H346     1.0000 0.83990  0.96202  0.61193  Biso   1.000  H
  C289     1.0000 0.77608  0.94704  0.56984  Biso   1.000  C
  O61      1.0000 0.92702  0.76209  0.65040  Biso   1.000  O
  C290     1.0000 0.84216  0.75666  0.04706  Biso   1.000  C
  C291     1.0000 0.74529  0.86557  0.91507  Biso   1.000  C
  H347     1.0000 0.85890  0.39017  0.91181  Biso   1.000  H
  H348     1.0000 0.87100  0.49470  0.93501  Biso   1.000  H
  H349     1.0000 0.85140  0.43477  0.97899  Biso   1.000  H
  C292     1.0000 0.90857  0.95101  0.65318  Biso   1.000  C
  H350     1.0000 0.78650  0.96571  0.61891  Biso   1.000  H
  H351     1.0000 0.78539  0.98634  0.53972  Biso   1.000  H
  H352     1.0000 0.75060  0.95443  0.55641  Biso   1.000  H
  C293     1.0000 0.93534  0.66585  0.64368  Biso   1.000  C
  C294     1.0000 0.86692  0.82404  0.02334  Biso   1.000  C
  H353     1.0000 0.82750  0.79282  0.06947  Biso   1.000  H
  H354     1.0000 0.85631  0.71199  0.08196  Biso   1.000  H
  H355     1.0000 0.74539  0.86648  0.86621  Biso   1.000  H
  H356     1.0000 0.72559  0.82780  0.91879  Biso   1.000  H
  H357     1.0000 0.74290  0.92941  0.93050  Biso   1.000  H
  C295     1.0000 0.91686  0.96195  0.72981  Biso   1.000  C
  H358     1.0000 0.93010  0.93477  0.64153  Biso   1.000  H
  H359     1.0000 0.89941  0.01052  0.62962  Biso   1.000  H
  H360     1.0000 0.92479  0.64578  0.59503  Biso   1.000  H
  H361     1.0000 0.96091  0.65840  0.65702  Biso   1.000  H
  H362     1.0000 0.92610  0.62780  0.67460  Biso   1.000  H
  C296     1.0000 0.85648  0.90767  0.99694  Biso   1.000  C
  C297     1.0000 0.90176  0.79547  0.03063  Biso   1.000  C
  C298     1.0000 0.94377  0.91791  0.77798  Biso   1.000  C
  C299     1.0000 0.89923  0.02913  0.75888  Biso   1.000  C
  H363     1.0000 0.83350  0.92822  0.99332  Biso   1.000  H
  C300     1.0000 0.87819  0.96481  0.97484  Biso   1.000  C
  C301     1.0000 0.92444  0.85045  0.00943  Biso   1.000  C
  O62      1.0000 0.90936  0.70348  0.05650  Biso   1.000  O
  H364     1.0000 0.95911  0.88160  0.76061  Biso   1.000  H
  C302     1.0000 0.95085  0.92146  0.85177  Biso   1.000  C
  C303     1.0000 0.90629  0.04084  0.83041  Biso   1.000  C
  O63      1.0000 0.87364  0.07909  0.70860  Biso   1.000  O
  C304     1.0000 0.91202  0.94321  0.98172  Biso   1.000  C
  O64      1.0000 0.87045  0.05470  0.94603  Biso   1.000  O
  H365     1.0000 0.94731  0.82948  0.01247  Biso   1.000  H
  C305     1.0000 0.94452  0.67247  0.05923  Biso   1.000  C
  C306     1.0000 0.93174  0.98753  0.87880  Biso   1.000  C
  O65      1.0000 0.97443  0.87812  0.90147  Biso   1.000  O
  H366     1.0000 0.89359  0.08627  0.84710  Biso   1.000  H
  C307     1.0000 0.85129  0.12934  0.73306  Biso   1.000  C
  C308     1.0000 0.93850  0.99993  0.95553  Biso   1.000  C
  C309     1.0000 0.83332  0.07582  0.92094  Biso   1.000  C
  H367     1.0000 0.94732  0.67010  0.01189  Biso   1.000  H
  H368     1.0000 0.96280  0.71317  0.08988  Biso   1.000  H
  C310     1.0000 0.94527  0.57756  0.08972  Biso   1.000  C
  C311     1.0000 0.00198  0.83045  0.88032  Biso   1.000  C
  H369     1.0000 0.84538  0.09373  0.76959  Biso   1.000  H
  H370     1.0000 0.86251  0.18808  0.75279  Biso   1.000  H
  H371     1.0000 0.82989  0.14237  0.69449  Biso   1.000  H
  H372     1.0000 0.96271  0.97930  0.98093  Biso   1.000  H
  H373     1.0000 0.93661  0.06683  0.96592  Biso   1.000  H
  H374     1.0000 0.82121  0.02899  0.88631  Biso   1.000  H
  H375     1.0000 0.82380  0.07519  0.96041  Biso   1.000  H
  H376     1.0000 0.82988  0.13770  0.89911  Biso   1.000  H
  H377     1.0000 0.92541  0.57352  0.10930  Biso   1.000  H
  H378     1.0000 0.94040  0.53240  0.05047  Biso   1.000  H
  N11      1.0000 0.97749  0.54474  0.14551  Biso   1.000  N
  H379     1.0000 0.99201  0.77568  0.85193  Biso   1.000  H
  H380     1.0000 0.01158  0.87310  0.85272  Biso   1.000  H
  H381     1.0000 0.02070  0.81073  0.92220  Biso   1.000  H
  C312     1.0000 0.99692  0.50042  0.11261  Biso   1.000  C
  H382     1.0000 0.98240  0.55261  0.19007  Biso   1.000  H
  O66      1.0000 0.98603  0.49868  0.04601  Biso   1.000  O
  N12      1.0000 0.02970  0.45436  0.15008  Biso   1.000  N
  C313     1.0000 0.05893  0.43742  0.11796  Biso   1.000  C
  H383     1.0000 0.03302  0.43693  0.19259  Biso   1.000  H
  H384     1.0000 0.07371  0.49394  0.12457  Biso   1.000  H
  H385     1.0000 0.04841  0.42753  0.06690  Biso   1.000  H
  C314     1.0000 0.08094  0.35847  0.14724  Biso   1.000  C
  H386     1.0000 0.07071  0.32801  0.18078  Biso   1.000  H
  H387     1.0000 0.07869  0.31373  0.10846  Biso   1.000  H
  C315     1.0000 0.11972  0.37101  0.18451  Biso   1.000  C
  H388     1.0000 0.12581  0.43742  0.18130  Biso   1.000  H
  H389     1.0000 0.12441  0.35603  0.23478  Biso   1.000  H
  C316     1.0000 0.14478  0.30822  0.15412  Biso   1.000  C
  H390     1.0000 0.16271  0.34613  0.14200  Biso   1.000  H
  H391     1.0000 0.13129  0.27157  0.11266  Biso   1.000  H
  C317     1.0000 0.16080  0.24648  0.21762  Biso   1.000  C
  H392     1.0000 0.14140  0.21498  0.22948  Biso   1.000  H
  H393     1.0000 0.17269  0.28739  0.25767  Biso   1.000  H
  C318     1.0000 0.18674  0.17240  0.21211  Biso   1.000  C
  H394     1.0000 0.20382  0.19979  0.19180  Biso   1.000  H
  H395     1.0000 0.19891  0.14801  0.25898  Biso   1.000  H
  H396     1.0000 0.17420  0.12167  0.18199  Biso   1.000  H
  C319     1.0000 0.25471  0.86557  0.58496  Biso   1.000  C
  O67      1.0000 0.22191  0.82551  0.54061  Biso   1.000  O
  H397     1.0000 0.25460  0.86648  0.63382  Biso   1.000  H
  H398     1.0000 0.27439  0.82780  0.58123  Biso   1.000  H
  H399     1.0000 0.25711  0.92941  0.56953  Biso   1.000  H
  C320     1.0000 0.21423  0.73659  0.56045  Biso   1.000  C
  C321     1.0000 0.18162  0.70286  0.51657  Biso   1.000  C
  C322     1.0000 0.23211  0.69038  0.61702  Biso   1.000  C
  C323     1.0000 0.16890  0.61652  0.53263  Biso   1.000  C
  C324     1.0000 0.15787  0.75666  0.45297  Biso   1.000  C
  C325     1.0000 0.22139  0.60592  0.63492  Biso   1.000  C
  H400     1.0000 0.25331  0.71659  0.64652  Biso   1.000  H
  H401     1.0000 0.14671  0.59408  0.50461  Biso   1.000  H
  C326     1.0000 0.18914  0.56369  0.59026  Biso   1.000  C
  C327     1.0000 0.13308  0.82404  0.47664  Biso   1.000  C
  H402     1.0000 0.17250  0.79282  0.43051  Biso   1.000  H
  H403     1.0000 0.14369  0.71199  0.41801  Biso   1.000  H
  C328     1.0000 0.24272  0.54815  0.69900  Biso   1.000  C
  O68      1.0000 0.17898  0.48014  0.61020  Biso   1.000  O
  C329     1.0000 0.09824  0.79547  0.46934  Biso   1.000  C
  C330     1.0000 0.14351  0.90767  0.50309  Biso   1.000  C
  C331     1.0000 0.23194  0.58125  0.76319  Biso   1.000  C
  H404     1.0000 0.23758  0.48098  0.69039  Biso   1.000  H
  H405     1.0000 0.26809  0.55798  0.70761  Biso   1.000  H
  C332     1.0000 0.14711  0.44760  0.56806  Biso   1.000  C
  C333     1.0000 0.07556  0.85045  0.49054  Biso   1.000  C
  O69      1.0000 0.09065  0.70348  0.44352  Biso   1.000  O
  H406     1.0000 0.16649  0.92822  0.50671  Biso   1.000  H
  C334     1.0000 0.12179  0.96481  0.52518  Biso   1.000  C
  C335     1.0000 0.24813  0.65282  0.81058  Biso   1.000  C
  C336     1.0000 0.20674  0.53233  0.78371  Biso   1.000  C
  H407     1.0000 0.14111  0.39017  0.58821  Biso   1.000  H
  H408     1.0000 0.12899  0.49470  0.56502  Biso   1.000  H
  H409     1.0000 0.14860  0.43477  0.52098  Biso   1.000  H
  C337     1.0000 0.08796  0.94321  0.51831  Biso   1.000  C
  H410     1.0000 0.05269  0.82948  0.48750  Biso   1.000  H
  C338     1.0000 0.05550  0.67247  0.44074  Biso   1.000  C
  O70      1.0000 0.12954  0.05470  0.55399  Biso   1.000  O
  C339     1.0000 0.23898  0.67617  0.86510  Biso   1.000  C
  O71      1.0000 0.27550  0.69324  0.78859  Biso   1.000  O
  H411     1.0000 0.19768  0.47603  0.76019  Biso   1.000  H
  C340     1.0000 0.19510  0.56181  0.83472  Biso   1.000  C
  C341     1.0000 0.06148  0.99993  0.54449  Biso   1.000  C
  H412     1.0000 0.05269  0.67010  0.48813  Biso   1.000  H
  H413     1.0000 0.03720  0.71317  0.41009  Biso   1.000  H
  C342     1.0000 0.05475  0.57756  0.41025  Biso   1.000  C
  C343     1.0000 0.16666  0.07582  0.57908  Biso   1.000  C
  C344     1.0000 0.21190  0.63631  0.87938  Biso   1.000  C
  H414     1.0000 0.25199  0.72300  0.89570  Biso   1.000  H
  C345     1.0000 0.28878  0.77596  0.81897  Biso   1.000  C
  O72      1.0000 0.16658  0.52070  0.85765  Biso   1.000  O
  H415     1.0000 0.03730  0.97930  0.51909  Biso   1.000  H
  C346     1.0000 0.06827  0.98753  0.62122  Biso   1.000  C
  H416     1.0000 0.06340  0.06683  0.53410  Biso   1.000  H
  H417     1.0000 0.07460  0.57352  0.39072  Biso   1.000  H
  H418     1.0000 0.05959  0.53240  0.44950  Biso   1.000  H
  N13      1.0000 0.02253  0.54474  0.35446  Biso   1.000  N
  H419     1.0000 0.17880  0.02899  0.61372  Biso   1.000  H
  H420     1.0000 0.17618  0.07519  0.53961  Biso   1.000  H
  H421     1.0000 0.17010  0.13770  0.60091  Biso   1.000  H
  C347     1.0000 0.20086  0.66544  0.94724  Biso   1.000  C
  H422     1.0000 0.28948  0.77568  0.86831  Biso   1.000  H
  H423     1.0000 0.31259  0.78432  0.81619  Biso   1.000  H
  H424     1.0000 0.27389  0.82711  0.79431  Biso   1.000  H
  C348     1.0000 0.14950  0.44829  0.81341  Biso   1.000  C
  C349     1.0000 0.04913  0.92146  0.64825  Biso   1.000  C
  C350     1.0000 0.09369  0.04084  0.66961  Biso   1.000  C
  C351     1.0000 0.00307  0.50042  0.38737  Biso   1.000  C
  H425     1.0000 0.01760  0.55261  0.30990  Biso   1.000  H
  C352     1.0000 0.16979  0.73923  0.91764  Biso   1.000  C
  H426     1.0000 0.22080  0.69408  0.98350  Biso   1.000  H
  H427     1.0000 0.19258  0.61059  0.96771  Biso   1.000  H
  H428     1.0000 0.13719  0.40878  0.83813  Biso   1.000  H
  H429     1.0000 0.13249  0.47463  0.77142  Biso   1.000  H
  H430     1.0000 0.16678  0.41087  0.79961  Biso   1.000  H
  C353     1.0000 0.05621  0.91791  0.72204  Biso   1.000  C
  O73      1.0000 0.02555  0.87812  0.59855  Biso   1.000  O
  H431     1.0000 0.10639  0.08627  0.65292  Biso   1.000  H
  C354     1.0000 0.10075  0.02913  0.74114  Biso   1.000  C
  O74      1.0000 0.01396  0.49868  0.45396  Biso   1.000  O
  N14      1.0000 0.97030  0.45436  0.34989  Biso   1.000  N
  C355     1.0000 0.17905  0.83213  0.91265  Biso   1.000  C
  C356     1.0000 0.13483  0.71547  0.90016  Biso   1.000  C
  C357     1.0000 0.08315  0.96195  0.77022  Biso   1.000  C
  H432     1.0000 0.04090  0.88160  0.73941  Biso   1.000  H
  C358     1.0000 0.99800  0.83045  0.61970  Biso   1.000  C
  O75      1.0000 0.12634  0.07909  0.79142  Biso   1.000  O
  C359     1.0000 0.94110  0.43742  0.38206  Biso   1.000  C
  H433     1.0000 0.96701  0.43693  0.30738  Biso   1.000  H
  C360     1.0000 0.15355  0.89889  0.89082  Biso   1.000  C
  O76      1.0000 0.21570  0.85324  0.93816  Biso   1.000  O
  H434     1.0000 0.12839  0.65233  0.90352  Biso   1.000  H
  C361     1.0000 0.10878  0.78279  0.87770  Biso   1.000  C
  C362     1.0000 0.09144  0.95101  0.84684  Biso   1.000  C
  H435     1.0000 0.00800  0.77568  0.64809  Biso   1.000  H
  H436     1.0000 0.98840  0.87310  0.64731  Biso   1.000  H
  H437     1.0000 0.97931  0.81073  0.57782  Biso   1.000  H
  C363     1.0000 0.14869  0.12934  0.76696  Biso   1.000  C
  H438     1.0000 0.92631  0.49394  0.37540  Biso   1.000  H
  H439     1.0000 0.95160  0.42753  0.43313  Biso   1.000  H
  C364     1.0000 0.91906  0.35847  0.35273  Biso   1.000  C
  C365     1.0000 0.11835  0.87561  0.87266  Biso   1.000  C
  H440     1.0000 0.16008  0.96202  0.88809  Biso   1.000  H
  C366     1.0000 0.22390  0.94704  0.93018  Biso   1.000  C
  O77      1.0000 0.07299  0.76209  0.84962  Biso   1.000  O
  H441     1.0000 0.06988  0.93477  0.85849  Biso   1.000  H
  H442     1.0000 0.10060  0.01052  0.87040  Biso   1.000  H
  H443     1.0000 0.15460  0.09373  0.73044  Biso   1.000  H
  H444     1.0000 0.13750  0.18808  0.74723  Biso   1.000  H
  H445     1.0000 0.17009  0.14237  0.80554  Biso   1.000  H
  H446     1.0000 0.92929  0.32801  0.31919  Biso   1.000  H
  H447     1.0000 0.92131  0.31373  0.39151  Biso   1.000  H
  C367     1.0000 0.88028  0.37101  0.31547  Biso   1.000  C
  H448     1.0000 0.21348  0.96571  0.88111  Biso   1.000  H
  H449     1.0000 0.21459  0.98634  0.96031  Biso   1.000  H
  H450     1.0000 0.24938  0.95443  0.94362  Biso   1.000  H
  C368     1.0000 0.06464  0.66585  0.85634  Biso   1.000  C
  H451     1.0000 0.87420  0.43742  0.31872  Biso   1.000  H
  H452     1.0000 0.87559  0.35603  0.26519  Biso   1.000  H
  C369     1.0000 0.85522  0.30822  0.34585  Biso   1.000  C
  H453     1.0000 0.07519  0.64578  0.90499  Biso   1.000  H
  H454     1.0000 0.03910  0.65840  0.84301  Biso   1.000  H
  H455     1.0000 0.07390  0.62780  0.82543  Biso   1.000  H
  H456     1.0000 0.83729  0.34613  0.35803  Biso   1.000  H
  H457     1.0000 0.86871  0.27157  0.38731  Biso   1.000  H
  C370     1.0000 0.83922  0.24648  0.28235  Biso   1.000  C
  H458     1.0000 0.85860  0.21498  0.27049  Biso   1.000  H
  H459     1.0000 0.82730  0.28739  0.24231  Biso   1.000  H
  C371     1.0000 0.81327  0.17240  0.28791  Biso   1.000  C
  H460     1.0000 0.79621  0.19979  0.30822  Biso   1.000  H
  H461     1.0000 0.80109  0.14801  0.24099  Biso   1.000  H
  H462     1.0000 0.82580  0.12167  0.31799  Biso   1.000  H
  C372     1.0000 0.74530  0.13443  0.41508  Biso   1.000  C
  O78      1.0000 0.77810  0.17449  0.45937  Biso   1.000  O
  H463     1.0000 0.74540  0.13352  0.36622  Biso   1.000  H
  H464     1.0000 0.72560  0.17220  0.41880  Biso   1.000  H
  H465     1.0000 0.74291  0.07059  0.43051  Biso   1.000  H
  C373     1.0000 0.78575  0.26341  0.43953  Biso   1.000  C
  C374     1.0000 0.76788  0.30962  0.38301  Biso   1.000  C
  C375     1.0000 0.81837  0.29714  0.48346  Biso   1.000  C
  C376     1.0000 0.77861  0.39408  0.36506  Biso   1.000  C
  H466     1.0000 0.74671  0.28341  0.35351  Biso   1.000  H
  C377     1.0000 0.83109  0.38348  0.46740  Biso   1.000  C
  C378     1.0000 0.84214  0.24334  0.54707  Biso   1.000  C
  C379     1.0000 0.75727  0.45185  0.30103  Biso   1.000  C
  C380     1.0000 0.81086  0.43631  0.40978  Biso   1.000  C
  H467     1.0000 0.85331  0.40592  0.49542  Biso   1.000  H
  C381     1.0000 0.86690  0.17596  0.52334  Biso   1.000  C
  H468     1.0000 0.82749  0.20718  0.56953  Biso   1.000  H
  H469     1.0000 0.85630  0.28801  0.58202  Biso   1.000  H
  C382     1.0000 0.76805  0.41875  0.23685  Biso   1.000  C
  H470     1.0000 0.76240  0.51902  0.30959  Biso   1.000  H
  H471     1.0000 0.73190  0.44202  0.29243  Biso   1.000  H
  O79      1.0000 0.82101  0.51986  0.38983  Biso   1.000  O
  C383     1.0000 0.90175  0.20453  0.53069  Biso   1.000  C
  C384     1.0000 0.85648  0.09233  0.49695  Biso   1.000  C
  C385     1.0000 0.75186  0.34718  0.18946  Biso   1.000  C
  C386     1.0000 0.79325  0.46767  0.21633  Biso   1.000  C
  C387     1.0000 0.85288  0.55240  0.43197  Biso   1.000  C
  C388     1.0000 0.92442  0.14955  0.50944  Biso   1.000  C
  O80      1.0000 0.90934  0.29652  0.55651  Biso   1.000  O
  H472     1.0000 0.83351  0.07178  0.49333  Biso   1.000  H
  C389     1.0000 0.87820  0.03519  0.47485  Biso   1.000  C
  O81      1.0000 0.72449  0.30676  0.21145  Biso   1.000  O
  C390     1.0000 0.76103  0.32383  0.13488  Biso   1.000  C
  C391     1.0000 0.80488  0.43819  0.16526  Biso   1.000  C
  H473     1.0000 0.80230  0.52397  0.23979  Biso   1.000  H
  H474     1.0000 0.85891  0.60983  0.41182  Biso   1.000  H
  H475     1.0000 0.87100  0.50530  0.43502  Biso   1.000  H
  H476     1.0000 0.85140  0.56523  0.47900  Biso   1.000  H
  C392     1.0000 0.91203  0.05679  0.48173  Biso   1.000  C
  H477     1.0000 0.94729  0.17052  0.51248  Biso   1.000  H
  C393     1.0000 0.94450  0.32753  0.55924  Biso   1.000  C
  O82      1.0000 0.87045  0.94530  0.44604  Biso   1.000  O
  C394     1.0000 0.71120  0.22411  0.18101  Biso   1.000  C
  C395     1.0000 0.78809  0.36369  0.12060  Biso   1.000  C
  H478     1.0000 0.74799  0.27700  0.10428  Biso   1.000  H
  O83      1.0000 0.83340  0.47930  0.14233  Biso   1.000  O
  C396     1.0000 0.93851  0.00007  0.45554  Biso   1.000  C
  H479     1.0000 0.94730  0.32990  0.51190  Biso   1.000  H
  H480     1.0000 0.96279  0.28683  0.58989  Biso   1.000  H
  C397     1.0000 0.94525  0.42244  0.58973  Biso   1.000  C
  C398     1.0000 0.83332  0.92418  0.42090  Biso   1.000  C
  H481     1.0000 0.71050  0.22432  0.13168  Biso   1.000  H
  H482     1.0000 0.68739  0.21568  0.18379  Biso   1.000  H
  H483     1.0000 0.72610  0.17289  0.20573  Biso   1.000  H
  C399     1.0000 0.79913  0.33456  0.05274  Biso   1.000  C
  C400     1.0000 0.85049  0.55171  0.18662  Biso   1.000  C
  C401     1.0000 0.93175  0.01247  0.37881  Biso   1.000  C
  H484     1.0000 0.96271  0.02070  0.48089  Biso   1.000  H
  H485     1.0000 0.93662  0.93324  0.46593  Biso   1.000  H
  H486     1.0000 0.92539  0.42648  0.60931  Biso   1.000  H
  H487     1.0000 0.94040  0.46760  0.55053  Biso   1.000  H
  N15      1.0000 0.97748  0.45526  0.64552  Biso   1.000  N
  H488     1.0000 0.82119  0.97101  0.38632  Biso   1.000  H
  H489     1.0000 0.82381  0.92481  0.46042  Biso   1.000  H
  H490     1.0000 0.82989  0.86230  0.39912  Biso   1.000  H
  C402     1.0000 0.83019  0.26077  0.08234  Biso   1.000  C
  H491     1.0000 0.77921  0.30592  0.01648  Biso   1.000  H
  H492     1.0000 0.80740  0.38941  0.03228  Biso   1.000  H
  H493     1.0000 0.86280  0.59122  0.16191  Biso   1.000  H
  H494     1.0000 0.86750  0.52544  0.22861  Biso   1.000  H
  H495     1.0000 0.83321  0.58913  0.20043  Biso   1.000  H
  C403     1.0000 0.95086  0.07854  0.35178  Biso   1.000  C
  C404     1.0000 0.90629  0.95916  0.33037  Biso   1.000  C
  C405     1.0000 0.99692  0.49958  0.61267  Biso   1.000  C
  H496     1.0000 0.98239  0.44739  0.69013  Biso   1.000  H
  C406     1.0000 0.82096  0.16787  0.08738  Biso   1.000  C
  C407     1.0000 0.86515  0.28453  0.09982  Biso   1.000  C
  C408     1.0000 0.94377  0.08216  0.27794  Biso   1.000  C
  O84      1.0000 0.97444  0.12188  0.40148  Biso   1.000  O
  C409     1.0000 0.89923  0.97094  0.25884  Biso   1.000  C
  H497     1.0000 0.89360  0.91373  0.34711  Biso   1.000  H
  O85      1.0000 0.98603  0.50132  0.54607  Biso   1.000  O
  N16      1.0000 0.02968  0.54564  0.65009  Biso   1.000  N
  C410     1.0000 0.84646  0.10118  0.10916  Biso   1.000  C
  O86      1.0000 0.78432  0.14683  0.06188  Biso   1.000  O
  H498     1.0000 0.87160  0.34774  0.09651  Biso   1.000  H
  C411     1.0000 0.89123  0.21721  0.12228  Biso   1.000  C
  C412     1.0000 0.91684  0.03805  0.22982  Biso   1.000  C
  H499     1.0000 0.95912  0.11840  0.26062  Biso   1.000  H
  C413     1.0000 0.00199  0.16955  0.38033  Biso   1.000  C
  O87      1.0000 0.87364  0.92091  0.20856  Biso   1.000  O
  C414     1.0000 0.05891  0.56265  0.61797  Biso   1.000  C
  H500     1.0000 0.03300  0.56314  0.69260  Biso   1.000  H
  C415     1.0000 0.88164  0.12439  0.12737  Biso   1.000  C
  H501     1.0000 0.83990  0.03798  0.11189  Biso   1.000  H
  C416     1.0000 0.77609  0.05296  0.06985  Biso   1.000  C
  O88      1.0000 0.92701  0.23791  0.15041  Biso   1.000  O
  C417     1.0000 0.90857  0.04899  0.15314  Biso   1.000  C
  H502     1.0000 0.99201  0.22432  0.35189  Biso   1.000  H
  H503     1.0000 0.01159  0.12690  0.35273  Biso   1.000  H
  H504     1.0000 0.02070  0.18927  0.42221  Biso   1.000  H
  C418     1.0000 0.85130  0.87066  0.23307  Biso   1.000  C
  H505     1.0000 0.07370  0.50613  0.62463  Biso   1.000  H
  H506     1.0000 0.04839  0.57247  0.56690  Biso   1.000  H
  C419     1.0000 0.08092  0.64153  0.64725  Biso   1.000  C
  H507     1.0000 0.78651  0.03429  0.11892  Biso   1.000  H
  H508     1.0000 0.78539  0.01373  0.03968  Biso   1.000  H
  H509     1.0000 0.75061  0.04557  0.05642  Biso   1.000  H
  C420     1.0000 0.93535  0.33415  0.14369  Biso   1.000  C
  H510     1.0000 0.93010  0.06523  0.14149  Biso   1.000  H
  H511     1.0000 0.89941  0.98948  0.12958  Biso   1.000  H
  H512     1.0000 0.84539  0.90627  0.26960  Biso   1.000  H
  H513     1.0000 0.86251  0.81192  0.25280  Biso   1.000  H
  H514     1.0000 0.82990  0.85763  0.19450  Biso   1.000  H
  H515     1.0000 0.07069  0.67199  0.68079  Biso   1.000  H
  H516     1.0000 0.07868  0.68627  0.60852  Biso   1.000  H
  C421     1.0000 0.11970  0.62899  0.68452  Biso   1.000  C
  H517     1.0000 0.92479  0.35422  0.09499  Biso   1.000  H
  H518     1.0000 0.96089  0.34160  0.15702  Biso   1.000  H
  H519     1.0000 0.92611  0.37220  0.17461  Biso   1.000  H
  H520     1.0000 0.12579  0.56258  0.68131  Biso   1.000  H
  H521     1.0000 0.12439  0.64397  0.73479  Biso   1.000  H
  C422     1.0000 0.14477  0.69178  0.65418  Biso   1.000  C
  H522     1.0000 0.16270  0.65394  0.64201  Biso   1.000  H
  H523     1.0000 0.13131  0.72843  0.61272  Biso   1.000  H
  C423     1.0000 0.16079  0.75352  0.71768  Biso   1.000  C
  H524     1.0000 0.14138  0.78502  0.72949  Biso   1.000  H
  H525     1.0000 0.17269  0.71261  0.75773  Biso   1.000  H
  C424     1.0000 0.18672  0.82760  0.71212  Biso   1.000  C
  H526     1.0000 0.20380  0.80021  0.69181  Biso   1.000  H
  H527     1.0000 0.19889  0.85199  0.75899  Biso   1.000  H
  H528     1.0000 0.17419  0.87833  0.68200  Biso   1.000  H
