data_image0
_cell_length_a       18.925
_cell_length_b       18.925
_cell_length_c       16.974
_cell_angle_alpha    90
_cell_angle_beta     90
_cell_angle_gamma    90

_symmetry_space_group_name_H-M    "P 1"
_symmetry_int_tables_number       1

loop_
  _symmetry_equiv_pos_as_xyz
  'x, y, z'

loop_
  _atom_site_label
  _atom_site_occupancy
  _atom_site_fract_x
  _atom_site_fract_y
  _atom_site_fract_z
  _atom_site_thermal_displace_type
  _atom_site_B_iso_or_equiv
  _atom_site_type_symbol
  C1       1.0000 0.24291  0.15250  0.62348  Biso   1.000  C
  C2       1.0000 0.25221  0.07968  0.58872  Biso   1.000  C
  O1       1.0000 0.31192  0.17458  0.64781  Biso   1.000  O
  H1       1.0000 0.22341  0.18542  0.58372  Biso   1.000  H
  H2       1.0000 0.21030  0.15091  0.66908  Biso   1.000  H
  O2       1.0000 0.28079  0.08248  0.50990  Biso   1.000  O
  C3       1.0000 0.18161  0.04032  0.57841  Biso   1.000  C
  H3       1.0000 0.28402  0.05162  0.62272  Biso   1.000  H
  C4       1.0000 0.31841  0.23070  0.69848  Biso   1.000  C
  C5       1.0000 0.22911  0.05411  0.45888  Biso   1.000  C
  O3       1.0000 0.19038  0.00491  0.50442  Biso   1.000  O
  H4       1.0000 0.14309  0.07551  0.57341  Biso   1.000  H
  C6       1.0000 0.16159  0.98732  0.64110  Biso   1.000  C
  C7       1.0000 0.37458  0.22642  0.75221  Biso   1.000  C
  C8       1.0000 0.27688  0.29041  0.69300  Biso   1.000  C
  C9       1.0000 0.26082  0.01881  0.38789  Biso   1.000  C
  H5       1.0000 0.19709  0.09242  0.44138  Biso   1.000  H
  H6       1.0000 0.14262  0.01221  0.68782  Biso   1.000  H
  O4       1.0000 0.22251  0.94732  0.66278  Biso   1.000  O
  H7       1.0000 0.12449  0.95530  0.62071  Biso   1.000  H
  C10      1.0000 0.41390  0.15878  0.76128  Biso   1.000  C
  C11      1.0000 0.39192  0.28740  0.79498  Biso   1.000  C
  C12      1.0000 0.29458  0.34991  0.73730  Biso   1.000  C
  H8       1.0000 0.23709  0.29099  0.65977  Biso   1.000  H
  C13      1.0000 0.33099  0.02970  0.36927  Biso   1.000  C
  C14      1.0000 0.21881  0.97791  0.33911  Biso   1.000  C
  C15      1.0000 0.21279  0.89310  0.71592  Biso   1.000  C
  C16      1.0000 0.48771  0.15910  0.75009  Biso   1.000  C
  C17      1.0000 0.37332  0.09881  0.77672  Biso   1.000  C
  C18      1.0000 0.35281  0.34869  0.78691  Biso   1.000  C
  H9       1.0000 0.43059  0.28661  0.82968  Biso   1.000  H
  H10      1.0000 0.26700  0.39102  0.73347  Biso   1.000  H
  C19      1.0000 0.35989  0.00021  0.30081  Biso   1.000  C
  H11      1.0000 0.35952  0.05701  0.40279  Biso   1.000  H
  C20      1.0000 0.24740  0.94779  0.27218  Biso   1.000  C
  H12      1.0000 0.17089  0.97062  0.35142  Biso   1.000  H
  C21      1.0000 0.27081  0.87350  0.76222  Biso   1.000  C
  C22      1.0000 0.14970  0.85443  0.71992  Biso   1.000  C
  N1       1.0000 0.53099  0.10219  0.76329  Biso   1.000  N
  C23      1.0000 0.52808  0.22008  0.72558  Biso   1.000  C
  N2       1.0000 0.39450  0.02980  0.76900  Biso   1.000  N
  C24      1.0000 0.29960  0.09659  0.79681  Biso   1.000  C
  H13      1.0000 0.36560  0.38948  0.81489  Biso   1.000  H
  O5       1.0000 0.42938  0.01538  0.28821  Biso   1.000  O
  C25      1.0000 0.31799  0.95852  0.25150  Biso   1.000  C
  H14      1.0000 0.21860  0.91952  0.23978  Biso   1.000  H
  C26      1.0000 0.33939  0.91250  0.76258  Biso   1.000  C
  C27      1.0000 0.26420  0.81321  0.80971  Biso   1.000  C
  C28      1.0000 0.14468  0.79551  0.76841  Biso   1.000  C
  H15      1.0000 0.11059  0.86848  0.68958  Biso   1.000  H
  C29      1.0000 0.59820  0.12697  0.75050  Biso   1.000  C
  H16      1.0000 0.51820  0.05812  0.77731  Biso   1.000  H
  C30      1.0000 0.59651  0.20021  0.72552  Biso   1.000  C
  H17      1.0000 0.51022  0.26478  0.71221  Biso   1.000  H
  C31      1.0000 0.33828  0.98520  0.77678  Biso   1.000  C
  H18      1.0000 0.43931  0.01601  0.76022  Biso   1.000  H
  C32      1.0000 0.27878  0.02748  0.79669  Biso   1.000  C
  H19      1.0000 0.27091  0.13580  0.80812  Biso   1.000  H
  C33      1.0000 0.46240  0.98721  0.21957  Biso   1.000  C
  H20      1.0000 0.33691  0.93812  0.20561  Biso   1.000  H
  C34      1.0000 0.40180  0.87303  0.75050  Biso   1.000  C
  C35      1.0000 0.20211  0.77443  0.81230  Biso   1.000  C
  H21      1.0000 0.30288  0.79878  0.84058  Biso   1.000  H
  H22      1.0000 0.10209  0.77009  0.77118  Biso   1.000  H
  C36      1.0000 0.66061  0.08750  0.76258  Biso   1.000  C
  H23      1.0000 0.63551  0.22838  0.71197  Biso   1.000  H
  H24      1.0000 0.23308  0.01078  0.80788  Biso   1.000  H
  C37      1.0000 0.53760  0.01279  0.21957  Biso   1.000  C
  H25      1.0000 0.43762  0.00359  0.17167  Biso   1.000  H
  H26      1.0000 0.46098  0.93490  0.22081  Biso   1.000  H
  N3       1.0000 0.46901  0.89781  0.76329  Biso   1.000  N
  C38      1.0000 0.40349  0.79979  0.72552  Biso   1.000  C
  H27      1.0000 0.19921  0.73369  0.84388  Biso   1.000  H
  C39      1.0000 0.66172  0.01480  0.77678  Biso   1.000  C
  C40      1.0000 0.72919  0.12650  0.76222  Biso   1.000  C
  H28      1.0000 0.53902  0.06510  0.22081  Biso   1.000  H
  O6       1.0000 0.57062  0.98462  0.28821  Biso   1.000  O
  H29      1.0000 0.56238  0.99641  0.17167  Biso   1.000  H
  C41      1.0000 0.51229  0.84090  0.75009  Biso   1.000  C
  H30      1.0000 0.48180  0.94188  0.77731  Biso   1.000  H
  C42      1.0000 0.47192  0.77992  0.72558  Biso   1.000  C
  H31      1.0000 0.36449  0.77162  0.71197  Biso   1.000  H
  N4       1.0000 0.60550  0.97020  0.76900  Biso   1.000  N
  C43      1.0000 0.72122  0.97252  0.79669  Biso   1.000  C
  C44      1.0000 0.78721  0.10690  0.71592  Biso   1.000  C
  C45      1.0000 0.73580  0.18679  0.80971  Biso   1.000  C
  C46      1.0000 0.64011  0.99979  0.30081  Biso   1.000  C
  C47      1.0000 0.58610  0.84122  0.76128  Biso   1.000  C
  H32      1.0000 0.48978  0.73522  0.71221  Biso   1.000  H
  C48      1.0000 0.62668  0.90119  0.77672  Biso   1.000  C
  H33      1.0000 0.56069  0.98399  0.76022  Biso   1.000  H
  C49      1.0000 0.70040  0.90341  0.79681  Biso   1.000  C
  H34      1.0000 0.76692  0.98922  0.80788  Biso   1.000  H
  O7       1.0000 0.77749  0.05268  0.66278  Biso   1.000  O
  C50      1.0000 0.85030  0.14557  0.71992  Biso   1.000  C
  C51      1.0000 0.79789  0.22557  0.81230  Biso   1.000  C
  H35      1.0000 0.69712  0.20122  0.84058  Biso   1.000  H
  C52      1.0000 0.68201  0.04148  0.25150  Biso   1.000  C
  C53      1.0000 0.66901  0.97030  0.36927  Biso   1.000  C
  C54      1.0000 0.62542  0.77358  0.75221  Biso   1.000  C
  H36      1.0000 0.72909  0.86420  0.80812  Biso   1.000  H
  C55      1.0000 0.83841  0.01268  0.64110  Biso   1.000  C
  C56      1.0000 0.85532  0.20449  0.76841  Biso   1.000  C
  H37      1.0000 0.88941  0.13152  0.68958  Biso   1.000  H
  H38      1.0000 0.80079  0.26631  0.84388  Biso   1.000  H
  C57      1.0000 0.75260  0.05221  0.27218  Biso   1.000  C
  H39      1.0000 0.66309  0.06188  0.20561  Biso   1.000  H
  C58      1.0000 0.73918  0.98119  0.38789  Biso   1.000  C
  H40      1.0000 0.64048  0.94299  0.40279  Biso   1.000  H
  C59      1.0000 0.68159  0.76930  0.69848  Biso   1.000  C
  C60      1.0000 0.60808  0.71260  0.79498  Biso   1.000  C
  C61      1.0000 0.81839  0.95968  0.57841  Biso   1.000  C
  H41      1.0000 0.87551  0.04470  0.62071  Biso   1.000  H
  H42      1.0000 0.85738  0.98779  0.68782  Biso   1.000  H
  H43      1.0000 0.89791  0.22991  0.77118  Biso   1.000  H
  C62      1.0000 0.78119  0.02209  0.33911  Biso   1.000  C
  H44      1.0000 0.78140  0.08048  0.23978  Biso   1.000  H
  C63      1.0000 0.77089  0.94589  0.45888  Biso   1.000  C
  O8       1.0000 0.68808  0.82542  0.64781  Biso   1.000  O
  C64      1.0000 0.72312  0.70959  0.69300  Biso   1.000  C
  C65      1.0000 0.64719  0.65131  0.78691  Biso   1.000  C
  H45      1.0000 0.56941  0.71339  0.82968  Biso   1.000  H
  O9       1.0000 0.80962  0.99509  0.50442  Biso   1.000  O
  C66      1.0000 0.74779  0.92032  0.58872  Biso   1.000  C
  H46      1.0000 0.85691  0.92449  0.57341  Biso   1.000  H
  H47      1.0000 0.82911  0.02938  0.35142  Biso   1.000  H
  O10      1.0000 0.71921  0.91752  0.50990  Biso   1.000  O
  H48      1.0000 0.80291  0.90758  0.44138  Biso   1.000  H
  C67      1.0000 0.75709  0.84750  0.62348  Biso   1.000  C
  C68      1.0000 0.70542  0.65009  0.73730  Biso   1.000  C
  H49      1.0000 0.76291  0.70901  0.65977  Biso   1.000  H
  H50      1.0000 0.63440  0.61052  0.81489  Biso   1.000  H
  H51      1.0000 0.71598  0.94838  0.62272  Biso   1.000  H
  H52      1.0000 0.77659  0.81458  0.58372  Biso   1.000  H
  H53      1.0000 0.78970  0.84909  0.66908  Biso   1.000  H
  H54      1.0000 0.73300  0.60898  0.73347  Biso   1.000  H
  C69      1.0000 0.24291  0.15250  0.62348  Biso   1.000  C
  C70      1.0000 0.25221  0.07968  0.58872  Biso   1.000  C
  O11      1.0000 0.31192  0.17458  0.64781  Biso   1.000  O
  H55      1.0000 0.22341  0.18542  0.58372  Biso   1.000  H
  H56      1.0000 0.21030  0.15091  0.66908  Biso   1.000  H
  O12      1.0000 0.28079  0.08248  0.50990  Biso   1.000  O
  C71      1.0000 0.18161  0.04032  0.57841  Biso   1.000  C
  H57      1.0000 0.28402  0.05162  0.62272  Biso   1.000  H
  C72      1.0000 0.31841  0.23070  0.69848  Biso   1.000  C
  C73      1.0000 0.22911  0.05411  0.45888  Biso   1.000  C
  O13      1.0000 0.19038  0.00491  0.50442  Biso   1.000  O
  H58      1.0000 0.14309  0.07551  0.57341  Biso   1.000  H
  C74      1.0000 0.16159  0.98732  0.64110  Biso   1.000  C
  C75      1.0000 0.37458  0.22642  0.75221  Biso   1.000  C
  C76      1.0000 0.27688  0.29041  0.69300  Biso   1.000  C
  C77      1.0000 0.26082  0.01881  0.38789  Biso   1.000  C
  H59      1.0000 0.19709  0.09242  0.44138  Biso   1.000  H
  H60      1.0000 0.14262  0.01221  0.68782  Biso   1.000  H
  O14      1.0000 0.22251  0.94732  0.66278  Biso   1.000  O
  H61      1.0000 0.12449  0.95530  0.62071  Biso   1.000  H
  C78      1.0000 0.41390  0.15878  0.76128  Biso   1.000  C
  C79      1.0000 0.39192  0.28740  0.79498  Biso   1.000  C
  C80      1.0000 0.29458  0.34991  0.73730  Biso   1.000  C
  H62      1.0000 0.23709  0.29099  0.65977  Biso   1.000  H
  C81      1.0000 0.33099  0.02970  0.36927  Biso   1.000  C
  C82      1.0000 0.21881  0.97791  0.33911  Biso   1.000  C
  C83      1.0000 0.21279  0.89310  0.71592  Biso   1.000  C
  C84      1.0000 0.48771  0.15910  0.75009  Biso   1.000  C
  C85      1.0000 0.37332  0.09881  0.77672  Biso   1.000  C
  C86      1.0000 0.35281  0.34869  0.78691  Biso   1.000  C
  H63      1.0000 0.43059  0.28661  0.82968  Biso   1.000  H
  H64      1.0000 0.26700  0.39102  0.73347  Biso   1.000  H
  C87      1.0000 0.35989  0.00021  0.30081  Biso   1.000  C
  H65      1.0000 0.35952  0.05701  0.40279  Biso   1.000  H
  C88      1.0000 0.24740  0.94779  0.27218  Biso   1.000  C
  H66      1.0000 0.17089  0.97062  0.35142  Biso   1.000  H
  C89      1.0000 0.27081  0.87350  0.76222  Biso   1.000  C
  C90      1.0000 0.14970  0.85443  0.71992  Biso   1.000  C
  N5       1.0000 0.53099  0.10219  0.76329  Biso   1.000  N
  C91      1.0000 0.52808  0.22008  0.72558  Biso   1.000  C
  N6       1.0000 0.39450  0.02980  0.76900  Biso   1.000  N
  C92      1.0000 0.29960  0.09659  0.79681  Biso   1.000  C
  H67      1.0000 0.36560  0.38948  0.81489  Biso   1.000  H
  O15      1.0000 0.42938  0.01538  0.28821  Biso   1.000  O
  C93      1.0000 0.31799  0.95852  0.25150  Biso   1.000  C
  H68      1.0000 0.21860  0.91952  0.23978  Biso   1.000  H
  C94      1.0000 0.33939  0.91250  0.76258  Biso   1.000  C
  C95      1.0000 0.26420  0.81321  0.80971  Biso   1.000  C
  C96      1.0000 0.14468  0.79551  0.76841  Biso   1.000  C
  H69      1.0000 0.11059  0.86848  0.68958  Biso   1.000  H
  C97      1.0000 0.59820  0.12697  0.75050  Biso   1.000  C
  H70      1.0000 0.51820  0.05812  0.77731  Biso   1.000  H
  C98      1.0000 0.59651  0.20021  0.72552  Biso   1.000  C
  H71      1.0000 0.51022  0.26478  0.71221  Biso   1.000  H
  C99      1.0000 0.33828  0.98520  0.77678  Biso   1.000  C
  H72      1.0000 0.43931  0.01601  0.76022  Biso   1.000  H
  C100     1.0000 0.27878  0.02748  0.79669  Biso   1.000  C
  H73      1.0000 0.27091  0.13580  0.80812  Biso   1.000  H
  C101     1.0000 0.46240  0.98721  0.21957  Biso   1.000  C
  H74      1.0000 0.33691  0.93812  0.20561  Biso   1.000  H
  C102     1.0000 0.40180  0.87303  0.75050  Biso   1.000  C
  C103     1.0000 0.20211  0.77443  0.81230  Biso   1.000  C
  H75      1.0000 0.30288  0.79878  0.84058  Biso   1.000  H
  H76      1.0000 0.10209  0.77009  0.77118  Biso   1.000  H
  C104     1.0000 0.66061  0.08750  0.76258  Biso   1.000  C
  H77      1.0000 0.63551  0.22838  0.71197  Biso   1.000  H
  H78      1.0000 0.23308  0.01078  0.80788  Biso   1.000  H
  C105     1.0000 0.53760  0.01279  0.21957  Biso   1.000  C
  H79      1.0000 0.43762  0.00359  0.17167  Biso   1.000  H
  H80      1.0000 0.46098  0.93490  0.22081  Biso   1.000  H
  N7       1.0000 0.46901  0.89781  0.76329  Biso   1.000  N
  C106     1.0000 0.40349  0.79979  0.72552  Biso   1.000  C
  H81      1.0000 0.19921  0.73369  0.84388  Biso   1.000  H
  C107     1.0000 0.66172  0.01480  0.77678  Biso   1.000  C
  C108     1.0000 0.72919  0.12650  0.76222  Biso   1.000  C
  H82      1.0000 0.53902  0.06510  0.22081  Biso   1.000  H
  O16      1.0000 0.57062  0.98462  0.28821  Biso   1.000  O
  H83      1.0000 0.56238  0.99641  0.17167  Biso   1.000  H
  C109     1.0000 0.51229  0.84090  0.75009  Biso   1.000  C
  H84      1.0000 0.48180  0.94188  0.77731  Biso   1.000  H
  C110     1.0000 0.47192  0.77992  0.72558  Biso   1.000  C
  H85      1.0000 0.36449  0.77162  0.71197  Biso   1.000  H
  N8       1.0000 0.60550  0.97020  0.76900  Biso   1.000  N
  C111     1.0000 0.72122  0.97252  0.79669  Biso   1.000  C
  C112     1.0000 0.78721  0.10690  0.71592  Biso   1.000  C
  C113     1.0000 0.73580  0.18679  0.80971  Biso   1.000  C
  C114     1.0000 0.64011  0.99979  0.30081  Biso   1.000  C
  C115     1.0000 0.58610  0.84122  0.76128  Biso   1.000  C
  H86      1.0000 0.48978  0.73522  0.71221  Biso   1.000  H
  C116     1.0000 0.62668  0.90119  0.77672  Biso   1.000  C
  H87      1.0000 0.56069  0.98399  0.76022  Biso   1.000  H
  C117     1.0000 0.70040  0.90341  0.79681  Biso   1.000  C
  H88      1.0000 0.76692  0.98922  0.80788  Biso   1.000  H
  O17      1.0000 0.77749  0.05268  0.66278  Biso   1.000  O
  C118     1.0000 0.85030  0.14557  0.71992  Biso   1.000  C
  C119     1.0000 0.79789  0.22557  0.81230  Biso   1.000  C
  H89      1.0000 0.69712  0.20122  0.84058  Biso   1.000  H
  C120     1.0000 0.68201  0.04148  0.25150  Biso   1.000  C
  C121     1.0000 0.66901  0.97030  0.36927  Biso   1.000  C
  C122     1.0000 0.62542  0.77358  0.75221  Biso   1.000  C
  H90      1.0000 0.72909  0.86420  0.80812  Biso   1.000  H
  C123     1.0000 0.83841  0.01268  0.64110  Biso   1.000  C
  C124     1.0000 0.85532  0.20449  0.76841  Biso   1.000  C
  H91      1.0000 0.88941  0.13152  0.68958  Biso   1.000  H
  H92      1.0000 0.80079  0.26631  0.84388  Biso   1.000  H
  C125     1.0000 0.75260  0.05221  0.27218  Biso   1.000  C
  H93      1.0000 0.66309  0.06188  0.20561  Biso   1.000  H
  C126     1.0000 0.73918  0.98119  0.38789  Biso   1.000  C
  H94      1.0000 0.64048  0.94299  0.40279  Biso   1.000  H
  C127     1.0000 0.68159  0.76930  0.69848  Biso   1.000  C
  C128     1.0000 0.60808  0.71260  0.79498  Biso   1.000  C
  C129     1.0000 0.81839  0.95968  0.57841  Biso   1.000  C
  H95      1.0000 0.87551  0.04470  0.62071  Biso   1.000  H
  H96      1.0000 0.85738  0.98779  0.68782  Biso   1.000  H
  H97      1.0000 0.89791  0.22991  0.77118  Biso   1.000  H
  C130     1.0000 0.78119  0.02209  0.33911  Biso   1.000  C
  H98      1.0000 0.78140  0.08048  0.23978  Biso   1.000  H
  C131     1.0000 0.77089  0.94589  0.45888  Biso   1.000  C
  O18      1.0000 0.68808  0.82542  0.64781  Biso   1.000  O
  C132     1.0000 0.72312  0.70959  0.69300  Biso   1.000  C
  C133     1.0000 0.64719  0.65131  0.78691  Biso   1.000  C
  H99      1.0000 0.56941  0.71339  0.82968  Biso   1.000  H
  O19      1.0000 0.80962  0.99509  0.50442  Biso   1.000  O
  C134     1.0000 0.74779  0.92032  0.58872  Biso   1.000  C
  H100     1.0000 0.85691  0.92449  0.57341  Biso   1.000  H
  H101     1.0000 0.82911  0.02938  0.35142  Biso   1.000  H
  O20      1.0000 0.71921  0.91752  0.50990  Biso   1.000  O
  H102     1.0000 0.80291  0.90758  0.44138  Biso   1.000  H
  C135     1.0000 0.75709  0.84750  0.62348  Biso   1.000  C
  C136     1.0000 0.70542  0.65009  0.73730  Biso   1.000  C
  H103     1.0000 0.76291  0.70901  0.65977  Biso   1.000  H
  H104     1.0000 0.63440  0.61052  0.81489  Biso   1.000  H
  H105     1.0000 0.71598  0.94838  0.62272  Biso   1.000  H
  H106     1.0000 0.77659  0.81458  0.58372  Biso   1.000  H
  H107     1.0000 0.78970  0.84909  0.66908  Biso   1.000  H
  H108     1.0000 0.73300  0.60898  0.73347  Biso   1.000  H
  C137     1.0000 0.02970  0.16898  0.61930  Biso   1.000  C
  C138     1.0000 0.00021  0.14008  0.55078  Biso   1.000  C
  C139     1.0000 0.01881  0.23921  0.63792  Biso   1.000  C
  H109     1.0000 0.05701  0.14050  0.65282  Biso   1.000  H
  O21      1.0000 0.01538  0.07059  0.53818  Biso   1.000  O
  C140     1.0000 0.95852  0.18198  0.50147  Biso   1.000  C
  C141     1.0000 0.05411  0.27091  0.70891  Biso   1.000  C
  C142     1.0000 0.97791  0.28122  0.58908  Biso   1.000  C
  C143     1.0000 0.98721  0.03762  0.46960  Biso   1.000  C
  C144     1.0000 0.94779  0.25258  0.52221  Biso   1.000  C
  H110     1.0000 0.93812  0.16312  0.45558  Biso   1.000  H
  O22      1.0000 0.00491  0.30959  0.75439  Biso   1.000  O
  O23      1.0000 0.08248  0.21918  0.75993  Biso   1.000  O
  H111     1.0000 0.09242  0.30288  0.69141  Biso   1.000  H
  H112     1.0000 0.97062  0.32909  0.60139  Biso   1.000  H
  H113     1.0000 0.00359  0.06240  0.42170  Biso   1.000  H
  H114     1.0000 0.93490  0.03900  0.47078  Biso   1.000  H
  C145     1.0000 0.01279  0.96238  0.46960  Biso   1.000  C
  H115     1.0000 0.91952  0.28137  0.48981  Biso   1.000  H
  C146     1.0000 0.04032  0.31841  0.82838  Biso   1.000  C
  C147     1.0000 0.07968  0.24782  0.83869  Biso   1.000  C
  O24      1.0000 0.98462  0.92941  0.53818  Biso   1.000  O
  H116     1.0000 0.99641  0.93760  0.42170  Biso   1.000  H
  H117     1.0000 0.06510  0.96100  0.47078  Biso   1.000  H
  H118     1.0000 0.07551  0.35688  0.82338  Biso   1.000  H
  C148     1.0000 0.98732  0.33839  0.89113  Biso   1.000  C
  H119     1.0000 0.05162  0.21601  0.87269  Biso   1.000  H
  C149     1.0000 0.15250  0.25712  0.87351  Biso   1.000  C
  C150     1.0000 0.99979  0.85992  0.55078  Biso   1.000  C
  H120     1.0000 0.01221  0.35741  0.93779  Biso   1.000  H
  O25      1.0000 0.94732  0.27752  0.91281  Biso   1.000  O
  H121     1.0000 0.95530  0.37548  0.87068  Biso   1.000  H
  O26      1.0000 0.17458  0.18811  0.89778  Biso   1.000  O
  H122     1.0000 0.18542  0.27662  0.83369  Biso   1.000  H
  H123     1.0000 0.15091  0.28972  0.91911  Biso   1.000  H
  C151     1.0000 0.97030  0.83102  0.61930  Biso   1.000  C
  C152     1.0000 0.04148  0.81802  0.50147  Biso   1.000  C
  C153     1.0000 0.89310  0.28719  0.96589  Biso   1.000  C
  C154     1.0000 0.23070  0.18161  0.94851  Biso   1.000  C
  C155     1.0000 0.98119  0.76079  0.63792  Biso   1.000  C
  H124     1.0000 0.94299  0.85950  0.65282  Biso   1.000  H
  C156     1.0000 0.05221  0.74742  0.52221  Biso   1.000  C
  H125     1.0000 0.06188  0.83688  0.45558  Biso   1.000  H
  C157     1.0000 0.85443  0.35028  0.96990  Biso   1.000  C
  C158     1.0000 0.87350  0.22922  0.01220  Biso   1.000  C
  C159     1.0000 0.29041  0.22309  0.94297  Biso   1.000  C
  C160     1.0000 0.22642  0.12539  0.00218  Biso   1.000  C
  C161     1.0000 0.94589  0.72909  0.70891  Biso   1.000  C
  C162     1.0000 0.02209  0.71878  0.58908  Biso   1.000  C
  H126     1.0000 0.08048  0.71863  0.48981  Biso   1.000  H
  H127     1.0000 0.86848  0.38938  0.93961  Biso   1.000  H
  C163     1.0000 0.79551  0.35530  0.01838  Biso   1.000  C
  C164     1.0000 0.91250  0.16058  0.01261  Biso   1.000  C
  C165     1.0000 0.81321  0.23583  0.05968  Biso   1.000  C
  C166     1.0000 0.34991  0.20539  0.98727  Biso   1.000  C
  H128     1.0000 0.29099  0.26288  0.90980  Biso   1.000  H
  C167     1.0000 0.15878  0.08608  0.01131  Biso   1.000  C
  C168     1.0000 0.28740  0.10811  0.04501  Biso   1.000  C
  O27      1.0000 0.99509  0.69041  0.75439  Biso   1.000  O
  O28      1.0000 0.91752  0.78082  0.75993  Biso   1.000  O
  H129     1.0000 0.90758  0.69712  0.69141  Biso   1.000  H
  H130     1.0000 0.02938  0.67091  0.60139  Biso   1.000  H
  C169     1.0000 0.77443  0.29791  0.06227  Biso   1.000  C
  H131     1.0000 0.77009  0.39789  0.02121  Biso   1.000  H
  C170     1.0000 0.87303  0.09818  0.00047  Biso   1.000  C
  C171     1.0000 0.98520  0.16169  0.02681  Biso   1.000  C
  H132     1.0000 0.79878  0.19709  0.09061  Biso   1.000  H
  H133     1.0000 0.39102  0.23303  0.98350  Biso   1.000  H
  C172     1.0000 0.34869  0.14721  0.03688  Biso   1.000  C
  C173     1.0000 0.09881  0.12671  0.02669  Biso   1.000  C
  C174     1.0000 0.15910  0.01231  0.00012  Biso   1.000  C
  H134     1.0000 0.28661  0.06938  0.07971  Biso   1.000  H
  C175     1.0000 0.95968  0.68159  0.82838  Biso   1.000  C
  C176     1.0000 0.92032  0.75218  0.83869  Biso   1.000  C
  H135     1.0000 0.73369  0.30082  0.09391  Biso   1.000  H
  C177     1.0000 0.79979  0.09649  0.97549  Biso   1.000  C
  N9       1.0000 0.89781  0.03102  0.01331  Biso   1.000  N
  N10      1.0000 0.02980  0.10552  0.01903  Biso   1.000  N
  C178     1.0000 0.02748  0.22119  0.04672  Biso   1.000  C
  H136     1.0000 0.38948  0.13443  0.06492  Biso   1.000  H
  C179     1.0000 0.09659  0.20042  0.04678  Biso   1.000  C
  C180     1.0000 0.22008  0.97189  0.97561  Biso   1.000  C
  N11      1.0000 0.10219  0.96898  0.01331  Biso   1.000  N
  H137     1.0000 0.92449  0.64312  0.82338  Biso   1.000  H
  C181     1.0000 0.01268  0.66161  0.89113  Biso   1.000  C
  C182     1.0000 0.84750  0.74288  0.87351  Biso   1.000  C
  H138     1.0000 0.94838  0.78399  0.87269  Biso   1.000  H
  C183     1.0000 0.77992  0.02811  0.97561  Biso   1.000  C
  H139     1.0000 0.77162  0.13548  0.96200  Biso   1.000  H
  C184     1.0000 0.84090  0.98769  0.00012  Biso   1.000  C
  H140     1.0000 0.94188  0.01818  0.02728  Biso   1.000  H
  H141     1.0000 0.01601  0.06071  0.01019  Biso   1.000  H
  H142     1.0000 0.01078  0.26690  0.05791  Biso   1.000  H
  H143     1.0000 0.13580  0.22911  0.05809  Biso   1.000  H
  C185     1.0000 0.20021  0.90351  0.97549  Biso   1.000  C
  H144     1.0000 0.26478  0.98980  0.96218  Biso   1.000  H
  C186     1.0000 0.12697  0.90182  0.00047  Biso   1.000  C
  H145     1.0000 0.05812  0.98182  0.02728  Biso   1.000  H
  H146     1.0000 0.98779  0.64259  0.93779  Biso   1.000  H
  O29      1.0000 0.05268  0.72248  0.91281  Biso   1.000  O
  H147     1.0000 0.04470  0.62452  0.87068  Biso   1.000  H
  O30      1.0000 0.82542  0.81189  0.89778  Biso   1.000  O
  H148     1.0000 0.81458  0.72338  0.83369  Biso   1.000  H
  H149     1.0000 0.84909  0.71028  0.91911  Biso   1.000  H
  H150     1.0000 0.73522  0.01020  0.96218  Biso   1.000  H
  C187     1.0000 0.84122  0.91392  0.01131  Biso   1.000  C
  H151     1.0000 0.22838  0.86452  0.96200  Biso   1.000  H
  C188     1.0000 0.08750  0.83942  0.01261  Biso   1.000  C
  C189     1.0000 0.10690  0.71281  0.96589  Biso   1.000  C
  C190     1.0000 0.76930  0.81839  0.94851  Biso   1.000  C
  C191     1.0000 0.77358  0.87461  0.00218  Biso   1.000  C
  C192     1.0000 0.90119  0.87329  0.02669  Biso   1.000  C
  C193     1.0000 0.12650  0.77078  0.01220  Biso   1.000  C
  C194     1.0000 0.01480  0.83831  0.02681  Biso   1.000  C
  C195     1.0000 0.14557  0.64972  0.96990  Biso   1.000  C
  C196     1.0000 0.70959  0.77691  0.94297  Biso   1.000  C
  C197     1.0000 0.71260  0.89189  0.04501  Biso   1.000  C
  N12      1.0000 0.97020  0.89448  0.01903  Biso   1.000  N
  C198     1.0000 0.90341  0.79958  0.04678  Biso   1.000  C
  C199     1.0000 0.18679  0.76417  0.05968  Biso   1.000  C
  C200     1.0000 0.97252  0.77881  0.04672  Biso   1.000  C
  H152     1.0000 0.13152  0.61062  0.93961  Biso   1.000  H
  C201     1.0000 0.20449  0.64470  0.01838  Biso   1.000  C
  C202     1.0000 0.65009  0.79461  0.98727  Biso   1.000  C
  H153     1.0000 0.70901  0.73712  0.90980  Biso   1.000  H
  C203     1.0000 0.65131  0.85279  0.03688  Biso   1.000  C
  H154     1.0000 0.71339  0.93062  0.07971  Biso   1.000  H
  H155     1.0000 0.98399  0.93929  0.01019  Biso   1.000  H
  H156     1.0000 0.86420  0.77089  0.05809  Biso   1.000  H
  C204     1.0000 0.22557  0.70209  0.06227  Biso   1.000  C
  H157     1.0000 0.20122  0.80291  0.09061  Biso   1.000  H
  H158     1.0000 0.98922  0.73310  0.05791  Biso   1.000  H
  H159     1.0000 0.22991  0.60211  0.02121  Biso   1.000  H
  H160     1.0000 0.60898  0.76697  0.98350  Biso   1.000  H
  H161     1.0000 0.61052  0.86557  0.06492  Biso   1.000  H
  H162     1.0000 0.26631  0.69918  0.09391  Biso   1.000  H
  C205     1.0000 0.02970  0.16898  0.61930  Biso   1.000  C
  C206     1.0000 0.00021  0.14008  0.55078  Biso   1.000  C
  C207     1.0000 0.01881  0.23921  0.63792  Biso   1.000  C
  H163     1.0000 0.05701  0.14050  0.65282  Biso   1.000  H
  O31      1.0000 0.01538  0.07059  0.53818  Biso   1.000  O
  C208     1.0000 0.95852  0.18198  0.50147  Biso   1.000  C
  C209     1.0000 0.05411  0.27091  0.70891  Biso   1.000  C
  C210     1.0000 0.97791  0.28122  0.58908  Biso   1.000  C
  C211     1.0000 0.98721  0.03762  0.46960  Biso   1.000  C
  C212     1.0000 0.94779  0.25258  0.52221  Biso   1.000  C
  H164     1.0000 0.93812  0.16312  0.45558  Biso   1.000  H
  O32      1.0000 0.00491  0.30959  0.75439  Biso   1.000  O
  O33      1.0000 0.08248  0.21918  0.75993  Biso   1.000  O
  H165     1.0000 0.09242  0.30288  0.69141  Biso   1.000  H
  H166     1.0000 0.97062  0.32909  0.60139  Biso   1.000  H
  H167     1.0000 0.00359  0.06240  0.42170  Biso   1.000  H
  H168     1.0000 0.93490  0.03900  0.47078  Biso   1.000  H
  C213     1.0000 0.01279  0.96238  0.46960  Biso   1.000  C
  H169     1.0000 0.91952  0.28137  0.48981  Biso   1.000  H
  C214     1.0000 0.04032  0.31841  0.82838  Biso   1.000  C
  C215     1.0000 0.07968  0.24782  0.83869  Biso   1.000  C
  O34      1.0000 0.98462  0.92941  0.53818  Biso   1.000  O
  H170     1.0000 0.99641  0.93760  0.42170  Biso   1.000  H
  H171     1.0000 0.06510  0.96100  0.47078  Biso   1.000  H
  H172     1.0000 0.07551  0.35688  0.82338  Biso   1.000  H
  C216     1.0000 0.98732  0.33839  0.89113  Biso   1.000  C
  H173     1.0000 0.05162  0.21601  0.87269  Biso   1.000  H
  C217     1.0000 0.15250  0.25712  0.87351  Biso   1.000  C
  C218     1.0000 0.99979  0.85992  0.55078  Biso   1.000  C
  H174     1.0000 0.01221  0.35741  0.93779  Biso   1.000  H
  O35      1.0000 0.94732  0.27752  0.91281  Biso   1.000  O
  H175     1.0000 0.95530  0.37548  0.87068  Biso   1.000  H
  O36      1.0000 0.17458  0.18811  0.89778  Biso   1.000  O
  H176     1.0000 0.18542  0.27662  0.83369  Biso   1.000  H
  H177     1.0000 0.15091  0.28972  0.91911  Biso   1.000  H
  C219     1.0000 0.97030  0.83102  0.61930  Biso   1.000  C
  C220     1.0000 0.04148  0.81802  0.50147  Biso   1.000  C
  C221     1.0000 0.89310  0.28719  0.96589  Biso   1.000  C
  C222     1.0000 0.23070  0.18161  0.94851  Biso   1.000  C
  C223     1.0000 0.98119  0.76079  0.63792  Biso   1.000  C
  H178     1.0000 0.94299  0.85950  0.65282  Biso   1.000  H
  C224     1.0000 0.05221  0.74742  0.52221  Biso   1.000  C
  H179     1.0000 0.06188  0.83688  0.45558  Biso   1.000  H
  C225     1.0000 0.85443  0.35028  0.96990  Biso   1.000  C
  C226     1.0000 0.87350  0.22922  0.01220  Biso   1.000  C
  C227     1.0000 0.29041  0.22309  0.94297  Biso   1.000  C
  C228     1.0000 0.22642  0.12539  0.00218  Biso   1.000  C
  C229     1.0000 0.94589  0.72909  0.70891  Biso   1.000  C
  C230     1.0000 0.02209  0.71878  0.58908  Biso   1.000  C
  H180     1.0000 0.08048  0.71863  0.48981  Biso   1.000  H
  H181     1.0000 0.86848  0.38938  0.93961  Biso   1.000  H
  C231     1.0000 0.79551  0.35530  0.01838  Biso   1.000  C
  C232     1.0000 0.91250  0.16058  0.01261  Biso   1.000  C
  C233     1.0000 0.81321  0.23583  0.05968  Biso   1.000  C
  C234     1.0000 0.34991  0.20539  0.98727  Biso   1.000  C
  H182     1.0000 0.29099  0.26288  0.90980  Biso   1.000  H
  C235     1.0000 0.15878  0.08608  0.01131  Biso   1.000  C
  C236     1.0000 0.28740  0.10811  0.04501  Biso   1.000  C
  O37      1.0000 0.99509  0.69041  0.75439  Biso   1.000  O
  O38      1.0000 0.91752  0.78082  0.75993  Biso   1.000  O
  H183     1.0000 0.90758  0.69712  0.69141  Biso   1.000  H
  H184     1.0000 0.02938  0.67091  0.60139  Biso   1.000  H
  C237     1.0000 0.77443  0.29791  0.06227  Biso   1.000  C
  H185     1.0000 0.77009  0.39789  0.02121  Biso   1.000  H
  C238     1.0000 0.87303  0.09818  0.00047  Biso   1.000  C
  C239     1.0000 0.98520  0.16169  0.02681  Biso   1.000  C
  H186     1.0000 0.79878  0.19709  0.09061  Biso   1.000  H
  H187     1.0000 0.39102  0.23303  0.98350  Biso   1.000  H
  C240     1.0000 0.34869  0.14721  0.03688  Biso   1.000  C
  C241     1.0000 0.09881  0.12671  0.02669  Biso   1.000  C
  C242     1.0000 0.15910  0.01231  0.00012  Biso   1.000  C
  H188     1.0000 0.28661  0.06938  0.07971  Biso   1.000  H
  C243     1.0000 0.95968  0.68159  0.82838  Biso   1.000  C
  C244     1.0000 0.92032  0.75218  0.83869  Biso   1.000  C
  H189     1.0000 0.73369  0.30082  0.09391  Biso   1.000  H
  C245     1.0000 0.79979  0.09649  0.97549  Biso   1.000  C
  N13      1.0000 0.89781  0.03102  0.01331  Biso   1.000  N
  N14      1.0000 0.02980  0.10552  0.01903  Biso   1.000  N
  C246     1.0000 0.02748  0.22119  0.04672  Biso   1.000  C
  H190     1.0000 0.38948  0.13443  0.06492  Biso   1.000  H
  C247     1.0000 0.09659  0.20042  0.04678  Biso   1.000  C
  C248     1.0000 0.22008  0.97189  0.97561  Biso   1.000  C
  N15      1.0000 0.10219  0.96898  0.01331  Biso   1.000  N
  H191     1.0000 0.92449  0.64312  0.82338  Biso   1.000  H
  C249     1.0000 0.01268  0.66161  0.89113  Biso   1.000  C
  C250     1.0000 0.84750  0.74288  0.87351  Biso   1.000  C
  H192     1.0000 0.94838  0.78399  0.87269  Biso   1.000  H
  C251     1.0000 0.77992  0.02811  0.97561  Biso   1.000  C
  H193     1.0000 0.77162  0.13548  0.96200  Biso   1.000  H
  C252     1.0000 0.84090  0.98769  0.00012  Biso   1.000  C
  H194     1.0000 0.94188  0.01818  0.02728  Biso   1.000  H
  H195     1.0000 0.01601  0.06071  0.01019  Biso   1.000  H
  H196     1.0000 0.01078  0.26690  0.05791  Biso   1.000  H
  H197     1.0000 0.13580  0.22911  0.05809  Biso   1.000  H
  C253     1.0000 0.20021  0.90351  0.97549  Biso   1.000  C
  H198     1.0000 0.26478  0.98980  0.96218  Biso   1.000  H
  C254     1.0000 0.12697  0.90182  0.00047  Biso   1.000  C
  H199     1.0000 0.05812  0.98182  0.02728  Biso   1.000  H
  H200     1.0000 0.98779  0.64259  0.93779  Biso   1.000  H
  O39      1.0000 0.05268  0.72248  0.91281  Biso   1.000  O
  H201     1.0000 0.04470  0.62452  0.87068  Biso   1.000  H
  O40      1.0000 0.82542  0.81189  0.89778  Biso   1.000  O
  H202     1.0000 0.81458  0.72338  0.83369  Biso   1.000  H
  H203     1.0000 0.84909  0.71028  0.91911  Biso   1.000  H
  H204     1.0000 0.73522  0.01020  0.96218  Biso   1.000  H
  C255     1.0000 0.84122  0.91392  0.01131  Biso   1.000  C
  H205     1.0000 0.22838  0.86452  0.96200  Biso   1.000  H
  C256     1.0000 0.08750  0.83942  0.01261  Biso   1.000  C
  C257     1.0000 0.10690  0.71281  0.96589  Biso   1.000  C
  C258     1.0000 0.76930  0.81839  0.94851  Biso   1.000  C
  C259     1.0000 0.77358  0.87461  0.00218  Biso   1.000  C
  C260     1.0000 0.90119  0.87329  0.02669  Biso   1.000  C
  C261     1.0000 0.12650  0.77078  0.01220  Biso   1.000  C
  C262     1.0000 0.01480  0.83831  0.02681  Biso   1.000  C
  C263     1.0000 0.14557  0.64972  0.96990  Biso   1.000  C
  C264     1.0000 0.70959  0.77691  0.94297  Biso   1.000  C
  C265     1.0000 0.71260  0.89189  0.04501  Biso   1.000  C
  N16      1.0000 0.97020  0.89448  0.01903  Biso   1.000  N
  C266     1.0000 0.90341  0.79958  0.04678  Biso   1.000  C
  C267     1.0000 0.18679  0.76417  0.05968  Biso   1.000  C
  C268     1.0000 0.97252  0.77881  0.04672  Biso   1.000  C
  H206     1.0000 0.13152  0.61062  0.93961  Biso   1.000  H
  C269     1.0000 0.20449  0.64470  0.01838  Biso   1.000  C
  C270     1.0000 0.65009  0.79461  0.98727  Biso   1.000  C
  H207     1.0000 0.70901  0.73712  0.90980  Biso   1.000  H
  C271     1.0000 0.65131  0.85279  0.03688  Biso   1.000  C
  H208     1.0000 0.71339  0.93062  0.07971  Biso   1.000  H
  H209     1.0000 0.98399  0.93929  0.01019  Biso   1.000  H
  H210     1.0000 0.86420  0.77089  0.05809  Biso   1.000  H
  C272     1.0000 0.22557  0.70209  0.06227  Biso   1.000  C
  H211     1.0000 0.20122  0.80291  0.09061  Biso   1.000  H
  H212     1.0000 0.98922  0.73310  0.05791  Biso   1.000  H
  H213     1.0000 0.22991  0.60211  0.02121  Biso   1.000  H
  H214     1.0000 0.60898  0.76697  0.98350  Biso   1.000  H
  H215     1.0000 0.61052  0.86557  0.06492  Biso   1.000  H
  H216     1.0000 0.26631  0.69918  0.09391  Biso   1.000  H
  C273     1.0000 0.02970  0.16898  0.61930  Biso   1.000  C
  C274     1.0000 0.00021  0.14008  0.55078  Biso   1.000  C
  C275     1.0000 0.01881  0.23921  0.63792  Biso   1.000  C
  H217     1.0000 0.05701  0.14050  0.65282  Biso   1.000  H
  O41      1.0000 0.01538  0.07059  0.53818  Biso   1.000  O
  C276     1.0000 0.95852  0.18198  0.50147  Biso   1.000  C
  C277     1.0000 0.05411  0.27091  0.70891  Biso   1.000  C
  C278     1.0000 0.97791  0.28122  0.58908  Biso   1.000  C
  C279     1.0000 0.98721  0.03762  0.46960  Biso   1.000  C
  C280     1.0000 0.94779  0.25258  0.52221  Biso   1.000  C
  H218     1.0000 0.93812  0.16312  0.45558  Biso   1.000  H
  O42      1.0000 0.00491  0.30959  0.75439  Biso   1.000  O
  O43      1.0000 0.08248  0.21918  0.75993  Biso   1.000  O
  H219     1.0000 0.09242  0.30288  0.69141  Biso   1.000  H
  H220     1.0000 0.97062  0.32909  0.60139  Biso   1.000  H
  H221     1.0000 0.00359  0.06240  0.42170  Biso   1.000  H
  H222     1.0000 0.93490  0.03900  0.47078  Biso   1.000  H
  C281     1.0000 0.01279  0.96238  0.46960  Biso   1.000  C
  H223     1.0000 0.91952  0.28137  0.48981  Biso   1.000  H
  C282     1.0000 0.04032  0.31841  0.82838  Biso   1.000  C
  C283     1.0000 0.07968  0.24782  0.83869  Biso   1.000  C
  O44      1.0000 0.98462  0.92941  0.53818  Biso   1.000  O
  H224     1.0000 0.99641  0.93760  0.42170  Biso   1.000  H
  H225     1.0000 0.06510  0.96100  0.47078  Biso   1.000  H
  H226     1.0000 0.07551  0.35688  0.82338  Biso   1.000  H
  C284     1.0000 0.98732  0.33839  0.89113  Biso   1.000  C
  H227     1.0000 0.05162  0.21601  0.87269  Biso   1.000  H
  C285     1.0000 0.15250  0.25712  0.87351  Biso   1.000  C
  C286     1.0000 0.99979  0.85992  0.55078  Biso   1.000  C
  H228     1.0000 0.01221  0.35741  0.93779  Biso   1.000  H
  O45      1.0000 0.94732  0.27752  0.91281  Biso   1.000  O
  H229     1.0000 0.95530  0.37548  0.87068  Biso   1.000  H
  O46      1.0000 0.17458  0.18811  0.89778  Biso   1.000  O
  H230     1.0000 0.18542  0.27662  0.83369  Biso   1.000  H
  H231     1.0000 0.15091  0.28972  0.91911  Biso   1.000  H
  C287     1.0000 0.97030  0.83102  0.61930  Biso   1.000  C
  C288     1.0000 0.04148  0.81802  0.50147  Biso   1.000  C
  C289     1.0000 0.89310  0.28719  0.96589  Biso   1.000  C
  C290     1.0000 0.23070  0.18161  0.94851  Biso   1.000  C
  C291     1.0000 0.98119  0.76079  0.63792  Biso   1.000  C
  H232     1.0000 0.94299  0.85950  0.65282  Biso   1.000  H
  C292     1.0000 0.05221  0.74742  0.52221  Biso   1.000  C
  H233     1.0000 0.06188  0.83688  0.45558  Biso   1.000  H
  C293     1.0000 0.85443  0.35028  0.96990  Biso   1.000  C
  C294     1.0000 0.87350  0.22922  0.01220  Biso   1.000  C
  C295     1.0000 0.29041  0.22309  0.94297  Biso   1.000  C
  C296     1.0000 0.22642  0.12539  0.00218  Biso   1.000  C
  C297     1.0000 0.94589  0.72909  0.70891  Biso   1.000  C
  C298     1.0000 0.02209  0.71878  0.58908  Biso   1.000  C
  H234     1.0000 0.08048  0.71863  0.48981  Biso   1.000  H
  H235     1.0000 0.86848  0.38938  0.93961  Biso   1.000  H
  C299     1.0000 0.79551  0.35530  0.01838  Biso   1.000  C
  C300     1.0000 0.91250  0.16058  0.01261  Biso   1.000  C
  C301     1.0000 0.81321  0.23583  0.05968  Biso   1.000  C
  C302     1.0000 0.34991  0.20539  0.98727  Biso   1.000  C
  H236     1.0000 0.29099  0.26288  0.90980  Biso   1.000  H
  C303     1.0000 0.15878  0.08608  0.01131  Biso   1.000  C
  C304     1.0000 0.28740  0.10811  0.04501  Biso   1.000  C
  O47      1.0000 0.99509  0.69041  0.75439  Biso   1.000  O
  O48      1.0000 0.91752  0.78082  0.75993  Biso   1.000  O
  H237     1.0000 0.90758  0.69712  0.69141  Biso   1.000  H
  H238     1.0000 0.02938  0.67091  0.60139  Biso   1.000  H
  C305     1.0000 0.77443  0.29791  0.06227  Biso   1.000  C
  H239     1.0000 0.77009  0.39789  0.02121  Biso   1.000  H
  C306     1.0000 0.87303  0.09818  0.00047  Biso   1.000  C
  C307     1.0000 0.98520  0.16169  0.02681  Biso   1.000  C
  H240     1.0000 0.79878  0.19709  0.09061  Biso   1.000  H
  H241     1.0000 0.39102  0.23303  0.98350  Biso   1.000  H
  C308     1.0000 0.34869  0.14721  0.03688  Biso   1.000  C
  C309     1.0000 0.09881  0.12671  0.02669  Biso   1.000  C
  C310     1.0000 0.15910  0.01231  0.00012  Biso   1.000  C
  H242     1.0000 0.28661  0.06938  0.07971  Biso   1.000  H
  C311     1.0000 0.95968  0.68159  0.82838  Biso   1.000  C
  C312     1.0000 0.92032  0.75218  0.83869  Biso   1.000  C
  H243     1.0000 0.73369  0.30082  0.09391  Biso   1.000  H
  C313     1.0000 0.79979  0.09649  0.97549  Biso   1.000  C
  N17      1.0000 0.89781  0.03102  0.01331  Biso   1.000  N
  N18      1.0000 0.02980  0.10552  0.01903  Biso   1.000  N
  C314     1.0000 0.02748  0.22119  0.04672  Biso   1.000  C
  H244     1.0000 0.38948  0.13443  0.06492  Biso   1.000  H
  C315     1.0000 0.09659  0.20042  0.04678  Biso   1.000  C
  C316     1.0000 0.22008  0.97189  0.97561  Biso   1.000  C
  N19      1.0000 0.10219  0.96898  0.01331  Biso   1.000  N
  H245     1.0000 0.92449  0.64312  0.82338  Biso   1.000  H
  C317     1.0000 0.01268  0.66161  0.89113  Biso   1.000  C
  C318     1.0000 0.84750  0.74288  0.87351  Biso   1.000  C
  H246     1.0000 0.94838  0.78399  0.87269  Biso   1.000  H
  C319     1.0000 0.77992  0.02811  0.97561  Biso   1.000  C
  H247     1.0000 0.77162  0.13548  0.96200  Biso   1.000  H
  C320     1.0000 0.84090  0.98769  0.00012  Biso   1.000  C
  H248     1.0000 0.94188  0.01818  0.02728  Biso   1.000  H
  H249     1.0000 0.01601  0.06071  0.01019  Biso   1.000  H
  H250     1.0000 0.01078  0.26690  0.05791  Biso   1.000  H
  H251     1.0000 0.13580  0.22911  0.05809  Biso   1.000  H
  C321     1.0000 0.20021  0.90351  0.97549  Biso   1.000  C
  H252     1.0000 0.26478  0.98980  0.96218  Biso   1.000  H
  C322     1.0000 0.12697  0.90182  0.00047  Biso   1.000  C
  H253     1.0000 0.05812  0.98182  0.02728  Biso   1.000  H
  H254     1.0000 0.98779  0.64259  0.93779  Biso   1.000  H
  O49      1.0000 0.05268  0.72248  0.91281  Biso   1.000  O
  H255     1.0000 0.04470  0.62452  0.87068  Biso   1.000  H
  O50      1.0000 0.82542  0.81189  0.89778  Biso   1.000  O
  H256     1.0000 0.81458  0.72338  0.83369  Biso   1.000  H
  H257     1.0000 0.84909  0.71028  0.91911  Biso   1.000  H
  H258     1.0000 0.73522  0.01020  0.96218  Biso   1.000  H
  C323     1.0000 0.84122  0.91392  0.01131  Biso   1.000  C
  H259     1.0000 0.22838  0.86452  0.96200  Biso   1.000  H
  C324     1.0000 0.08750  0.83942  0.01261  Biso   1.000  C
  C325     1.0000 0.10690  0.71281  0.96589  Biso   1.000  C
  C326     1.0000 0.76930  0.81839  0.94851  Biso   1.000  C
  C327     1.0000 0.77358  0.87461  0.00218  Biso   1.000  C
  C328     1.0000 0.90119  0.87329  0.02669  Biso   1.000  C
  C329     1.0000 0.12650  0.77078  0.01220  Biso   1.000  C
  C330     1.0000 0.01480  0.83831  0.02681  Biso   1.000  C
  C331     1.0000 0.14557  0.64972  0.96990  Biso   1.000  C
  C332     1.0000 0.70959  0.77691  0.94297  Biso   1.000  C
  C333     1.0000 0.71260  0.89189  0.04501  Biso   1.000  C
  N20      1.0000 0.97020  0.89448  0.01903  Biso   1.000  N
  C334     1.0000 0.90341  0.79958  0.04678  Biso   1.000  C
  C335     1.0000 0.18679  0.76417  0.05968  Biso   1.000  C
  C336     1.0000 0.97252  0.77881  0.04672  Biso   1.000  C
  H260     1.0000 0.13152  0.61062  0.93961  Biso   1.000  H
  C337     1.0000 0.20449  0.64470  0.01838  Biso   1.000  C
  C338     1.0000 0.65009  0.79461  0.98727  Biso   1.000  C
  H261     1.0000 0.70901  0.73712  0.90980  Biso   1.000  H
  C339     1.0000 0.65131  0.85279  0.03688  Biso   1.000  C
  H262     1.0000 0.71339  0.93062  0.07971  Biso   1.000  H
  H263     1.0000 0.98399  0.93929  0.01019  Biso   1.000  H
  H264     1.0000 0.86420  0.77089  0.05809  Biso   1.000  H
  C340     1.0000 0.22557  0.70209  0.06227  Biso   1.000  C
  H265     1.0000 0.20122  0.80291  0.09061  Biso   1.000  H
  H266     1.0000 0.98922  0.73310  0.05791  Biso   1.000  H
  H267     1.0000 0.22991  0.60211  0.02121  Biso   1.000  H
  H268     1.0000 0.60898  0.76697  0.98350  Biso   1.000  H
  H269     1.0000 0.61052  0.86557  0.06492  Biso   1.000  H
  H270     1.0000 0.26631  0.69918  0.09391  Biso   1.000  H
  C341     1.0000 0.02970  0.16898  0.61930  Biso   1.000  C
  C342     1.0000 0.00021  0.14008  0.55078  Biso   1.000  C
  C343     1.0000 0.01881  0.23921  0.63792  Biso   1.000  C
  H271     1.0000 0.05701  0.14050  0.65282  Biso   1.000  H
  O51      1.0000 0.01538  0.07059  0.53818  Biso   1.000  O
  C344     1.0000 0.95852  0.18198  0.50147  Biso   1.000  C
  C345     1.0000 0.05411  0.27091  0.70891  Biso   1.000  C
  C346     1.0000 0.97791  0.28122  0.58908  Biso   1.000  C
  C347     1.0000 0.98721  0.03762  0.46960  Biso   1.000  C
  C348     1.0000 0.94779  0.25258  0.52221  Biso   1.000  C
  H272     1.0000 0.93812  0.16312  0.45558  Biso   1.000  H
  O52      1.0000 0.00491  0.30959  0.75439  Biso   1.000  O
  O53      1.0000 0.08248  0.21918  0.75993  Biso   1.000  O
  H273     1.0000 0.09242  0.30288  0.69141  Biso   1.000  H
  H274     1.0000 0.97062  0.32909  0.60139  Biso   1.000  H
  H275     1.0000 0.00359  0.06240  0.42170  Biso   1.000  H
  H276     1.0000 0.93490  0.03900  0.47078  Biso   1.000  H
  C349     1.0000 0.01279  0.96238  0.46960  Biso   1.000  C
  H277     1.0000 0.91952  0.28137  0.48981  Biso   1.000  H
  C350     1.0000 0.04032  0.31841  0.82838  Biso   1.000  C
  C351     1.0000 0.07968  0.24782  0.83869  Biso   1.000  C
  O54      1.0000 0.98462  0.92941  0.53818  Biso   1.000  O
  H278     1.0000 0.99641  0.93760  0.42170  Biso   1.000  H
  H279     1.0000 0.06510  0.96100  0.47078  Biso   1.000  H
  H280     1.0000 0.07551  0.35688  0.82338  Biso   1.000  H
  C352     1.0000 0.98732  0.33839  0.89113  Biso   1.000  C
  H281     1.0000 0.05162  0.21601  0.87269  Biso   1.000  H
  C353     1.0000 0.15250  0.25712  0.87351  Biso   1.000  C
  C354     1.0000 0.99979  0.85992  0.55078  Biso   1.000  C
  H282     1.0000 0.01221  0.35741  0.93779  Biso   1.000  H
  O55      1.0000 0.94732  0.27752  0.91281  Biso   1.000  O
  H283     1.0000 0.95530  0.37548  0.87068  Biso   1.000  H
  O56      1.0000 0.17458  0.18811  0.89778  Biso   1.000  O
  H284     1.0000 0.18542  0.27662  0.83369  Biso   1.000  H
  H285     1.0000 0.15091  0.28972  0.91911  Biso   1.000  H
  C355     1.0000 0.97030  0.83102  0.61930  Biso   1.000  C
  C356     1.0000 0.04148  0.81802  0.50147  Biso   1.000  C
  C357     1.0000 0.89310  0.28719  0.96589  Biso   1.000  C
  C358     1.0000 0.23070  0.18161  0.94851  Biso   1.000  C
  C359     1.0000 0.98119  0.76079  0.63792  Biso   1.000  C
  H286     1.0000 0.94299  0.85950  0.65282  Biso   1.000  H
  C360     1.0000 0.05221  0.74742  0.52221  Biso   1.000  C
  H287     1.0000 0.06188  0.83688  0.45558  Biso   1.000  H
  C361     1.0000 0.85443  0.35028  0.96990  Biso   1.000  C
  C362     1.0000 0.87350  0.22922  0.01220  Biso   1.000  C
  C363     1.0000 0.29041  0.22309  0.94297  Biso   1.000  C
  C364     1.0000 0.22642  0.12539  0.00218  Biso   1.000  C
  C365     1.0000 0.94589  0.72909  0.70891  Biso   1.000  C
  C366     1.0000 0.02209  0.71878  0.58908  Biso   1.000  C
  H288     1.0000 0.08048  0.71863  0.48981  Biso   1.000  H
  H289     1.0000 0.86848  0.38938  0.93961  Biso   1.000  H
  C367     1.0000 0.79551  0.35530  0.01838  Biso   1.000  C
  C368     1.0000 0.91250  0.16058  0.01261  Biso   1.000  C
  C369     1.0000 0.81321  0.23583  0.05968  Biso   1.000  C
  C370     1.0000 0.34991  0.20539  0.98727  Biso   1.000  C
  H290     1.0000 0.29099  0.26288  0.90980  Biso   1.000  H
  C371     1.0000 0.15878  0.08608  0.01131  Biso   1.000  C
  C372     1.0000 0.28740  0.10811  0.04501  Biso   1.000  C
  O57      1.0000 0.99509  0.69041  0.75439  Biso   1.000  O
  O58      1.0000 0.91752  0.78082  0.75993  Biso   1.000  O
  H291     1.0000 0.90758  0.69712  0.69141  Biso   1.000  H
  H292     1.0000 0.02938  0.67091  0.60139  Biso   1.000  H
  C373     1.0000 0.77443  0.29791  0.06227  Biso   1.000  C
  H293     1.0000 0.77009  0.39789  0.02121  Biso   1.000  H
  C374     1.0000 0.87303  0.09818  0.00047  Biso   1.000  C
  C375     1.0000 0.98520  0.16169  0.02681  Biso   1.000  C
  H294     1.0000 0.79878  0.19709  0.09061  Biso   1.000  H
  H295     1.0000 0.39102  0.23303  0.98350  Biso   1.000  H
  C376     1.0000 0.34869  0.14721  0.03688  Biso   1.000  C
  C377     1.0000 0.09881  0.12671  0.02669  Biso   1.000  C
  C378     1.0000 0.15910  0.01231  0.00012  Biso   1.000  C
  H296     1.0000 0.28661  0.06938  0.07971  Biso   1.000  H
  C379     1.0000 0.95968  0.68159  0.82838  Biso   1.000  C
  C380     1.0000 0.92032  0.75218  0.83869  Biso   1.000  C
  H297     1.0000 0.73369  0.30082  0.09391  Biso   1.000  H
  C381     1.0000 0.79979  0.09649  0.97549  Biso   1.000  C
  N21      1.0000 0.89781  0.03102  0.01331  Biso   1.000  N
  N22      1.0000 0.02980  0.10552  0.01903  Biso   1.000  N
  C382     1.0000 0.02748  0.22119  0.04672  Biso   1.000  C
  H298     1.0000 0.38948  0.13443  0.06492  Biso   1.000  H
  C383     1.0000 0.09659  0.20042  0.04678  Biso   1.000  C
  C384     1.0000 0.22008  0.97189  0.97561  Biso   1.000  C
  N23      1.0000 0.10219  0.96898  0.01331  Biso   1.000  N
  H299     1.0000 0.92449  0.64312  0.82338  Biso   1.000  H
  C385     1.0000 0.01268  0.66161  0.89113  Biso   1.000  C
  C386     1.0000 0.84750  0.74288  0.87351  Biso   1.000  C
  H300     1.0000 0.94838  0.78399  0.87269  Biso   1.000  H
  C387     1.0000 0.77992  0.02811  0.97561  Biso   1.000  C
  H301     1.0000 0.77162  0.13548  0.96200  Biso   1.000  H
  C388     1.0000 0.84090  0.98769  0.00012  Biso   1.000  C
  H302     1.0000 0.94188  0.01818  0.02728  Biso   1.000  H
  H303     1.0000 0.01601  0.06071  0.01019  Biso   1.000  H
  H304     1.0000 0.01078  0.26690  0.05791  Biso   1.000  H
  H305     1.0000 0.13580  0.22911  0.05809  Biso   1.000  H
  C389     1.0000 0.20021  0.90351  0.97549  Biso   1.000  C
  H306     1.0000 0.26478  0.98980  0.96218  Biso   1.000  H
  C390     1.0000 0.12697  0.90182  0.00047  Biso   1.000  C
  H307     1.0000 0.05812  0.98182  0.02728  Biso   1.000  H
  H308     1.0000 0.98779  0.64259  0.93779  Biso   1.000  H
  O59      1.0000 0.05268  0.72248  0.91281  Biso   1.000  O
  H309     1.0000 0.04470  0.62452  0.87068  Biso   1.000  H
  O60      1.0000 0.82542  0.81189  0.89778  Biso   1.000  O
  H310     1.0000 0.81458  0.72338  0.83369  Biso   1.000  H
  H311     1.0000 0.84909  0.71028  0.91911  Biso   1.000  H
  H312     1.0000 0.73522  0.01020  0.96218  Biso   1.000  H
  C391     1.0000 0.84122  0.91392  0.01131  Biso   1.000  C
  H313     1.0000 0.22838  0.86452  0.96200  Biso   1.000  H
  C392     1.0000 0.08750  0.83942  0.01261  Biso   1.000  C
  C393     1.0000 0.10690  0.71281  0.96589  Biso   1.000  C
  C394     1.0000 0.76930  0.81839  0.94851  Biso   1.000  C
  C395     1.0000 0.77358  0.87461  0.00218  Biso   1.000  C
  C396     1.0000 0.90119  0.87329  0.02669  Biso   1.000  C
  C397     1.0000 0.12650  0.77078  0.01220  Biso   1.000  C
  C398     1.0000 0.01480  0.83831  0.02681  Biso   1.000  C
  C399     1.0000 0.14557  0.64972  0.96990  Biso   1.000  C
  C400     1.0000 0.70959  0.77691  0.94297  Biso   1.000  C
  C401     1.0000 0.71260  0.89189  0.04501  Biso   1.000  C
  N24      1.0000 0.97020  0.89448  0.01903  Biso   1.000  N
  C402     1.0000 0.90341  0.79958  0.04678  Biso   1.000  C
  C403     1.0000 0.18679  0.76417  0.05968  Biso   1.000  C
  C404     1.0000 0.97252  0.77881  0.04672  Biso   1.000  C
  H314     1.0000 0.13152  0.61062  0.93961  Biso   1.000  H
  C405     1.0000 0.20449  0.64470  0.01838  Biso   1.000  C
  C406     1.0000 0.65009  0.79461  0.98727  Biso   1.000  C
  H315     1.0000 0.70901  0.73712  0.90980  Biso   1.000  H
  C407     1.0000 0.65131  0.85279  0.03688  Biso   1.000  C
  H316     1.0000 0.71339  0.93062  0.07971  Biso   1.000  H
  H317     1.0000 0.98399  0.93929  0.01019  Biso   1.000  H
  H318     1.0000 0.86420  0.77089  0.05809  Biso   1.000  H
  C408     1.0000 0.22557  0.70209  0.06227  Biso   1.000  C
  H319     1.0000 0.20122  0.80291  0.09061  Biso   1.000  H
  H320     1.0000 0.98922  0.73310  0.05791  Biso   1.000  H
  H321     1.0000 0.22991  0.60211  0.02121  Biso   1.000  H
  H322     1.0000 0.60898  0.76697  0.98350  Biso   1.000  H
  H323     1.0000 0.61052  0.86557  0.06492  Biso   1.000  H
  H324     1.0000 0.26631  0.69918  0.09391  Biso   1.000  H
  C409     1.0000 0.15012  0.29458  0.48727  Biso   1.000  C
  C410     1.0000 0.20962  0.27688  0.44297  Biso   1.000  C
  C411     1.0000 0.15128  0.35281  0.53688  Biso   1.000  C
  H325     1.0000 0.10901  0.26700  0.48350  Biso   1.000  H
  C412     1.0000 0.26933  0.31841  0.44851  Biso   1.000  C
  H326     1.0000 0.20898  0.23709  0.40980  Biso   1.000  H
  C413     1.0000 0.21258  0.39192  0.54501  Biso   1.000  C
  H327     1.0000 0.11049  0.36560  0.56492  Biso   1.000  H
  O61      1.0000 0.32539  0.31192  0.39778  Biso   1.000  O
  C414     1.0000 0.27361  0.37458  0.50218  Biso   1.000  C
  H328     1.0000 0.21342  0.43059  0.57971  Biso   1.000  H
  C415     1.0000 0.34748  0.24291  0.37351  Biso   1.000  C
  C416     1.0000 0.34119  0.41390  0.51131  Biso   1.000  C
  C417     1.0000 0.42029  0.25221  0.33869  Biso   1.000  C
  H329     1.0000 0.31461  0.22341  0.33369  Biso   1.000  H
  H330     1.0000 0.34911  0.21030  0.41911  Biso   1.000  H
  C418     1.0000 0.40122  0.37332  0.52669  Biso   1.000  C
  C419     1.0000 0.34092  0.48771  0.50012  Biso   1.000  C
  O62      1.0000 0.41749  0.28079  0.25993  Biso   1.000  O
  C420     1.0000 0.45971  0.18161  0.32838  Biso   1.000  C
  H331     1.0000 0.44840  0.28402  0.37269  Biso   1.000  H
  N25      1.0000 0.47022  0.39450  0.51903  Biso   1.000  N
  C421     1.0000 0.40338  0.29960  0.54678  Biso   1.000  C
  N26      1.0000 0.39778  0.53099  0.51331  Biso   1.000  N
  C422     1.0000 0.27989  0.52808  0.47561  Biso   1.000  C
  C423     1.0000 0.44592  0.22911  0.20891  Biso   1.000  C
  O63      1.0000 0.49511  0.19038  0.25439  Biso   1.000  O
  C424     1.0000 0.51271  0.16159  0.39113  Biso   1.000  C
  H332     1.0000 0.42452  0.14309  0.32338  Biso   1.000  H
  C425     1.0000 0.51482  0.33828  0.52681  Biso   1.000  C
  H333     1.0000 0.48402  0.43931  0.51019  Biso   1.000  H
  C426     1.0000 0.47250  0.27878  0.54672  Biso   1.000  C
  H334     1.0000 0.36417  0.27091  0.55809  Biso   1.000  H
  C427     1.0000 0.37300  0.59820  0.50047  Biso   1.000  C
  H335     1.0000 0.44190  0.51820  0.52728  Biso   1.000  H
  C428     1.0000 0.29982  0.59651  0.47549  Biso   1.000  C
  H336     1.0000 0.23519  0.51022  0.46218  Biso   1.000  H
  C429     1.0000 0.48122  0.26082  0.13792  Biso   1.000  C
  H337     1.0000 0.40761  0.19709  0.19141  Biso   1.000  H
  O64      1.0000 0.55271  0.22251  0.41281  Biso   1.000  O
  H338     1.0000 0.48782  0.14262  0.43779  Biso   1.000  H
  H339     1.0000 0.54468  0.12449  0.37068  Biso   1.000  H
  C430     1.0000 0.58748  0.33939  0.51261  Biso   1.000  C
  H340     1.0000 0.48919  0.23308  0.55791  Biso   1.000  H
  C431     1.0000 0.41252  0.66061  0.51261  Biso   1.000  C
  H341     1.0000 0.27160  0.63551  0.46200  Biso   1.000  H
  C432     1.0000 0.47028  0.33099  0.11930  Biso   1.000  C
  C433     1.0000 0.52211  0.21881  0.08908  Biso   1.000  C
  C434     1.0000 0.60692  0.21279  0.46589  Biso   1.000  C
  C435     1.0000 0.62653  0.27081  0.51220  Biso   1.000  C
  C436     1.0000 0.62700  0.40180  0.50047  Biso   1.000  C
  C437     1.0000 0.48518  0.66172  0.52681  Biso   1.000  C
  C438     1.0000 0.37347  0.72919  0.51220  Biso   1.000  C
  C439     1.0000 0.49982  0.35989  0.05078  Biso   1.000  C
  H342     1.0000 0.44301  0.35952  0.15282  Biso   1.000  H
  C440     1.0000 0.55218  0.24740  0.02221  Biso   1.000  C
  H343     1.0000 0.52941  0.17089  0.10139  Biso   1.000  H
  C441     1.0000 0.64560  0.14970  0.46990  Biso   1.000  C
  C442     1.0000 0.68682  0.26420  0.55968  Biso   1.000  C
  N27      1.0000 0.60222  0.46901  0.51331  Biso   1.000  N
  C443     1.0000 0.70018  0.40349  0.47549  Biso   1.000  C
  N28      1.0000 0.52978  0.60550  0.51903  Biso   1.000  N
  C444     1.0000 0.52750  0.72122  0.54672  Biso   1.000  C
  C445     1.0000 0.39308  0.78721  0.46589  Biso   1.000  C
  C446     1.0000 0.31318  0.73580  0.55968  Biso   1.000  C
  O65      1.0000 0.48460  0.42938  0.03818  Biso   1.000  O
  C447     1.0000 0.54151  0.31799  0.00147  Biso   1.000  C
  H344     1.0000 0.58050  0.21860  0.98981  Biso   1.000  H
  C448     1.0000 0.70452  0.14468  0.51838  Biso   1.000  C
  H345     1.0000 0.63149  0.11059  0.43961  Biso   1.000  H
  C449     1.0000 0.72560  0.20211  0.56227  Biso   1.000  C
  H346     1.0000 0.70119  0.30288  0.59061  Biso   1.000  H
  C450     1.0000 0.65908  0.51229  0.50012  Biso   1.000  C
  H347     1.0000 0.55810  0.48180  0.52728  Biso   1.000  H
  C451     1.0000 0.72011  0.47192  0.47561  Biso   1.000  C
  H348     1.0000 0.72840  0.36449  0.46200  Biso   1.000  H
  C452     1.0000 0.59878  0.62668  0.52669  Biso   1.000  C
  H349     1.0000 0.51598  0.56069  0.51019  Biso   1.000  H
  C453     1.0000 0.59662  0.70040  0.54678  Biso   1.000  C
  H350     1.0000 0.51081  0.76692  0.55791  Biso   1.000  H
  O66      1.0000 0.44729  0.77749  0.41281  Biso   1.000  O
  C454     1.0000 0.35440  0.85030  0.46990  Biso   1.000  C
  C455     1.0000 0.27440  0.79789  0.56227  Biso   1.000  C
  H351     1.0000 0.29881  0.69712  0.59061  Biso   1.000  H
  C456     1.0000 0.51281  0.46240  0.96960  Biso   1.000  C
  H352     1.0000 0.56190  0.33691  0.95558  Biso   1.000  H
  H353     1.0000 0.72988  0.10209  0.52121  Biso   1.000  H
  H354     1.0000 0.76629  0.19921  0.59391  Biso   1.000  H
  C457     1.0000 0.65881  0.58610  0.51131  Biso   1.000  C
  H355     1.0000 0.76481  0.48978  0.46218  Biso   1.000  H
  H356     1.0000 0.63583  0.72909  0.55809  Biso   1.000  H
  C458     1.0000 0.48729  0.83841  0.39113  Biso   1.000  C
  C459     1.0000 0.29548  0.85532  0.51838  Biso   1.000  C
  H357     1.0000 0.36851  0.88941  0.43961  Biso   1.000  H
  H358     1.0000 0.23371  0.80079  0.59391  Biso   1.000  H
  H359     1.0000 0.49638  0.43762  0.92170  Biso   1.000  H
  H360     1.0000 0.56513  0.46098  0.97078  Biso   1.000  H
  C460     1.0000 0.48719  0.53760  0.96960  Biso   1.000  C
  C461     1.0000 0.72639  0.62542  0.50218  Biso   1.000  C
  C462     1.0000 0.54029  0.81839  0.32838  Biso   1.000  C
  H361     1.0000 0.51218  0.85738  0.43779  Biso   1.000  H
  H362     1.0000 0.45532  0.87551  0.37068  Biso   1.000  H
  H363     1.0000 0.27012  0.89791  0.52121  Biso   1.000  H
  O67      1.0000 0.51540  0.57062  0.03818  Biso   1.000  O
  H364     1.0000 0.50362  0.56238  0.92170  Biso   1.000  H
  H365     1.0000 0.43487  0.53902  0.97078  Biso   1.000  H
  C463     1.0000 0.73067  0.68159  0.44851  Biso   1.000  C
  C464     1.0000 0.78742  0.60808  0.54501  Biso   1.000  C
  O68      1.0000 0.50489  0.80962  0.25439  Biso   1.000  O
  C465     1.0000 0.57971  0.74779  0.33869  Biso   1.000  C
  H366     1.0000 0.57548  0.85691  0.32338  Biso   1.000  H
  C466     1.0000 0.50018  0.64011  0.05078  Biso   1.000  C
  O69      1.0000 0.67461  0.68808  0.39778  Biso   1.000  O
  C467     1.0000 0.79038  0.72312  0.44297  Biso   1.000  C
  C468     1.0000 0.84872  0.64719  0.53688  Biso   1.000  C
  H367     1.0000 0.78658  0.56941  0.57971  Biso   1.000  H
  C469     1.0000 0.55408  0.77089  0.20891  Biso   1.000  C
  O70      1.0000 0.58251  0.71921  0.25993  Biso   1.000  O
  C470     1.0000 0.65252  0.75709  0.37351  Biso   1.000  C
  H368     1.0000 0.55160  0.71598  0.37269  Biso   1.000  H
  C471     1.0000 0.52972  0.66901  0.11930  Biso   1.000  C
  C472     1.0000 0.45849  0.68201  0.00147  Biso   1.000  C
  C473     1.0000 0.84988  0.70542  0.48727  Biso   1.000  C
  H369     1.0000 0.79102  0.76291  0.40980  Biso   1.000  H
  H370     1.0000 0.88951  0.63440  0.56492  Biso   1.000  H
  C474     1.0000 0.51878  0.73918  0.13792  Biso   1.000  C
  H371     1.0000 0.59239  0.80291  0.19141  Biso   1.000  H
  H372     1.0000 0.68539  0.77659  0.33369  Biso   1.000  H
  H373     1.0000 0.65089  0.78970  0.41911  Biso   1.000  H
  H374     1.0000 0.55699  0.64048  0.15282  Biso   1.000  H
  C475     1.0000 0.44782  0.75260  0.02221  Biso   1.000  C
  H375     1.0000 0.43810  0.66309  0.95558  Biso   1.000  H
  H376     1.0000 0.89099  0.73300  0.48350  Biso   1.000  H
  C476     1.0000 0.47789  0.78119  0.08908  Biso   1.000  C
  H377     1.0000 0.41950  0.78140  0.98981  Biso   1.000  H
  H378     1.0000 0.47059  0.82911  0.10139  Biso   1.000  H
  C477     1.0000 0.14721  0.15128  0.28691  Biso   1.000  C
  C478     1.0000 0.20539  0.15012  0.23730  Biso   1.000  C
  C479     1.0000 0.10811  0.21258  0.29498  Biso   1.000  C
  H379     1.0000 0.13443  0.11049  0.31489  Biso   1.000  H
  C480     1.0000 0.22309  0.20962  0.19300  Biso   1.000  C
  H380     1.0000 0.23303  0.10901  0.23347  Biso   1.000  H
  C481     1.0000 0.12539  0.27361  0.25221  Biso   1.000  C
  H381     1.0000 0.06938  0.21342  0.32968  Biso   1.000  H
  C482     1.0000 0.18161  0.26933  0.19848  Biso   1.000  C
  H382     1.0000 0.26288  0.20898  0.15977  Biso   1.000  H
  C483     1.0000 0.08608  0.34119  0.26128  Biso   1.000  C
  O71      1.0000 0.18811  0.32539  0.14781  Biso   1.000  O
  C484     1.0000 0.01231  0.34092  0.25009  Biso   1.000  C
  C485     1.0000 0.12671  0.40122  0.27672  Biso   1.000  C
  C486     1.0000 0.25712  0.34748  0.12348  Biso   1.000  C
  N29      1.0000 0.96898  0.39778  0.26329  Biso   1.000  N
  C487     1.0000 0.97189  0.27989  0.22558  Biso   1.000  C
  N30      1.0000 0.10552  0.47022  0.26900  Biso   1.000  N
  C488     1.0000 0.20042  0.40338  0.29681  Biso   1.000  C
  H383     1.0000 0.27662  0.31461  0.08372  Biso   1.000  H
  H384     1.0000 0.28972  0.34911  0.16908  Biso   1.000  H
  C489     1.0000 0.24782  0.42029  0.08872  Biso   1.000  C
  C490     1.0000 0.90182  0.37300  0.25050  Biso   1.000  C
  H385     1.0000 0.98182  0.44190  0.27731  Biso   1.000  H
  C491     1.0000 0.90351  0.29982  0.22552  Biso   1.000  C
  H386     1.0000 0.98980  0.23519  0.21221  Biso   1.000  H
  C492     1.0000 0.16169  0.51482  0.27678  Biso   1.000  C
  H387     1.0000 0.06071  0.48402  0.26022  Biso   1.000  H
  C493     1.0000 0.22119  0.47250  0.29669  Biso   1.000  C
  H388     1.0000 0.22911  0.36417  0.30812  Biso   1.000  H
  C494     1.0000 0.31841  0.45971  0.07841  Biso   1.000  C
  O72      1.0000 0.21918  0.41749  0.00990  Biso   1.000  O
  H389     1.0000 0.21601  0.44840  0.12272  Biso   1.000  H
  C495     1.0000 0.83942  0.41252  0.26258  Biso   1.000  C
  H390     1.0000 0.86452  0.27160  0.21197  Biso   1.000  H
  C496     1.0000 0.16058  0.58748  0.26258  Biso   1.000  C
  H391     1.0000 0.26690  0.48919  0.30788  Biso   1.000  H
  O73      1.0000 0.30959  0.49511  0.00442  Biso   1.000  O
  C497     1.0000 0.33839  0.51271  0.14110  Biso   1.000  C
  H392     1.0000 0.35688  0.42452  0.07341  Biso   1.000  H
  C498     1.0000 0.27091  0.44592  0.95888  Biso   1.000  C
  C499     1.0000 0.83831  0.48518  0.27678  Biso   1.000  C
  C500     1.0000 0.77078  0.37347  0.26222  Biso   1.000  C
  C501     1.0000 0.09818  0.62700  0.25050  Biso   1.000  C
  C502     1.0000 0.22922  0.62653  0.26222  Biso   1.000  C
  O74      1.0000 0.27752  0.55271  0.16278  Biso   1.000  O
  H393     1.0000 0.35741  0.48782  0.18782  Biso   1.000  H
  H394     1.0000 0.37548  0.54468  0.12071  Biso   1.000  H
  C503     1.0000 0.23921  0.48122  0.88789  Biso   1.000  C
  H395     1.0000 0.30288  0.40761  0.94138  Biso   1.000  H
  N31      1.0000 0.89448  0.52978  0.26900  Biso   1.000  N
  C504     1.0000 0.77881  0.52750  0.29669  Biso   1.000  C
  C505     1.0000 0.71281  0.39308  0.21592  Biso   1.000  C
  C506     1.0000 0.76417  0.31318  0.30971  Biso   1.000  C
  N32      1.0000 0.03102  0.60222  0.26329  Biso   1.000  N
  C507     1.0000 0.09649  0.70018  0.22552  Biso   1.000  C
  C508     1.0000 0.28719  0.60692  0.21592  Biso   1.000  C
  C509     1.0000 0.23583  0.68682  0.30971  Biso   1.000  C
  C510     1.0000 0.16898  0.47028  0.86927  Biso   1.000  C
  C511     1.0000 0.28122  0.52211  0.83911  Biso   1.000  C
  C512     1.0000 0.87329  0.59878  0.27672  Biso   1.000  C
  H396     1.0000 0.93929  0.51598  0.26022  Biso   1.000  H
  C513     1.0000 0.79958  0.59662  0.29681  Biso   1.000  C
  H397     1.0000 0.73310  0.51081  0.30788  Biso   1.000  H
  O75      1.0000 0.72248  0.44729  0.16278  Biso   1.000  O
  C514     1.0000 0.64972  0.35440  0.21992  Biso   1.000  C
  C515     1.0000 0.70209  0.27440  0.31230  Biso   1.000  C
  H398     1.0000 0.80291  0.29881  0.34058  Biso   1.000  H
  H399     1.0000 0.01818  0.55810  0.27731  Biso   1.000  H
  C516     1.0000 0.98769  0.65908  0.25009  Biso   1.000  C
  C517     1.0000 0.02811  0.72011  0.22558  Biso   1.000  C
  H400     1.0000 0.13548  0.72840  0.21197  Biso   1.000  H
  C518     1.0000 0.35028  0.64560  0.21992  Biso   1.000  C
  C519     1.0000 0.29791  0.72560  0.31230  Biso   1.000  C
  H401     1.0000 0.19709  0.70119  0.34058  Biso   1.000  H
  C520     1.0000 0.14008  0.49982  0.80081  Biso   1.000  C
  H402     1.0000 0.14050  0.44301  0.90279  Biso   1.000  H
  C521     1.0000 0.25258  0.55218  0.77218  Biso   1.000  C
  H403     1.0000 0.32909  0.52941  0.85142  Biso   1.000  H
  C522     1.0000 0.91392  0.65881  0.26128  Biso   1.000  C
  H404     1.0000 0.77089  0.63583  0.30812  Biso   1.000  H
  C523     1.0000 0.66161  0.48729  0.14110  Biso   1.000  C
  C524     1.0000 0.64470  0.29548  0.26841  Biso   1.000  C
  H405     1.0000 0.61062  0.36851  0.18958  Biso   1.000  H
  H406     1.0000 0.69918  0.23371  0.34388  Biso   1.000  H
  H407     1.0000 0.01020  0.76481  0.21221  Biso   1.000  H
  C525     1.0000 0.35530  0.70452  0.26841  Biso   1.000  C
  H408     1.0000 0.38938  0.63149  0.18958  Biso   1.000  H
  H409     1.0000 0.30082  0.76629  0.34388  Biso   1.000  H
  O76      1.0000 0.07059  0.48460  0.78821  Biso   1.000  O
  C526     1.0000 0.18198  0.54151  0.75150  Biso   1.000  C
  H410     1.0000 0.28137  0.58050  0.73978  Biso   1.000  H
  C527     1.0000 0.87461  0.72639  0.25221  Biso   1.000  C
  C528     1.0000 0.68159  0.54029  0.07841  Biso   1.000  C
  H411     1.0000 0.64259  0.51218  0.18782  Biso   1.000  H
  H412     1.0000 0.62452  0.45532  0.12071  Biso   1.000  H
  H413     1.0000 0.60211  0.27012  0.27118  Biso   1.000  H
  H414     1.0000 0.39789  0.72988  0.27118  Biso   1.000  H
  C529     1.0000 0.03762  0.51281  0.71957  Biso   1.000  C
  H415     1.0000 0.16312  0.56190  0.70561  Biso   1.000  H
  C530     1.0000 0.81839  0.73067  0.19848  Biso   1.000  C
  C531     1.0000 0.89189  0.78742  0.29498  Biso   1.000  C
  O77      1.0000 0.69041  0.50489  0.00442  Biso   1.000  O
  C532     1.0000 0.75218  0.57971  0.08872  Biso   1.000  C
  H416     1.0000 0.64312  0.57548  0.07341  Biso   1.000  H
  C533     1.0000 0.96238  0.48719  0.71957  Biso   1.000  C
  H417     1.0000 0.06240  0.49638  0.67167  Biso   1.000  H
  H418     1.0000 0.03900  0.56513  0.72081  Biso   1.000  H
  O78      1.0000 0.81189  0.67461  0.14781  Biso   1.000  O
  C534     1.0000 0.77691  0.79038  0.19300  Biso   1.000  C
  C535     1.0000 0.85279  0.84872  0.28691  Biso   1.000  C
  H419     1.0000 0.93062  0.78658  0.32968  Biso   1.000  H
  C536     1.0000 0.72909  0.55408  0.95888  Biso   1.000  C
  O79      1.0000 0.78082  0.58251  0.00990  Biso   1.000  O
  H420     1.0000 0.78399  0.55160  0.12272  Biso   1.000  H
  C537     1.0000 0.74288  0.65252  0.12348  Biso   1.000  C
  O80      1.0000 0.92941  0.51540  0.78821  Biso   1.000  O
  H421     1.0000 0.93760  0.50362  0.67167  Biso   1.000  H
  H422     1.0000 0.96100  0.43487  0.72081  Biso   1.000  H
  C538     1.0000 0.79461  0.84988  0.23730  Biso   1.000  C
  H423     1.0000 0.73712  0.79102  0.15977  Biso   1.000  H
  H424     1.0000 0.86557  0.88951  0.31489  Biso   1.000  H
  C539     1.0000 0.76079  0.51878  0.88789  Biso   1.000  C
  H425     1.0000 0.69712  0.59239  0.94138  Biso   1.000  H
  H426     1.0000 0.72338  0.68539  0.08372  Biso   1.000  H
  H427     1.0000 0.71028  0.65089  0.16908  Biso   1.000  H
  C540     1.0000 0.85992  0.50018  0.80081  Biso   1.000  C
  H428     1.0000 0.76697  0.89099  0.23347  Biso   1.000  H
  C541     1.0000 0.83102  0.52972  0.86927  Biso   1.000  C
  C542     1.0000 0.71878  0.47789  0.83911  Biso   1.000  C
  C543     1.0000 0.81802  0.45849  0.75150  Biso   1.000  C
  H429     1.0000 0.85950  0.55699  0.90279  Biso   1.000  H
  C544     1.0000 0.74742  0.44782  0.77218  Biso   1.000  C
  H430     1.0000 0.67091  0.47059  0.85142  Biso   1.000  H
  H431     1.0000 0.83688  0.43810  0.70561  Biso   1.000  H
  H432     1.0000 0.71863  0.41950  0.73978  Biso   1.000  H
  C545     1.0000 0.14721  0.15128  0.28691  Biso   1.000  C
  C546     1.0000 0.20539  0.15012  0.23730  Biso   1.000  C
  C547     1.0000 0.10811  0.21258  0.29498  Biso   1.000  C
  H433     1.0000 0.13443  0.11049  0.31489  Biso   1.000  H
  C548     1.0000 0.22309  0.20962  0.19300  Biso   1.000  C
  H434     1.0000 0.23303  0.10901  0.23347  Biso   1.000  H
  C549     1.0000 0.12539  0.27361  0.25221  Biso   1.000  C
  H435     1.0000 0.06938  0.21342  0.32968  Biso   1.000  H
  C550     1.0000 0.18161  0.26933  0.19848  Biso   1.000  C
  H436     1.0000 0.26288  0.20898  0.15977  Biso   1.000  H
  C551     1.0000 0.08608  0.34119  0.26128  Biso   1.000  C
  O81      1.0000 0.18811  0.32539  0.14781  Biso   1.000  O
  C552     1.0000 0.01231  0.34092  0.25009  Biso   1.000  C
  C553     1.0000 0.12671  0.40122  0.27672  Biso   1.000  C
  C554     1.0000 0.25712  0.34748  0.12348  Biso   1.000  C
  N33      1.0000 0.96898  0.39778  0.26329  Biso   1.000  N
  C555     1.0000 0.97189  0.27989  0.22558  Biso   1.000  C
  N34      1.0000 0.10552  0.47022  0.26900  Biso   1.000  N
  C556     1.0000 0.20042  0.40338  0.29681  Biso   1.000  C
  H437     1.0000 0.27662  0.31461  0.08372  Biso   1.000  H
  H438     1.0000 0.28972  0.34911  0.16908  Biso   1.000  H
  C557     1.0000 0.24782  0.42029  0.08872  Biso   1.000  C
  C558     1.0000 0.90182  0.37300  0.25050  Biso   1.000  C
  H439     1.0000 0.98182  0.44190  0.27731  Biso   1.000  H
  C559     1.0000 0.90351  0.29982  0.22552  Biso   1.000  C
  H440     1.0000 0.98980  0.23519  0.21221  Biso   1.000  H
  C560     1.0000 0.16169  0.51482  0.27678  Biso   1.000  C
  H441     1.0000 0.06071  0.48402  0.26022  Biso   1.000  H
  C561     1.0000 0.22119  0.47250  0.29669  Biso   1.000  C
  H442     1.0000 0.22911  0.36417  0.30812  Biso   1.000  H
  C562     1.0000 0.31841  0.45971  0.07841  Biso   1.000  C
  O82      1.0000 0.21918  0.41749  0.00990  Biso   1.000  O
  H443     1.0000 0.21601  0.44840  0.12272  Biso   1.000  H
  C563     1.0000 0.83942  0.41252  0.26258  Biso   1.000  C
  H444     1.0000 0.86452  0.27160  0.21197  Biso   1.000  H
  C564     1.0000 0.16058  0.58748  0.26258  Biso   1.000  C
  H445     1.0000 0.26690  0.48919  0.30788  Biso   1.000  H
  O83      1.0000 0.30959  0.49511  0.00442  Biso   1.000  O
  C565     1.0000 0.33839  0.51271  0.14110  Biso   1.000  C
  H446     1.0000 0.35688  0.42452  0.07341  Biso   1.000  H
  C566     1.0000 0.27091  0.44592  0.95888  Biso   1.000  C
  C567     1.0000 0.83831  0.48518  0.27678  Biso   1.000  C
  C568     1.0000 0.77078  0.37347  0.26222  Biso   1.000  C
  C569     1.0000 0.09818  0.62700  0.25050  Biso   1.000  C
  C570     1.0000 0.22922  0.62653  0.26222  Biso   1.000  C
  O84      1.0000 0.27752  0.55271  0.16278  Biso   1.000  O
  H447     1.0000 0.35741  0.48782  0.18782  Biso   1.000  H
  H448     1.0000 0.37548  0.54468  0.12071  Biso   1.000  H
  C571     1.0000 0.23921  0.48122  0.88789  Biso   1.000  C
  H449     1.0000 0.30288  0.40761  0.94138  Biso   1.000  H
  N35      1.0000 0.89448  0.52978  0.26900  Biso   1.000  N
  C572     1.0000 0.77881  0.52750  0.29669  Biso   1.000  C
  C573     1.0000 0.71281  0.39308  0.21592  Biso   1.000  C
  C574     1.0000 0.76417  0.31318  0.30971  Biso   1.000  C
  N36      1.0000 0.03102  0.60222  0.26329  Biso   1.000  N
  C575     1.0000 0.09649  0.70018  0.22552  Biso   1.000  C
  C576     1.0000 0.28719  0.60692  0.21592  Biso   1.000  C
  C577     1.0000 0.23583  0.68682  0.30971  Biso   1.000  C
  C578     1.0000 0.16898  0.47028  0.86927  Biso   1.000  C
  C579     1.0000 0.28122  0.52211  0.83911  Biso   1.000  C
  C580     1.0000 0.87329  0.59878  0.27672  Biso   1.000  C
  H450     1.0000 0.93929  0.51598  0.26022  Biso   1.000  H
  C581     1.0000 0.79958  0.59662  0.29681  Biso   1.000  C
  H451     1.0000 0.73310  0.51081  0.30788  Biso   1.000  H
  O85      1.0000 0.72248  0.44729  0.16278  Biso   1.000  O
  C582     1.0000 0.64972  0.35440  0.21992  Biso   1.000  C
  C583     1.0000 0.70209  0.27440  0.31230  Biso   1.000  C
  H452     1.0000 0.80291  0.29881  0.34058  Biso   1.000  H
  H453     1.0000 0.01818  0.55810  0.27731  Biso   1.000  H
  C584     1.0000 0.98769  0.65908  0.25009  Biso   1.000  C
  C585     1.0000 0.02811  0.72011  0.22558  Biso   1.000  C
  H454     1.0000 0.13548  0.72840  0.21197  Biso   1.000  H
  C586     1.0000 0.35028  0.64560  0.21992  Biso   1.000  C
  C587     1.0000 0.29791  0.72560  0.31230  Biso   1.000  C
  H455     1.0000 0.19709  0.70119  0.34058  Biso   1.000  H
  C588     1.0000 0.14008  0.49982  0.80081  Biso   1.000  C
  H456     1.0000 0.14050  0.44301  0.90279  Biso   1.000  H
  C589     1.0000 0.25258  0.55218  0.77218  Biso   1.000  C
  H457     1.0000 0.32909  0.52941  0.85142  Biso   1.000  H
  C590     1.0000 0.91392  0.65881  0.26128  Biso   1.000  C
  H458     1.0000 0.77089  0.63583  0.30812  Biso   1.000  H
  C591     1.0000 0.66161  0.48729  0.14110  Biso   1.000  C
  C592     1.0000 0.64470  0.29548  0.26841  Biso   1.000  C
  H459     1.0000 0.61062  0.36851  0.18958  Biso   1.000  H
  H460     1.0000 0.69918  0.23371  0.34388  Biso   1.000  H
  H461     1.0000 0.01020  0.76481  0.21221  Biso   1.000  H
  C593     1.0000 0.35530  0.70452  0.26841  Biso   1.000  C
  H462     1.0000 0.38938  0.63149  0.18958  Biso   1.000  H
  H463     1.0000 0.30082  0.76629  0.34388  Biso   1.000  H
  O86      1.0000 0.07059  0.48460  0.78821  Biso   1.000  O
  C594     1.0000 0.18198  0.54151  0.75150  Biso   1.000  C
  H464     1.0000 0.28137  0.58050  0.73978  Biso   1.000  H
  C595     1.0000 0.87461  0.72639  0.25221  Biso   1.000  C
  C596     1.0000 0.68159  0.54029  0.07841  Biso   1.000  C
  H465     1.0000 0.64259  0.51218  0.18782  Biso   1.000  H
  H466     1.0000 0.62452  0.45532  0.12071  Biso   1.000  H
  H467     1.0000 0.60211  0.27012  0.27118  Biso   1.000  H
  H468     1.0000 0.39789  0.72988  0.27118  Biso   1.000  H
  C597     1.0000 0.03762  0.51281  0.71957  Biso   1.000  C
  H469     1.0000 0.16312  0.56190  0.70561  Biso   1.000  H
  C598     1.0000 0.81839  0.73067  0.19848  Biso   1.000  C
  C599     1.0000 0.89189  0.78742  0.29498  Biso   1.000  C
  O87      1.0000 0.69041  0.50489  0.00442  Biso   1.000  O
  C600     1.0000 0.75218  0.57971  0.08872  Biso   1.000  C
  H470     1.0000 0.64312  0.57548  0.07341  Biso   1.000  H
  C601     1.0000 0.96238  0.48719  0.71957  Biso   1.000  C
  H471     1.0000 0.06240  0.49638  0.67167  Biso   1.000  H
  H472     1.0000 0.03900  0.56513  0.72081  Biso   1.000  H
  O88      1.0000 0.81189  0.67461  0.14781  Biso   1.000  O
  C602     1.0000 0.77691  0.79038  0.19300  Biso   1.000  C
  C603     1.0000 0.85279  0.84872  0.28691  Biso   1.000  C
  H473     1.0000 0.93062  0.78658  0.32968  Biso   1.000  H
  C604     1.0000 0.72909  0.55408  0.95888  Biso   1.000  C
  O89      1.0000 0.78082  0.58251  0.00990  Biso   1.000  O
  H474     1.0000 0.78399  0.55160  0.12272  Biso   1.000  H
  C605     1.0000 0.74288  0.65252  0.12348  Biso   1.000  C
  O90      1.0000 0.92941  0.51540  0.78821  Biso   1.000  O
  H475     1.0000 0.93760  0.50362  0.67167  Biso   1.000  H
  H476     1.0000 0.96100  0.43487  0.72081  Biso   1.000  H
  C606     1.0000 0.79461  0.84988  0.23730  Biso   1.000  C
  H477     1.0000 0.73712  0.79102  0.15977  Biso   1.000  H
  H478     1.0000 0.86557  0.88951  0.31489  Biso   1.000  H
  C607     1.0000 0.76079  0.51878  0.88789  Biso   1.000  C
  H479     1.0000 0.69712  0.59239  0.94138  Biso   1.000  H
  H480     1.0000 0.72338  0.68539  0.08372  Biso   1.000  H
  H481     1.0000 0.71028  0.65089  0.16908  Biso   1.000  H
  C608     1.0000 0.85992  0.50018  0.80081  Biso   1.000  C
  H482     1.0000 0.76697  0.89099  0.23347  Biso   1.000  H
  C609     1.0000 0.83102  0.52972  0.86927  Biso   1.000  C
  C610     1.0000 0.71878  0.47789  0.83911  Biso   1.000  C
  C611     1.0000 0.81802  0.45849  0.75150  Biso   1.000  C
  H483     1.0000 0.85950  0.55699  0.90279  Biso   1.000  H
  C612     1.0000 0.74742  0.44782  0.77218  Biso   1.000  C
  H484     1.0000 0.67091  0.47059  0.85142  Biso   1.000  H
  H485     1.0000 0.83688  0.43810  0.70561  Biso   1.000  H
  H486     1.0000 0.71863  0.41950  0.73978  Biso   1.000  H
