data_image0
_cell_length_a       28.363
_cell_length_b       28.363
_cell_length_c       21.862
_cell_angle_alpha    90
_cell_angle_beta     90
_cell_angle_gamma    90

_symmetry_space_group_name_H-M    "P 1"
_symmetry_int_tables_number       1

loop_
  _symmetry_equiv_pos_as_xyz
  'x, y, z'

loop_
  _atom_site_label
  _atom_site_occupancy
  _atom_site_fract_x
  _atom_site_fract_y
  _atom_site_fract_z
  _atom_site_thermal_displace_type
  _atom_site_B_iso_or_equiv
  _atom_site_type_symbol
  N1       1.0000 0.36646  0.37993  0.66545  Biso   1.000  N
  C1       1.0000 0.36576  0.33343  0.63924  Biso   1.000  C
  C2       1.0000 0.33586  0.40986  0.63668  Biso   1.000  C
  C3       1.0000 0.38367  0.38924  0.72692  Biso   1.000  C
  C4       1.0000 0.33283  0.33875  0.58316  Biso   1.000  C
  N2       1.0000 0.41011  0.31890  0.61275  Biso   1.000  N
  H1       1.0000 0.35349  0.30949  0.66879  Biso   1.000  H
  N3       1.0000 0.31851  0.38755  0.58618  Biso   1.000  N
  O1       1.0000 0.32553  0.44992  0.65392  Biso   1.000  O
  N4       1.0000 0.43391  0.39474  0.73040  Biso   1.000  N
  H2       1.0000 0.37411  0.36290  0.75387  Biso   1.000  H
  H3       1.0000 0.36851  0.41829  0.74248  Biso   1.000  H
  N5       1.0000 0.36301  0.32719  0.53257  Biso   1.000  N
  H4       1.0000 0.30519  0.31700  0.58567  Biso   1.000  H
  C5       1.0000 0.40694  0.31337  0.55150  Biso   1.000  C
  C6       1.0000 0.44770  0.29821  0.64903  Biso   1.000  C
  C7       1.0000 0.28051  0.40743  0.54972  Biso   1.000  C
  C8       1.0000 0.46649  0.35564  0.73539  Biso   1.000  C
  C9       1.0000 0.45496  0.43684  0.74398  Biso   1.000  C
  C10      1.0000 0.34496  0.31774  0.47159  Biso   1.000  C
  O2       1.0000 0.43860  0.29895  0.51784  Biso   1.000  O
  N6       1.0000 0.47774  0.33279  0.67775  Biso   1.000  N
  H5       1.0000 0.46719  0.27779  0.62240  Biso   1.000  H
  H6       1.0000 0.43359  0.27800  0.68109  Biso   1.000  H
  N7       1.0000 0.29546  0.42118  0.48911  Biso   1.000  N
  H7       1.0000 0.26760  0.43532  0.57108  Biso   1.000  H
  H8       1.0000 0.25491  0.38392  0.54611  Biso   1.000  H
  H9       1.0000 0.45619  0.33240  0.76708  Biso   1.000  H
  C11      1.0000 0.51366  0.37965  0.75290  Biso   1.000  C
  O3       1.0000 0.43472  0.47502  0.74828  Biso   1.000  O
  N8       1.0000 0.50157  0.42926  0.75387  Biso   1.000  N
  N9       1.0000 0.33917  0.35987  0.43532  Biso   1.000  N
  H10      1.0000 0.31411  0.30159  0.47507  Biso   1.000  H
  H11      1.0000 0.36689  0.29609  0.45028  Biso   1.000  H
  C12      1.0000 0.52459  0.33664  0.66357  Biso   1.000  C
  C13      1.0000 0.29697  0.38871  0.43797  Biso   1.000  C
  C14      1.0000 0.29859  0.46705  0.47187  Biso   1.000  C
  N10      1.0000 0.54518  0.36555  0.70456  Biso   1.000  N
  H12      1.0000 0.52519  0.36872  0.79380  Biso   1.000  H
  C15      1.0000 0.53041  0.46451  0.78465  Biso   1.000  C
  C16      1.0000 0.36593  0.36935  0.38560  Biso   1.000  C
  O4       1.0000 0.54402  0.31640  0.62117  Biso   1.000  O
  C17      1.0000 0.30279  0.42189  0.38203  Biso   1.000  C
  H13      1.0000 0.26760  0.36932  0.43509  Biso   1.000  H
  N11      1.0000 0.30519  0.46874  0.40929  Biso   1.000  N
  O5       1.0000 0.29588  0.50129  0.50544  Biso   1.000  O
  C18      1.0000 0.59585  0.37228  0.70794  Biso   1.000  C
  N12      1.0000 0.56852  0.48161  0.74783  Biso   1.000  N
  H14      1.0000 0.51010  0.49141  0.79650  Biso   1.000  H
  H15      1.0000 0.54342  0.45069  0.82257  Biso   1.000  H
  O6       1.0000 0.40112  0.34781  0.36991  Biso   1.000  O
  N13      1.0000 0.34665  0.40669  0.35477  Biso   1.000  N
  H16      1.0000 0.27582  0.41900  0.35280  Biso   1.000  H
  C19      1.0000 0.29768  0.51119  0.37522  Biso   1.000  C
  N14      1.0000 0.61069  0.41945  0.69404  Biso   1.000  N
  H17      1.0000 0.60660  0.36410  0.74970  Biso   1.000  H
  H18      1.0000 0.61129  0.35032  0.67908  Biso   1.000  H
  C20      1.0000 0.61245  0.45552  0.74078  Biso   1.000  C
  C21      1.0000 0.57445  0.52829  0.73415  Biso   1.000  C
  C22      1.0000 0.36019  0.41875  0.29284  Biso   1.000  C
  N15      1.0000 0.33956  0.52731  0.34292  Biso   1.000  N
  H19      1.0000 0.27212  0.50580  0.34521  Biso   1.000  H
  H20      1.0000 0.28710  0.53630  0.40358  Biso   1.000  H
  C23      1.0000 0.64193  0.42901  0.64779  Biso   1.000  C
  C24      1.0000 0.64700  0.49251  0.71549  Biso   1.000  C
  H21      1.0000 0.62359  0.44241  0.78067  Biso   1.000  H
  O7       1.0000 0.54419  0.55879  0.74065  Biso   1.000  O
  N16      1.0000 0.61883  0.53517  0.71187  Biso   1.000  N
  N17      1.0000 0.38117  0.46483  0.28808  Biso   1.000  N
  H22      1.0000 0.33202  0.41741  0.26631  Biso   1.000  H
  H23      1.0000 0.38289  0.39502  0.27770  Biso   1.000  H
  C25      1.0000 0.35300  0.50749  0.28451  Biso   1.000  C
  C26      1.0000 0.35807  0.57099  0.35216  Biso   1.000  C
  O8       1.0000 0.65166  0.40232  0.60562  Biso   1.000  O
  N18      1.0000 0.66044  0.47269  0.65703  Biso   1.000  N
  H24      1.0000 0.67489  0.49670  0.74298  Biso   1.000  H
  C27      1.0000 0.63981  0.58129  0.70712  Biso   1.000  C
  C28      1.0000 0.42555  0.47171  0.26580  Biso   1.000  C
  H25      1.0000 0.32511  0.50330  0.25698  Biso   1.000  H
  C29      1.0000 0.38755  0.54451  0.25922  Biso   1.000  C
  N19      1.0000 0.38935  0.58055  0.30596  Biso   1.000  N
  O9       1.0000 0.34834  0.59768  0.39438  Biso   1.000  O
  C30      1.0000 0.70232  0.48881  0.62474  Biso   1.000  C
  N20      1.0000 0.65335  0.59334  0.64518  Biso   1.000  N
  H26      1.0000 0.66802  0.58259  0.73369  Biso   1.000  H
  H27      1.0000 0.61711  0.60501  0.72230  Biso   1.000  H
  O10      1.0000 0.45581  0.44124  0.25935  Biso   1.000  O
  N21      1.0000 0.43148  0.51842  0.25217  Biso   1.000  N
  H28      1.0000 0.37641  0.55759  0.21928  Biso   1.000  H
  C31      1.0000 0.40415  0.62775  0.29201  Biso   1.000  C
  N22      1.0000 0.69481  0.53129  0.59071  Biso   1.000  N
  H29      1.0000 0.72792  0.49420  0.65479  Biso   1.000  H
  H30      1.0000 0.71290  0.46370  0.59638  Biso   1.000  H
  C32      1.0000 0.69721  0.57811  0.61797  Biso   1.000  C
  C33      1.0000 0.63407  0.63068  0.61440  Biso   1.000  C
  C34      1.0000 0.46959  0.53549  0.21531  Biso   1.000  C
  N23      1.0000 0.45482  0.63445  0.29540  Biso   1.000  N
  H31      1.0000 0.39340  0.63590  0.25030  Biso   1.000  H
  H32      1.0000 0.38871  0.64972  0.32088  Biso   1.000  H
  C35      1.0000 0.70144  0.53295  0.52813  Biso   1.000  C
  C36      1.0000 0.70306  0.61129  0.56203  Biso   1.000  C
  H33      1.0000 0.72422  0.58100  0.64720  Biso   1.000  H
  N24      1.0000 0.66083  0.64013  0.56468  Biso   1.000  N
  O11      1.0000 0.59888  0.65222  0.63004  Biso   1.000  O
  N25      1.0000 0.49843  0.57078  0.24613  Biso   1.000  N
  H34      1.0000 0.48990  0.50862  0.20350  Biso   1.000  H
  H35      1.0000 0.45662  0.54931  0.17739  Biso   1.000  H
  C37      1.0000 0.48637  0.62035  0.24705  Biso   1.000  C
  C38      1.0000 0.47541  0.66336  0.33638  Biso   1.000  C
  N26      1.0000 0.70458  0.57882  0.51084  Biso   1.000  N
  O12      1.0000 0.70416  0.49875  0.49451  Biso   1.000  O
  H36      1.0000 0.73240  0.63072  0.56491  Biso   1.000  H
  C39      1.0000 0.65504  0.68230  0.52841  Biso   1.000  C
  C40      1.0000 0.54508  0.56320  0.25602  Biso   1.000  C
  C41      1.0000 0.53351  0.64436  0.26457  Biso   1.000  C
  H37      1.0000 0.47481  0.63132  0.20620  Biso   1.000  H
  O13      1.0000 0.45598  0.68360  0.37879  Biso   1.000  O
  N27      1.0000 0.52226  0.66721  0.32225  Biso   1.000  N
  C42      1.0000 0.71949  0.59260  0.45028  Biso   1.000  C
  N28      1.0000 0.63703  0.67285  0.46743  Biso   1.000  N
  H38      1.0000 0.68589  0.69841  0.52488  Biso   1.000  H
  H39      1.0000 0.63311  0.70391  0.54968  Biso   1.000  H
  O14      1.0000 0.56528  0.52501  0.25167  Biso   1.000  O
  N29      1.0000 0.56609  0.60526  0.26955  Biso   1.000  N
  H40      1.0000 0.54381  0.66760  0.23292  Biso   1.000  H
  C43      1.0000 0.55230  0.70183  0.35093  Biso   1.000  C
  N30      1.0000 0.68149  0.61245  0.41378  Biso   1.000  N
  H41      1.0000 0.73240  0.56471  0.42887  Biso   1.000  H
  H42      1.0000 0.74509  0.61612  0.45389  Biso   1.000  H
  C44      1.0000 0.59306  0.68667  0.44845  Biso   1.000  C
  C45      1.0000 0.66721  0.66125  0.41684  Biso   1.000  C
  C46      1.0000 0.61633  0.61076  0.27308  Biso   1.000  C
  N31      1.0000 0.58992  0.68110  0.38720  Biso   1.000  N
  H43      1.0000 0.53281  0.72221  0.37760  Biso   1.000  H
  H44      1.0000 0.56641  0.72200  0.31891  Biso   1.000  H
  C47      1.0000 0.66414  0.59017  0.36332  Biso   1.000  C
  O15      1.0000 0.56140  0.70105  0.48216  Biso   1.000  O
  C48      1.0000 0.63428  0.66657  0.36076  Biso   1.000  C
  H45      1.0000 0.69481  0.68300  0.41428  Biso   1.000  H
  N32      1.0000 0.63354  0.62007  0.33455  Biso   1.000  N
  H46      1.0000 0.62592  0.63710  0.24609  Biso   1.000  H
  H47      1.0000 0.63149  0.58171  0.25748  Biso   1.000  H
  O16      1.0000 0.67447  0.55008  0.34603  Biso   1.000  O
  H48      1.0000 0.64651  0.69051  0.33121  Biso   1.000  H
  C49      1.0000 0.36132  0.54698  0.68795  Biso   1.000  C
  C50      1.0000 0.32810  0.55280  0.63201  Biso   1.000  C
  N33      1.0000 0.32881  0.54543  0.73914  Biso   1.000  N
  N34      1.0000 0.39012  0.58918  0.68530  Biso   1.000  N
  H49      1.0000 0.38071  0.51761  0.68507  Biso   1.000  H
  N35      1.0000 0.28128  0.55520  0.65927  Biso   1.000  N
  N36      1.0000 0.34333  0.59666  0.60479  Biso   1.000  N
  H50      1.0000 0.33099  0.52579  0.60278  Biso   1.000  H
  C51      1.0000 0.28294  0.54860  0.72185  Biso   1.000  C
  C52      1.0000 0.34259  0.53052  0.79970  Biso   1.000  C
  C53      1.0000 0.38067  0.61594  0.63558  Biso   1.000  C
  C54      1.0000 0.43229  0.59497  0.72157  Biso   1.000  C
  C55      1.0000 0.23880  0.54769  0.62524  Biso   1.000  C
  C56      1.0000 0.33128  0.61020  0.54286  Biso   1.000  C
  O17      1.0000 0.24874  0.54585  0.75547  Biso   1.000  O
  N37      1.0000 0.36248  0.56852  0.83620  Biso   1.000  N
  H51      1.0000 0.31471  0.51761  0.82111  Biso   1.000  H
  H52      1.0000 0.36611  0.50492  0.79608  Biso   1.000  H
  O18      1.0000 0.40221  0.65113  0.61993  Biso   1.000  O
  N38      1.0000 0.42284  0.61298  0.78255  Biso   1.000  N
  H53      1.0000 0.44840  0.56412  0.72509  Biso   1.000  H
  H54      1.0000 0.45390  0.61690  0.70030  Biso   1.000  H
  N39      1.0000 0.22268  0.58957  0.59295  Biso   1.000  N
  H55      1.0000 0.24419  0.52209  0.59519  Biso   1.000  H
  H56      1.0000 0.21369  0.53711  0.65360  Biso   1.000  H
  N40      1.0000 0.28516  0.63117  0.53810  Biso   1.000  N
  H57      1.0000 0.33262  0.58199  0.51628  Biso   1.000  H
  H58      1.0000 0.35500  0.63290  0.52767  Biso   1.000  H
  C57      1.0000 0.34016  0.58587  0.88665  Biso   1.000  C
  C58      1.0000 0.41124  0.58280  0.83314  Biso   1.000  C
  C59      1.0000 0.43666  0.65695  0.80153  Biso   1.000  C
  C60      1.0000 0.24250  0.60300  0.53449  Biso   1.000  C
  C61      1.0000 0.17904  0.60808  0.60219  Biso   1.000  C
  C62      1.0000 0.27832  0.67556  0.51583  Biso   1.000  C
  O19      1.0000 0.30011  0.57554  0.90394  Biso   1.000  O
  N41      1.0000 0.37006  0.61647  0.91542  Biso   1.000  N
  C63      1.0000 0.41656  0.61573  0.88921  Biso   1.000  C
  H59      1.0000 0.43299  0.55520  0.83570  Biso   1.000  H
  N42      1.0000 0.43109  0.66012  0.86278  Biso   1.000  N
  O20      1.0000 0.45105  0.68861  0.76782  Biso   1.000  O
  H60      1.0000 0.24669  0.57512  0.50700  Biso   1.000  H
  C64      1.0000 0.20551  0.63756  0.50919  Biso   1.000  C
  O21      1.0000 0.15231  0.59835  0.64436  Biso   1.000  O
  N43      1.0000 0.16945  0.63935  0.55594  Biso   1.000  N
  N44      1.0000 0.23160  0.68149  0.50215  Biso   1.000  N
  O22      1.0000 0.30878  0.70581  0.50933  Biso   1.000  O
  C65      1.0000 0.36079  0.63368  0.97690  Biso   1.000  C
  H61      1.0000 0.44050  0.60350  0.91876  Biso   1.000  H
  C66      1.0000 0.45182  0.69770  0.89905  Biso   1.000  C
  H62      1.0000 0.19240  0.62641  0.46931  Biso   1.000  H
  C67      1.0000 0.12227  0.65416  0.54204  Biso   1.000  C
  C68      1.0000 0.21450  0.71960  0.46533  Biso   1.000  C
  N45      1.0000 0.35529  0.68392  0.98042  Biso   1.000  N
  H63      1.0000 0.33170  0.61852  0.99250  Biso   1.000  H
  H64      1.0000 0.38709  0.62412  0.00389  Biso   1.000  H
  N46      1.0000 0.41720  0.72774  0.92773  Biso   1.000  N
  H65      1.0000 0.47220  0.71720  0.87238  Biso   1.000  H
  H66      1.0000 0.47199  0.68360  0.93107  Biso   1.000  H
  N47      1.0000 0.11557  0.70483  0.54542  Biso   1.000  N
  H67      1.0000 0.11409  0.64341  0.50027  Biso   1.000  H
  H68      1.0000 0.10031  0.63872  0.57090  Biso   1.000  H
  N48      1.0000 0.17925  0.74844  0.49611  Biso   1.000  N
  H69      1.0000 0.24141  0.73991  0.45348  Biso   1.000  H
  H70      1.0000 0.20072  0.70662  0.42741  Biso   1.000  H
  C69      1.0000 0.39435  0.71650  0.98541  Biso   1.000  C
  C70      1.0000 0.31319  0.70493  0.99396  Biso   1.000  C
  C71      1.0000 0.41336  0.77460  0.91359  Biso   1.000  C
  C72      1.0000 0.12964  0.73638  0.49707  Biso   1.000  C
  C73      1.0000 0.08663  0.72542  0.58641  Biso   1.000  C
  C74      1.0000 0.18683  0.79509  0.50599  Biso   1.000  C
  H71      1.0000 0.41762  0.70620  0.01711  Biso   1.000  H
  C75      1.0000 0.37038  0.76364  0.00293  Biso   1.000  C
  O23      1.0000 0.27501  0.68473  0.99831  Biso   1.000  O
  N49      1.0000 0.32077  0.75158  0.00389  Biso   1.000  N
  N50      1.0000 0.38444  0.79519  0.95458  Biso   1.000  N
  O24      1.0000 0.43359  0.79403  0.87119  Biso   1.000  O
  C76      1.0000 0.10563  0.78352  0.51459  Biso   1.000  C
  H72      1.0000 0.11871  0.72482  0.45618  Biso   1.000  H
  O25      1.0000 0.06639  0.70599  0.62881  Biso   1.000  O
  N51      1.0000 0.08278  0.77227  0.57223  Biso   1.000  N
  O26      1.0000 0.22501  0.81529  0.50169  Biso   1.000  O
  N52      1.0000 0.14473  0.81610  0.51958  Biso   1.000  N
  H73      1.0000 0.38131  0.77520  0.04382  Biso   1.000  H
  C77      1.0000 0.28548  0.78042  0.03467  Biso   1.000  C
  C78      1.0000 0.37775  0.84586  0.95796  Biso   1.000  C
  H74      1.0000 0.08240  0.79382  0.48289  Biso   1.000  H
  C79      1.0000 0.04820  0.80231  0.60095  Biso   1.000  C
  C80      1.0000 0.13923  0.86634  0.52305  Biso   1.000  C
  N53      1.0000 0.26841  0.81853  0.99780  Biso   1.000  N
  H75      1.0000 0.25861  0.76011  0.04652  Biso   1.000  H
  H76      1.0000 0.29930  0.79339  0.07259  Biso   1.000  H
  N54      1.0000 0.33054  0.86066  0.94401  Biso   1.000  N
  H77      1.0000 0.38589  0.85661  0.99968  Biso   1.000  H
  H78      1.0000 0.39971  0.86130  0.92910  Biso   1.000  H
  N55      1.0000 0.06893  0.83990  0.63722  Biso   1.000  N
  H79      1.0000 0.02778  0.78282  0.62757  Biso   1.000  H
  H80      1.0000 0.02799  0.81642  0.56889  Biso   1.000  H
  N56      1.0000 0.12996  0.88355  0.58453  Biso   1.000  N
  H81      1.0000 0.11289  0.87589  0.49611  Biso   1.000  H
  H82      1.0000 0.16832  0.88150  0.50750  Biso   1.000  H
  C81      1.0000 0.29450  0.86246  0.99076  Biso   1.000  C
  C82      1.0000 0.22170  0.82445  0.98417  Biso   1.000  C
  C83      1.0000 0.32098  0.89194  0.89781  Biso   1.000  C
  C84      1.0000 0.08342  0.88429  0.61074  Biso   1.000  C
  C85      1.0000 0.06336  0.84307  0.69847  Biso   1.000  C
  C86      1.0000 0.15986  0.91415  0.61330  Biso   1.000  C
  C87      1.0000 0.25752  0.89701  0.96547  Biso   1.000  C
  H83      1.0000 0.30762  0.87360  0.03069  Biso   1.000  H
  O27      1.0000 0.19124  0.79420  0.99062  Biso   1.000  O
  N57      1.0000 0.21482  0.86884  0.96190  Biso   1.000  N
  O28      1.0000 0.34767  0.90167  0.85559  Biso   1.000  O
  N58      1.0000 0.27730  0.91045  0.90705  Biso   1.000  N
  H84      1.0000 0.05951  0.89652  0.58119  Biso   1.000  H
  C88      1.0000 0.08878  0.91722  0.66682  Biso   1.000  C
  O29      1.0000 0.04894  0.81141  0.73214  Biso   1.000  O
  N59      1.0000 0.07718  0.88704  0.71741  Biso   1.000  N
  O30      1.0000 0.19991  0.92448  0.59606  Biso   1.000  O
  N60      1.0000 0.13754  0.93150  0.66380  Biso   1.000  N
  H85      1.0000 0.25329  0.92490  0.99300  Biso   1.000  H
  C89      1.0000 0.16874  0.88982  0.95714  Biso   1.000  C
  C90      1.0000 0.26119  0.95233  0.87476  Biso   1.000  C
  H86      1.0000 0.06699  0.94482  0.66430  Biso   1.000  H
  C91      1.0000 0.06773  0.90505  0.77838  Biso   1.000  C
  C92      1.0000 0.15742  0.96950  0.70026  Biso   1.000  C
  N61      1.0000 0.15668  0.90336  0.89521  Biso   1.000  N
  H87      1.0000 0.16740  0.91803  0.98367  Biso   1.000  H
  H88      1.0000 0.14501  0.86712  0.97228  Biso   1.000  H
  N62      1.0000 0.21874  0.94482  0.84068  Biso   1.000  N
  H89      1.0000 0.25579  0.97789  0.90477  Biso   1.000  H
  H90      1.0000 0.28629  0.96291  0.84640  Biso   1.000  H
  N63      1.0000 0.10986  0.91083  0.81466  Biso   1.000  N
  H91      1.0000 0.05162  0.93590  0.77491  Biso   1.000  H
  H92      1.0000 0.04612  0.88312  0.79970  Biso   1.000  H
  N64      1.0000 0.17117  0.95455  0.76086  Biso   1.000  N
  H93      1.0000 0.18531  0.98241  0.67889  Biso   1.000  H
  H94      1.0000 0.13391  0.99510  0.70387  Biso   1.000  H
  C93      1.0000 0.11935  0.88407  0.86438  Biso   1.000  C
  C94      1.0000 0.17188  0.94722  0.86794  Biso   1.000  C
  C95      1.0000 0.21708  0.95142  0.77811  Biso   1.000  C
  C96      1.0000 0.13870  0.95304  0.81200  Biso   1.000  C
  O31      1.0000 0.09780  0.84889  0.88007  Biso   1.000  O
  H95      1.0000 0.16899  0.97423  0.89717  Biso   1.000  H
  O32      1.0000 0.25128  0.95417  0.74453  Biso   1.000  O
  H96      1.0000 0.11931  0.98241  0.81488  Biso   1.000  H
  O33      1.0000 0.22501  0.31531  0.49831  Biso   1.000  O
  C97      1.0000 0.18683  0.29507  0.49396  Biso   1.000  C
  N65      1.0000 0.14473  0.31608  0.48042  Biso   1.000  N
  N66      1.0000 0.17925  0.24842  0.50389  Biso   1.000  N
  C98      1.0000 0.13923  0.36636  0.47690  Biso   1.000  C
  C99      1.0000 0.10563  0.28350  0.48541  Biso   1.000  C
  C100     1.0000 0.12964  0.23636  0.50293  Biso   1.000  C
  C101     1.0000 0.21450  0.21958  0.53467  Biso   1.000  C
  N67      1.0000 0.12996  0.38353  0.41547  Biso   1.000  N
  H97      1.0000 0.11289  0.37591  0.50389  Biso   1.000  H
  H98      1.0000 0.16832  0.38152  0.49250  Biso   1.000  H
  N68      1.0000 0.08278  0.27226  0.42777  Biso   1.000  N
  H99      1.0000 0.08240  0.29380  0.51711  Biso   1.000  H
  N69      1.0000 0.11557  0.20481  0.45458  Biso   1.000  N
  H100     1.0000 0.11871  0.22480  0.54377  Biso   1.000  H
  N70      1.0000 0.23160  0.18150  0.49785  Biso   1.000  N
  H101     1.0000 0.24141  0.23989  0.54647  Biso   1.000  H
  H102     1.0000 0.20072  0.20661  0.57259  Biso   1.000  H
  C102     1.0000 0.15986  0.41413  0.38665  Biso   1.000  C
  C103     1.0000 0.08342  0.38427  0.38921  Biso   1.000  C
  C104     1.0000 0.04820  0.30230  0.39905  Biso   1.000  C
  C105     1.0000 0.08663  0.22543  0.41359  Biso   1.000  C
  C106     1.0000 0.12227  0.15414  0.45796  Biso   1.000  C
  C107     1.0000 0.20551  0.13754  0.49076  Biso   1.000  C
  C108     1.0000 0.27832  0.17555  0.48417  Biso   1.000  C
  N71      1.0000 0.13754  0.43148  0.33620  Biso   1.000  N
  O34      1.0000 0.19991  0.42446  0.40394  Biso   1.000  O
  C109     1.0000 0.08878  0.41720  0.33314  Biso   1.000  C
  N72      1.0000 0.06893  0.33991  0.36278  Biso   1.000  N
  H103     1.0000 0.05951  0.39650  0.41881  Biso   1.000  H
  H104     1.0000 0.02778  0.28280  0.37238  Biso   1.000  H
  H105     1.0000 0.02799  0.31640  0.43111  Biso   1.000  H
  O35      1.0000 0.06639  0.20601  0.37119  Biso   1.000  O
  N73      1.0000 0.16945  0.13934  0.44401  Biso   1.000  N
  H106     1.0000 0.11409  0.14339  0.49968  Biso   1.000  H
  H107     1.0000 0.10031  0.13870  0.42910  Biso   1.000  H
  C110     1.0000 0.24250  0.10299  0.46547  Biso   1.000  C
  H108     1.0000 0.19240  0.12640  0.53069  Biso   1.000  H
  N74      1.0000 0.28516  0.13116  0.46190  Biso   1.000  N
  O36      1.0000 0.30878  0.20580  0.49067  Biso   1.000  O
  C111     1.0000 0.15742  0.46948  0.29970  Biso   1.000  C
  N75      1.0000 0.07718  0.38702  0.28255  Biso   1.000  N
  H109     1.0000 0.06699  0.44480  0.33570  Biso   1.000  H
  C112     1.0000 0.06336  0.34305  0.30153  Biso   1.000  C
  C113     1.0000 0.17904  0.10806  0.39781  Biso   1.000  C
  N76      1.0000 0.22268  0.08959  0.40705  Biso   1.000  N
  H110     1.0000 0.24669  0.07510  0.49300  Biso   1.000  H
  C114     1.0000 0.33128  0.11021  0.45714  Biso   1.000  C
  N77      1.0000 0.17117  0.45457  0.23914  Biso   1.000  N
  H111     1.0000 0.18531  0.48239  0.32111  Biso   1.000  H
  H112     1.0000 0.13391  0.49512  0.29608  Biso   1.000  H
  C115     1.0000 0.06773  0.40503  0.22162  Biso   1.000  C
  O37      1.0000 0.04894  0.31139  0.26786  Biso   1.000  O
  O38      1.0000 0.15231  0.09837  0.35564  Biso   1.000  O
  C116     1.0000 0.23880  0.04767  0.37476  Biso   1.000  C
  N78      1.0000 0.34333  0.09664  0.39521  Biso   1.000  N
  H113     1.0000 0.33262  0.08201  0.48367  Biso   1.000  H
  H114     1.0000 0.35500  0.13288  0.47228  Biso   1.000  H
  C117     1.0000 0.21708  0.45143  0.22189  Biso   1.000  C
  C118     1.0000 0.13870  0.45306  0.18800  Biso   1.000  C
  N79      1.0000 0.10986  0.41082  0.18530  Biso   1.000  N
  H115     1.0000 0.05162  0.43592  0.22509  Biso   1.000  H
  H116     1.0000 0.04612  0.38310  0.20030  Biso   1.000  H
  N80      1.0000 0.28128  0.05518  0.34068  Biso   1.000  N
  H117     1.0000 0.24419  0.02211  0.40481  Biso   1.000  H
  H118     1.0000 0.21369  0.03709  0.34640  Biso   1.000  H
  C119     1.0000 0.38067  0.11593  0.36442  Biso   1.000  C
  C120     1.0000 0.32810  0.05278  0.36794  Biso   1.000  C
  N81      1.0000 0.21874  0.44484  0.15932  Biso   1.000  N
  O39      1.0000 0.25128  0.45415  0.25547  Biso   1.000  O
  C121     1.0000 0.17188  0.44720  0.13201  Biso   1.000  C
  H119     1.0000 0.11931  0.48239  0.18512  Biso   1.000  H
  C122     1.0000 0.11935  0.38406  0.13558  Biso   1.000  C
  C123     1.0000 0.28294  0.04858  0.27811  Biso   1.000  C
  N82      1.0000 0.39012  0.08917  0.31466  Biso   1.000  N
  O40      1.0000 0.40221  0.15115  0.38007  Biso   1.000  O
  C124     1.0000 0.36132  0.04696  0.31200  Biso   1.000  C
  H120     1.0000 0.33099  0.02581  0.39717  Biso   1.000  H
  C125     1.0000 0.26119  0.45231  0.12524  Biso   1.000  C
  N83      1.0000 0.15668  0.40334  0.10479  Biso   1.000  N
  H121     1.0000 0.16899  0.47421  0.10278  Biso   1.000  H
  O41      1.0000 0.09780  0.34887  0.11993  Biso   1.000  O
  N84      1.0000 0.32881  0.04545  0.26086  Biso   1.000  N
  O42      1.0000 0.24874  0.04587  0.24453  Biso   1.000  O
  C126     1.0000 0.43229  0.09498  0.27838  Biso   1.000  C
  H122     1.0000 0.38071  0.01759  0.31488  Biso   1.000  H
  N85      1.0000 0.27730  0.41043  0.09295  Biso   1.000  N
  H123     1.0000 0.25579  0.47791  0.09519  Biso   1.000  H
  H124     1.0000 0.28629  0.46289  0.15360  Biso   1.000  H
  C127     1.0000 0.16874  0.38980  0.04286  Biso   1.000  C
  C128     1.0000 0.34259  0.03050  0.20030  Biso   1.000  C
  N86      1.0000 0.42284  0.11300  0.21741  Biso   1.000  N
  H125     1.0000 0.44840  0.06410  0.27491  Biso   1.000  H
  H126     1.0000 0.45390  0.11691  0.29970  Biso   1.000  H
  C129     1.0000 0.32098  0.39192  0.10219  Biso   1.000  C
  C130     1.0000 0.25752  0.39703  0.03449  Biso   1.000  C
  N87      1.0000 0.21482  0.36886  0.03810  Biso   1.000  N
  H127     1.0000 0.16740  0.41801  0.01628  Biso   1.000  H
  H128     1.0000 0.14501  0.36710  0.02772  Biso   1.000  H
  N88      1.0000 0.36248  0.06850  0.16380  Biso   1.000  N
  H129     1.0000 0.31471  0.01759  0.17889  Biso   1.000  H
  H130     1.0000 0.36611  0.00490  0.20392  Biso   1.000  H
  C131     1.0000 0.43666  0.15697  0.19847  Biso   1.000  C
  C132     1.0000 0.41124  0.08282  0.16682  Biso   1.000  C
  O43      1.0000 0.34767  0.40165  0.14436  Biso   1.000  O
  N89      1.0000 0.33054  0.36068  0.05599  Biso   1.000  N
  C133     1.0000 0.29450  0.36248  0.00924  Biso   1.000  C
  H131     1.0000 0.25329  0.42492  0.00700  Biso   1.000  H
  C134     1.0000 0.22170  0.32444  0.01583  Biso   1.000  C
  C135     1.0000 0.34016  0.08589  0.11330  Biso   1.000  C
  N90      1.0000 0.43109  0.16010  0.13722  Biso   1.000  N
  O44      1.0000 0.45105  0.18859  0.23214  Biso   1.000  O
  C136     1.0000 0.41656  0.11575  0.11079  Biso   1.000  C
  H132     1.0000 0.43299  0.05521  0.16430  Biso   1.000  H
  C137     1.0000 0.37775  0.34584  0.04204  Biso   1.000  C
  N91      1.0000 0.26841  0.31851  0.00215  Biso   1.000  N
  H133     1.0000 0.30762  0.37362  0.96926  Biso   1.000  H
  O45      1.0000 0.19124  0.29419  0.00933  Biso   1.000  O
  N92      1.0000 0.37006  0.11645  0.08453  Biso   1.000  N
  O46      1.0000 0.30011  0.07556  0.09606  Biso   1.000  O
  C138     1.0000 0.45182  0.19769  0.10095  Biso   1.000  C
  H134     1.0000 0.44050  0.10352  0.08119  Biso   1.000  H
  N93      1.0000 0.38444  0.29521  0.04542  Biso   1.000  N
  H135     1.0000 0.38589  0.35659  0.00032  Biso   1.000  H
  H136     1.0000 0.39971  0.36132  0.07090  Biso   1.000  H
  C139     1.0000 0.28548  0.28040  0.96528  Biso   1.000  C
  C140     1.0000 0.36079  0.13366  0.02310  Biso   1.000  C
  N94      1.0000 0.41720  0.22773  0.07223  Biso   1.000  N
  H137     1.0000 0.47220  0.21722  0.12762  Biso   1.000  H
  H138     1.0000 0.47199  0.18362  0.06889  Biso   1.000  H
  C141     1.0000 0.41336  0.27458  0.08641  Biso   1.000  C
  C142     1.0000 0.37038  0.26365  0.99707  Biso   1.000  C
  N95      1.0000 0.32077  0.25160  0.99611  Biso   1.000  N
  H139     1.0000 0.25861  0.26009  0.95348  Biso   1.000  H
  H140     1.0000 0.29930  0.29341  0.92736  Biso   1.000  H
  N96      1.0000 0.35529  0.18394  0.01958  Biso   1.000  N
  H141     1.0000 0.33170  0.11850  0.00750  Biso   1.000  H
  H142     1.0000 0.38709  0.12411  0.99607  Biso   1.000  H
  C143     1.0000 0.39435  0.21648  0.01459  Biso   1.000  C
  O47      1.0000 0.43359  0.29401  0.12881  Biso   1.000  O
  H143     1.0000 0.38131  0.27522  0.95618  Biso   1.000  H
  C144     1.0000 0.31319  0.20495  0.00604  Biso   1.000  C
  H144     1.0000 0.41762  0.20622  0.98289  Biso   1.000  H
  O48      1.0000 0.27501  0.18471  0.00169  Biso   1.000  O
  O49      1.0000 0.45598  0.18362  0.62117  Biso   1.000  O
  C145     1.0000 0.47541  0.16335  0.66357  Biso   1.000  C
  N97      1.0000 0.45482  0.13444  0.70456  Biso   1.000  N
  N98      1.0000 0.52226  0.16719  0.67775  Biso   1.000  N
  C146     1.0000 0.40415  0.12774  0.70794  Biso   1.000  C
  C147     1.0000 0.48637  0.12037  0.75290  Biso   1.000  C
  C148     1.0000 0.53351  0.14438  0.73539  Biso   1.000  C
  C149     1.0000 0.55230  0.20181  0.64903  Biso   1.000  C
  N99      1.0000 0.38935  0.08053  0.69404  Biso   1.000  N
  H145     1.0000 0.39340  0.13592  0.74970  Biso   1.000  H
  H146     1.0000 0.38871  0.14970  0.67908  Biso   1.000  H
  N100     1.0000 0.49843  0.07076  0.75387  Biso   1.000  N
  H147     1.0000 0.47481  0.13130  0.79380  Biso   1.000  H
  N101     1.0000 0.56609  0.10528  0.73040  Biso   1.000  N
  H148     1.0000 0.54381  0.16761  0.76708  Biso   1.000  H
  N102     1.0000 0.58992  0.18108  0.61275  Biso   1.000  N
  H149     1.0000 0.53281  0.22219  0.62240  Biso   1.000  H
  H150     1.0000 0.56641  0.22201  0.68109  Biso   1.000  H
  C150     1.0000 0.35807  0.07097  0.64779  Biso   1.000  C
  C151     1.0000 0.38755  0.04449  0.74078  Biso   1.000  C
  C152     1.0000 0.46959  0.03547  0.78465  Biso   1.000  C
  C153     1.0000 0.54508  0.06318  0.74398  Biso   1.000  C
  C154     1.0000 0.61633  0.11078  0.72692  Biso   1.000  C
  C155     1.0000 0.63428  0.16656  0.63924  Biso   1.000  C
  C156     1.0000 0.59306  0.18665  0.55150  Biso   1.000  C
  N103     1.0000 0.33956  0.02732  0.65703  Biso   1.000  N
  O50      1.0000 0.34834  0.09770  0.60562  Biso   1.000  O
  C157     1.0000 0.35300  0.00751  0.71549  Biso   1.000  C
  N104     1.0000 0.43148  0.01840  0.74783  Biso   1.000  N
  H151     1.0000 0.37641  0.05761  0.78067  Biso   1.000  H
  H152     1.0000 0.48990  0.00860  0.79650  Biso   1.000  H
  H153     1.0000 0.45662  0.04929  0.82257  Biso   1.000  H
  O51      1.0000 0.56528  0.02500  0.74828  Biso   1.000  O
  N105     1.0000 0.63354  0.12005  0.66545  Biso   1.000  N
  H154     1.0000 0.62592  0.13712  0.75387  Biso   1.000  H
  H155     1.0000 0.63149  0.08169  0.74248  Biso   1.000  H
  H156     1.0000 0.64651  0.19049  0.66879  Biso   1.000  H
  C158     1.0000 0.66721  0.16123  0.58316  Biso   1.000  C
  O52      1.0000 0.56140  0.20104  0.51784  Biso   1.000  O
  N106     1.0000 0.63703  0.17283  0.53257  Biso   1.000  N
  C159     1.0000 0.29768  0.01118  0.62474  Biso   1.000  C
  H157     1.0000 0.32511  0.00331  0.74298  Biso   1.000  H
  N107     1.0000 0.38117  0.96485  0.71187  Biso   1.000  N
  C160     1.0000 0.42555  0.97172  0.73415  Biso   1.000  C
  C161     1.0000 0.66414  0.09015  0.63668  Biso   1.000  C
  N108     1.0000 0.68149  0.11247  0.58618  Biso   1.000  N
  H158     1.0000 0.69481  0.18298  0.58567  Biso   1.000  H
  C162     1.0000 0.65504  0.18228  0.47159  Biso   1.000  C
  N109     1.0000 0.30519  0.96873  0.59071  Biso   1.000  N
  H159     1.0000 0.27212  0.00582  0.65479  Biso   1.000  H
  H160     1.0000 0.28710  0.03631  0.59638  Biso   1.000  H
  C163     1.0000 0.36019  0.91873  0.70712  Biso   1.000  C
  O53      1.0000 0.45581  0.94123  0.74065  Biso   1.000  O
  O54      1.0000 0.67447  0.05010  0.65392  Biso   1.000  O
  C164     1.0000 0.71949  0.09259  0.54972  Biso   1.000  C
  N110     1.0000 0.66083  0.14015  0.43532  Biso   1.000  N
  H161     1.0000 0.68589  0.19839  0.47507  Biso   1.000  H
  H162     1.0000 0.63311  0.20389  0.45028  Biso   1.000  H
  C165     1.0000 0.29859  0.96707  0.52813  Biso   1.000  C
  C166     1.0000 0.30279  0.92191  0.61797  Biso   1.000  C
  N111     1.0000 0.34665  0.90667  0.64518  Biso   1.000  N
  H163     1.0000 0.33202  0.91739  0.73369  Biso   1.000  H
  H164     1.0000 0.38289  0.89500  0.72230  Biso   1.000  H
  N112     1.0000 0.70458  0.07884  0.48911  Biso   1.000  N
  H165     1.0000 0.73240  0.06470  0.57108  Biso   1.000  H
  H166     1.0000 0.74509  0.11610  0.54611  Biso   1.000  H
  C167     1.0000 0.63407  0.13066  0.38560  Biso   1.000  C
  C168     1.0000 0.70306  0.11131  0.43797  Biso   1.000  C
  O55      1.0000 0.29588  0.00127  0.49451  Biso   1.000  O
  N113     1.0000 0.29546  0.92120  0.51084  Biso   1.000  N
  C169     1.0000 0.29697  0.88869  0.56203  Biso   1.000  C
  H167     1.0000 0.27582  0.91901  0.64720  Biso   1.000  H
  C170     1.0000 0.36593  0.86934  0.61440  Biso   1.000  C
  C171     1.0000 0.70144  0.03293  0.47187  Biso   1.000  C
  N114     1.0000 0.65335  0.09333  0.35477  Biso   1.000  N
  O56      1.0000 0.59888  0.15221  0.36991  Biso   1.000  O
  C172     1.0000 0.69721  0.07809  0.38203  Biso   1.000  C
  H168     1.0000 0.73240  0.13070  0.43509  Biso   1.000  H
  C173     1.0000 0.28051  0.90741  0.45028  Biso   1.000  C
  N115     1.0000 0.33917  0.85989  0.56468  Biso   1.000  N
  H169     1.0000 0.26760  0.86930  0.56491  Biso   1.000  H
  O57      1.0000 0.40112  0.84779  0.63004  Biso   1.000  O
  N116     1.0000 0.69481  0.03127  0.40929  Biso   1.000  N
  O58      1.0000 0.70416  0.99873  0.50544  Biso   1.000  O
  C174     1.0000 0.63981  0.08127  0.29284  Biso   1.000  C
  H170     1.0000 0.72422  0.08099  0.35280  Biso   1.000  H
  N117     1.0000 0.31851  0.88756  0.41378  Biso   1.000  N
  H171     1.0000 0.26760  0.93530  0.42887  Biso   1.000  H
  H172     1.0000 0.25491  0.88390  0.45389  Biso   1.000  H
  C175     1.0000 0.34496  0.81772  0.52841  Biso   1.000  C
  C176     1.0000 0.70232  0.98882  0.37522  Biso   1.000  C
  N118     1.0000 0.61883  0.03519  0.28808  Biso   1.000  N
  H173     1.0000 0.66802  0.08261  0.26631  Biso   1.000  H
  H174     1.0000 0.61711  0.10500  0.27770  Biso   1.000  H
  C177     1.0000 0.33586  0.90985  0.36332  Biso   1.000  C
  C178     1.0000 0.33283  0.83877  0.41684  Biso   1.000  C
  N119     1.0000 0.36301  0.82717  0.46743  Biso   1.000  N
  H175     1.0000 0.31411  0.80161  0.52488  Biso   1.000  H
  H176     1.0000 0.36689  0.79611  0.54968  Biso   1.000  H
  N120     1.0000 0.66044  0.97271  0.34292  Biso   1.000  N
  H177     1.0000 0.72792  0.99422  0.34521  Biso   1.000  H
  H178     1.0000 0.71290  0.96372  0.40358  Biso   1.000  H
  C179     1.0000 0.57445  0.02831  0.26580  Biso   1.000  C
  C180     1.0000 0.64700  0.99253  0.28451  Biso   1.000  C
  O59      1.0000 0.32553  0.94993  0.34603  Biso   1.000  O
  N121     1.0000 0.36646  0.87995  0.33455  Biso   1.000  N
  C181     1.0000 0.36576  0.83344  0.36076  Biso   1.000  C
  H179     1.0000 0.30519  0.81702  0.41428  Biso   1.000  H
  C182     1.0000 0.40694  0.81335  0.44845  Biso   1.000  C
  C183     1.0000 0.64193  0.92903  0.35216  Biso   1.000  C
  N122     1.0000 0.56852  0.98160  0.25217  Biso   1.000  N
  O60      1.0000 0.54419  0.05877  0.25935  Biso   1.000  O
  C184     1.0000 0.61245  0.95551  0.25922  Biso   1.000  C
  H180     1.0000 0.67489  0.99672  0.25698  Biso   1.000  H
  C185     1.0000 0.38367  0.88922  0.27308  Biso   1.000  C
  N123     1.0000 0.41011  0.81892  0.38720  Biso   1.000  N
  H181     1.0000 0.35349  0.80951  0.33121  Biso   1.000  H
  O61      1.0000 0.43860  0.79896  0.48216  Biso   1.000  O
  N124     1.0000 0.61069  0.91947  0.30596  Biso   1.000  N
  O62      1.0000 0.65166  0.90234  0.39438  Biso   1.000  O
  C186     1.0000 0.53041  0.96453  0.21531  Biso   1.000  C
  H182     1.0000 0.62359  0.94242  0.21928  Biso   1.000  H
  N125     1.0000 0.43391  0.89472  0.26955  Biso   1.000  N
  H183     1.0000 0.37411  0.86292  0.24609  Biso   1.000  H
  H184     1.0000 0.36851  0.91831  0.25748  Biso   1.000  H
  C187     1.0000 0.44770  0.79819  0.35093  Biso   1.000  C
  C188     1.0000 0.59585  0.87226  0.29201  Biso   1.000  C
  N126     1.0000 0.50157  0.92924  0.24613  Biso   1.000  N
  H185     1.0000 0.51010  0.99140  0.20350  Biso   1.000  H
  H186     1.0000 0.54342  0.95071  0.17739  Biso   1.000  H
  C189     1.0000 0.46649  0.85566  0.26457  Biso   1.000  C
  C190     1.0000 0.45496  0.93682  0.25602  Biso   1.000  C
  N127     1.0000 0.47774  0.83281  0.32225  Biso   1.000  N
  H187     1.0000 0.46719  0.77781  0.37760  Biso   1.000  H
  H188     1.0000 0.43359  0.77802  0.31891  Biso   1.000  H
  N128     1.0000 0.54518  0.86556  0.29540  Biso   1.000  N
  H189     1.0000 0.60660  0.86412  0.25030  Biso   1.000  H
  H190     1.0000 0.61129  0.85030  0.32088  Biso   1.000  H
  C191     1.0000 0.51366  0.87963  0.24705  Biso   1.000  C
  H191     1.0000 0.45619  0.83242  0.23292  Biso   1.000  H
  O63      1.0000 0.43472  0.97500  0.25167  Biso   1.000  O
  C192     1.0000 0.52459  0.83665  0.33638  Biso   1.000  C
  H192     1.0000 0.52519  0.86870  0.20620  Biso   1.000  H
  O64      1.0000 0.54402  0.81642  0.37879  Biso   1.000  O
  O65      1.0000 0.59782  0.34887  0.38007  Biso   1.000  O
  C193     1.0000 0.61936  0.38406  0.36442  Biso   1.000  C
  N129     1.0000 0.60988  0.41082  0.31466  Biso   1.000  N
  N130     1.0000 0.65670  0.40334  0.39521  Biso   1.000  N
  C194     1.0000 0.56771  0.40503  0.27838  Biso   1.000  C
  C195     1.0000 0.63872  0.45306  0.31200  Biso   1.000  C
  C196     1.0000 0.67190  0.44720  0.36794  Biso   1.000  C
  C197     1.0000 0.66872  0.38980  0.45714  Biso   1.000  C
  N131     1.0000 0.57716  0.38702  0.21741  Biso   1.000  N
  H193     1.0000 0.55160  0.43592  0.27491  Biso   1.000  H
  H194     1.0000 0.54610  0.38310  0.29970  Biso   1.000  H
  N132     1.0000 0.67119  0.45457  0.26086  Biso   1.000  N
  H195     1.0000 0.61929  0.48239  0.31488  Biso   1.000  H
  N133     1.0000 0.71875  0.44484  0.34068  Biso   1.000  N
  H196     1.0000 0.66901  0.47421  0.39717  Biso   1.000  H
  N134     1.0000 0.71484  0.36886  0.46190  Biso   1.000  N
  H197     1.0000 0.66742  0.41801  0.48367  Biso   1.000  H
  H198     1.0000 0.64500  0.36710  0.47228  Biso   1.000  H
  C198     1.0000 0.56334  0.34305  0.19847  Biso   1.000  C
  C199     1.0000 0.58876  0.41720  0.16682  Biso   1.000  C
  C200     1.0000 0.65744  0.46948  0.20030  Biso   1.000  C
  C201     1.0000 0.71706  0.45143  0.27811  Biso   1.000  C
  C202     1.0000 0.76120  0.45231  0.37476  Biso   1.000  C
  C203     1.0000 0.75750  0.39703  0.46547  Biso   1.000  C
  C204     1.0000 0.72171  0.32444  0.48417  Biso   1.000  C
  O66      1.0000 0.54895  0.31139  0.23214  Biso   1.000  O
  N135     1.0000 0.56891  0.33991  0.13722  Biso   1.000  N
  C205     1.0000 0.58344  0.38427  0.11079  Biso   1.000  C
  N136     1.0000 0.63756  0.43148  0.16380  Biso   1.000  N
  H199     1.0000 0.56701  0.44480  0.16430  Biso   1.000  H
  H200     1.0000 0.68529  0.48239  0.17889  Biso   1.000  H
  H201     1.0000 0.63389  0.49512  0.20392  Biso   1.000  H
  O67      1.0000 0.75126  0.45415  0.24453  Biso   1.000  O
  N137     1.0000 0.77732  0.41043  0.40705  Biso   1.000  N
  H202     1.0000 0.75581  0.47791  0.40481  Biso   1.000  H
  H203     1.0000 0.78631  0.46289  0.34640  Biso   1.000  H
  H204     1.0000 0.75331  0.42492  0.49300  Biso   1.000  H
  C206     1.0000 0.79449  0.36248  0.49076  Biso   1.000  C
  O68      1.0000 0.69125  0.29419  0.49067  Biso   1.000  O
  N138     1.0000 0.76840  0.31851  0.49785  Biso   1.000  N
  C207     1.0000 0.54818  0.30230  0.10095  Biso   1.000  C
  N139     1.0000 0.62994  0.38353  0.08453  Biso   1.000  N
  H205     1.0000 0.55950  0.39650  0.08119  Biso   1.000  H
  C208     1.0000 0.65987  0.41413  0.11330  Biso   1.000  C
  C209     1.0000 0.82100  0.39192  0.39781  Biso   1.000  C
  N140     1.0000 0.83055  0.36068  0.44401  Biso   1.000  N
  H206     1.0000 0.80760  0.37362  0.53069  Biso   1.000  H
  C210     1.0000 0.78550  0.28040  0.53467  Biso   1.000  C
  N141     1.0000 0.58280  0.27226  0.07223  Biso   1.000  N
  H207     1.0000 0.52780  0.28280  0.12762  Biso   1.000  H
  H208     1.0000 0.52801  0.31640  0.06889  Biso   1.000  H
  C211     1.0000 0.63925  0.36636  0.02310  Biso   1.000  C
  O69      1.0000 0.69993  0.42446  0.09606  Biso   1.000  O
  O70      1.0000 0.84769  0.40165  0.35564  Biso   1.000  O
  C212     1.0000 0.87776  0.34584  0.45796  Biso   1.000  C
  N142     1.0000 0.82075  0.25160  0.50389  Biso   1.000  N
  H209     1.0000 0.75859  0.26009  0.54647  Biso   1.000  H
  H210     1.0000 0.79932  0.29341  0.57259  Biso   1.000  H
  C213     1.0000 0.60565  0.28350  0.01459  Biso   1.000  C
  C214     1.0000 0.58664  0.22543  0.08641  Biso   1.000  C
  N143     1.0000 0.64475  0.31608  0.01958  Biso   1.000  N
  H211     1.0000 0.66830  0.38152  0.00750  Biso   1.000  H
  H212     1.0000 0.61291  0.37591  0.99607  Biso   1.000  H
  N144     1.0000 0.88446  0.29521  0.45458  Biso   1.000  N
  H213     1.0000 0.88591  0.35659  0.49968  Biso   1.000  H
  H214     1.0000 0.89969  0.36132  0.42910  Biso   1.000  H
  C215     1.0000 0.87036  0.26365  0.50293  Biso   1.000  C
  C216     1.0000 0.81317  0.20495  0.49396  Biso   1.000  C
  H215     1.0000 0.58241  0.29380  0.98289  Biso   1.000  H
  C217     1.0000 0.62966  0.23636  0.99707  Biso   1.000  C
  O71      1.0000 0.56641  0.20601  0.12881  Biso   1.000  O
  N145     1.0000 0.61556  0.20481  0.04542  Biso   1.000  N
  C218     1.0000 0.68681  0.29507  0.00604  Biso   1.000  C
  C219     1.0000 0.91337  0.27458  0.41359  Biso   1.000  C
  C220     1.0000 0.89437  0.21648  0.48541  Biso   1.000  C
  H216     1.0000 0.88132  0.27522  0.54377  Biso   1.000  H
  O72      1.0000 0.77502  0.18471  0.49831  Biso   1.000  O
  N146     1.0000 0.85527  0.18394  0.48042  Biso   1.000  N
  N147     1.0000 0.67923  0.24842  0.99611  Biso   1.000  N
  H217     1.0000 0.61869  0.22480  0.95618  Biso   1.000  H
  C221     1.0000 0.62225  0.15414  0.04204  Biso   1.000  C
  O73      1.0000 0.72499  0.31531  0.00169  Biso   1.000  O
  O74      1.0000 0.93361  0.29401  0.37119  Biso   1.000  O
  N148     1.0000 0.91722  0.22773  0.42777  Biso   1.000  N
  H218     1.0000 0.91760  0.20622  0.51711  Biso   1.000  H
  C222     1.0000 0.86077  0.13366  0.47690  Biso   1.000  C
  C223     1.0000 0.71452  0.21958  0.96528  Biso   1.000  C
  N149     1.0000 0.66946  0.13934  0.05599  Biso   1.000  N
  H219     1.0000 0.61411  0.14339  0.00032  Biso   1.000  H
  H220     1.0000 0.60029  0.13870  0.07090  Biso   1.000  H
  C224     1.0000 0.95180  0.19769  0.39905  Biso   1.000  C
  N150     1.0000 0.87008  0.11645  0.41547  Biso   1.000  N
  H221     1.0000 0.88711  0.12411  0.50389  Biso   1.000  H
  H222     1.0000 0.83172  0.11850  0.49250  Biso   1.000  H
  N151     1.0000 0.73162  0.18150  0.00215  Biso   1.000  N
  H223     1.0000 0.74142  0.23989  0.95348  Biso   1.000  H
  H224     1.0000 0.70070  0.20661  0.92736  Biso   1.000  H
  C225     1.0000 0.67902  0.10806  0.10219  Biso   1.000  C
  C226     1.0000 0.70553  0.13754  0.00924  Biso   1.000  C
  N152     1.0000 0.93111  0.16010  0.36278  Biso   1.000  N
  H225     1.0000 0.97222  0.21722  0.37238  Biso   1.000  H
  H226     1.0000 0.97201  0.18362  0.43111  Biso   1.000  H
  C227     1.0000 0.84014  0.08589  0.38665  Biso   1.000  C
  C228     1.0000 0.91658  0.11575  0.38921  Biso   1.000  C
  C229     1.0000 0.77830  0.17555  0.01583  Biso   1.000  C
  O75      1.0000 0.65233  0.09837  0.14436  Biso   1.000  O
  N153     1.0000 0.72270  0.08959  0.09295  Biso   1.000  N
  C230     1.0000 0.74252  0.10299  0.03449  Biso   1.000  C
  H227     1.0000 0.69242  0.12640  0.96926  Biso   1.000  H
  C231     1.0000 0.93664  0.15697  0.30153  Biso   1.000  C
  N154     1.0000 0.86246  0.06850  0.33620  Biso   1.000  N
  O76      1.0000 0.80009  0.07556  0.40394  Biso   1.000  O
  C232     1.0000 0.91126  0.08282  0.33314  Biso   1.000  C
  H228     1.0000 0.94052  0.10352  0.41881  Biso   1.000  H
  O77      1.0000 0.80876  0.20580  0.00933  Biso   1.000  O
  N155     1.0000 0.78518  0.13116  0.03810  Biso   1.000  N
  C233     1.0000 0.73881  0.04767  0.12524  Biso   1.000  C
  H229     1.0000 0.74671  0.07510  0.00700  Biso   1.000  H
  N156     1.0000 0.92286  0.11300  0.28255  Biso   1.000  N
  O78      1.0000 0.95106  0.18859  0.26786  Biso   1.000  O
  C234     1.0000 0.84258  0.03050  0.29970  Biso   1.000  C
  H230     1.0000 0.93301  0.05521  0.33570  Biso   1.000  H
  C235     1.0000 0.83129  0.11021  0.04286  Biso   1.000  C
  N157     1.0000 0.78126  0.05518  0.15932  Biso   1.000  N
  H231     1.0000 0.74421  0.02211  0.09519  Biso   1.000  H
  H232     1.0000 0.71371  0.03709  0.15360  Biso   1.000  H
  C236     1.0000 0.93231  0.09498  0.22162  Biso   1.000  C
  N158     1.0000 0.82883  0.04545  0.23914  Biso   1.000  N
  H233     1.0000 0.81472  0.01759  0.32111  Biso   1.000  H
  H234     1.0000 0.86609  0.00490  0.29608  Biso   1.000  H
  N159     1.0000 0.84332  0.09664  0.10479  Biso   1.000  N
  H235     1.0000 0.83260  0.08201  0.01628  Biso   1.000  H
  H236     1.0000 0.85502  0.13288  0.02772  Biso   1.000  H
  C237     1.0000 0.78296  0.04858  0.22189  Biso   1.000  C
  C238     1.0000 0.82812  0.05278  0.13201  Biso   1.000  C
  N160     1.0000 0.89014  0.08917  0.18530  Biso   1.000  N
  H237     1.0000 0.94842  0.06410  0.22509  Biso   1.000  H
  H238     1.0000 0.95392  0.11691  0.20030  Biso   1.000  H
  C239     1.0000 0.86130  0.04696  0.18800  Biso   1.000  C
  C240     1.0000 0.88065  0.11593  0.13558  Biso   1.000  C
  O79      1.0000 0.74872  0.04587  0.25547  Biso   1.000  O
  H239     1.0000 0.83101  0.02581  0.10278  Biso   1.000  H
  H240     1.0000 0.88072  0.01759  0.18512  Biso   1.000  H
  O80      1.0000 0.90220  0.15115  0.11993  Biso   1.000  O
  C241     1.0000 0.20231  0.48881  0.87522  Biso   1.000  C
  N161     1.0000 0.16042  0.47269  0.84292  Biso   1.000  N
  N162     1.0000 0.19483  0.53129  0.90929  Biso   1.000  N
  H241     1.0000 0.22790  0.49420  0.84517  Biso   1.000  H
  H242     1.0000 0.21292  0.46370  0.90358  Biso   1.000  H
  C242     1.0000 0.14195  0.42901  0.85216  Biso   1.000  C
  C243     1.0000 0.14702  0.49251  0.78451  Biso   1.000  C
  C244     1.0000 0.20142  0.53295  0.97187  Biso   1.000  C
  C245     1.0000 0.19723  0.57811  0.88203  Biso   1.000  C
  N163     1.0000 0.11067  0.41945  0.80596  Biso   1.000  N
  O81      1.0000 0.15164  0.40232  0.89434  Biso   1.000  O
  C246     1.0000 0.11247  0.45552  0.75922  Biso   1.000  C
  N164     1.0000 0.11885  0.53517  0.78808  Biso   1.000  N
  H243     1.0000 0.17491  0.49670  0.75698  Biso   1.000  H
  N165     1.0000 0.20456  0.57882  0.98911  Biso   1.000  N
  O82      1.0000 0.20414  0.49875  0.00544  Biso   1.000  O
  N166     1.0000 0.15337  0.59334  0.85477  Biso   1.000  N
  C247     1.0000 0.20305  0.61129  0.93797  Biso   1.000  C
  H244     1.0000 0.22420  0.58100  0.85280  Biso   1.000  H
  C248     1.0000 0.09583  0.37228  0.79201  Biso   1.000  C
  N167     1.0000 0.06850  0.48161  0.75213  Biso   1.000  N
  H245     1.0000 0.12361  0.44241  0.71928  Biso   1.000  H
  C249     1.0000 0.07443  0.52829  0.76580  Biso   1.000  C
  C250     1.0000 0.13979  0.58129  0.79284  Biso   1.000  C
  C251     1.0000 0.21948  0.59260  0.04972  Biso   1.000  C
  C252     1.0000 0.13405  0.63068  0.88555  Biso   1.000  C
  N168     1.0000 0.16084  0.64013  0.93532  Biso   1.000  N
  H246     1.0000 0.23242  0.63072  0.93509  Biso   1.000  H
  N169     1.0000 0.04520  0.36555  0.79540  Biso   1.000  N
  H247     1.0000 0.10662  0.36410  0.75030  Biso   1.000  H
  H248     1.0000 0.11131  0.35032  0.82088  Biso   1.000  H
  C253     1.0000 0.03043  0.46451  0.71531  Biso   1.000  C
  O83      1.0000 0.04418  0.55879  0.75931  Biso   1.000  O
  H249     1.0000 0.16800  0.58259  0.76631  Biso   1.000  H
  H250     1.0000 0.11709  0.60501  0.77770  Biso   1.000  H
  N170     1.0000 0.18150  0.61245  0.08622  Biso   1.000  N
  H251     1.0000 0.23242  0.56471  0.07108  Biso   1.000  H
  H252     1.0000 0.24511  0.61612  0.04611  Biso   1.000  H
  O84      1.0000 0.09886  0.65222  0.86991  Biso   1.000  O
  C254     1.0000 0.15503  0.68230  0.97159  Biso   1.000  C
  C255     1.0000 0.01364  0.37965  0.74705  Biso   1.000  C
  C256     1.0000 0.02457  0.33664  0.83638  Biso   1.000  C
  N171     1.0000 0.00159  0.42926  0.74609  Biso   1.000  N
  H253     1.0000 0.01008  0.49141  0.70350  Biso   1.000  H
  H254     1.0000 0.04340  0.45069  0.67739  Biso   1.000  H
  C257     1.0000 0.16412  0.59017  0.13668  Biso   1.000  C
  C258     1.0000 0.16719  0.66125  0.08316  Biso   1.000  C
  H255     1.0000 0.18591  0.69841  0.97507  Biso   1.000  H
  H256     1.0000 0.13310  0.70391  0.95028  Biso   1.000  H
  N172     1.0000 0.13701  0.67285  0.03257  Biso   1.000  N
  H257     1.0000 0.02521  0.36872  0.70620  Biso   1.000  H
  C259     1.0000 0.96651  0.35564  0.76457  Biso   1.000  C
  O85      1.0000 0.04400  0.31640  0.87879  Biso   1.000  O
  N173     1.0000 0.97775  0.33279  0.82220  Biso   1.000  N
  C260     1.0000 0.95494  0.43684  0.75602  Biso   1.000  C
  O86      1.0000 0.17445  0.55008  0.15392  Biso   1.000  O
  N174     1.0000 0.13352  0.62007  0.16545  Biso   1.000  N
  C261     1.0000 0.13426  0.66657  0.13924  Biso   1.000  C
  H258     1.0000 0.19480  0.68300  0.08572  Biso   1.000  H
  C262     1.0000 0.09304  0.68667  0.05150  Biso   1.000  C
  N175     1.0000 0.93393  0.39474  0.76955  Biso   1.000  N
  H259     1.0000 0.95621  0.33240  0.73287  Biso   1.000  H
  C263     1.0000 0.94771  0.29821  0.85093  Biso   1.000  C
  O87      1.0000 0.93470  0.47502  0.75167  Biso   1.000  O
  C264     1.0000 0.11635  0.61076  0.22692  Biso   1.000  C
  N176     1.0000 0.08991  0.68110  0.11280  Biso   1.000  N
  H260     1.0000 0.14649  0.69051  0.16879  Biso   1.000  H
  O88      1.0000 0.06142  0.70105  0.01784  Biso   1.000  O
  C265     1.0000 0.88369  0.38924  0.77308  Biso   1.000  C
  N177     1.0000 0.91009  0.31890  0.88720  Biso   1.000  N
  H261     1.0000 0.96721  0.27779  0.87760  Biso   1.000  H
  H262     1.0000 0.93361  0.27800  0.81886  Biso   1.000  H
  N178     1.0000 0.06607  0.60526  0.23040  Biso   1.000  N
  H263     1.0000 0.12590  0.63710  0.25391  Biso   1.000  H
  H264     1.0000 0.13151  0.58171  0.24248  Biso   1.000  H
  C266     1.0000 0.05229  0.70183  0.14907  Biso   1.000  C
  N179     1.0000 0.86648  0.37993  0.83451  Biso   1.000  N
  H265     1.0000 0.87410  0.36290  0.74609  Biso   1.000  H
  H266     1.0000 0.86853  0.41829  0.75748  Biso   1.000  H
  C267     1.0000 0.86574  0.33343  0.86076  Biso   1.000  C
  C268     1.0000 0.90696  0.31337  0.94845  Biso   1.000  C
  C269     1.0000 0.03349  0.64436  0.23543  Biso   1.000  C
  C270     1.0000 0.04506  0.56320  0.24398  Biso   1.000  C
  N180     1.0000 0.02225  0.66721  0.17775  Biso   1.000  N
  H267     1.0000 0.03279  0.72221  0.12240  Biso   1.000  H
  H268     1.0000 0.06639  0.72200  0.18109  Biso   1.000  H
  C271     1.0000 0.83588  0.40986  0.86332  Biso   1.000  C
  H269     1.0000 0.85351  0.30949  0.83117  Biso   1.000  H
  C272     1.0000 0.83281  0.33875  0.91684  Biso   1.000  C
  O89      1.0000 0.93862  0.29895  0.98212  Biso   1.000  O
  N181     1.0000 0.86299  0.32719  0.96743  Biso   1.000  N
  C273     1.0000 0.98636  0.62035  0.25290  Biso   1.000  C
  H270     1.0000 0.04379  0.66760  0.26708  Biso   1.000  H
  N182     1.0000 0.99841  0.57078  0.25387  Biso   1.000  N
  O90      1.0000 0.06530  0.52501  0.24833  Biso   1.000  O
  C274     1.0000 0.97543  0.66336  0.16362  Biso   1.000  C
  O91      1.0000 0.82555  0.44992  0.84603  Biso   1.000  O
  N183     1.0000 0.81853  0.38755  0.91378  Biso   1.000  N
  H271     1.0000 0.80520  0.31700  0.91428  Biso   1.000  H
  C275     1.0000 0.84497  0.31774  0.02841  Biso   1.000  C
  N184     1.0000 0.95484  0.63445  0.20456  Biso   1.000  N
  H272     1.0000 0.97483  0.63132  0.29380  Biso   1.000  H
  C276     1.0000 0.96961  0.53549  0.28469  Biso   1.000  C
  O92      1.0000 0.95600  0.68360  0.12121  Biso   1.000  O
  C277     1.0000 0.78052  0.40743  0.95028  Biso   1.000  C
  N185     1.0000 0.83919  0.35987  0.06468  Biso   1.000  N
  H273     1.0000 0.81412  0.30159  0.02488  Biso   1.000  H
  H274     1.0000 0.86690  0.29609  0.04972  Biso   1.000  H
  C278     1.0000 0.90417  0.62775  0.20799  Biso   1.000  C
  N186     1.0000 0.93150  0.51842  0.24783  Biso   1.000  N
  H275     1.0000 0.98992  0.50862  0.29650  Biso   1.000  H
  H276     1.0000 0.95660  0.54931  0.32261  Biso   1.000  H
  H277     1.0000 0.76762  0.43532  0.92887  Biso   1.000  H
  H278     1.0000 0.75489  0.38392  0.95389  Biso   1.000  H
  N187     1.0000 0.79544  0.42118  0.01089  Biso   1.000  N
  C279     1.0000 0.79695  0.38871  0.06203  Biso   1.000  C
  C280     1.0000 0.86595  0.36935  0.11440  Biso   1.000  C
  N188     1.0000 0.88933  0.58055  0.19404  Biso   1.000  N
  H279     1.0000 0.89342  0.63590  0.24970  Biso   1.000  H
  H280     1.0000 0.88869  0.64972  0.17908  Biso   1.000  H
  C281     1.0000 0.92557  0.47171  0.23415  Biso   1.000  C
  C282     1.0000 0.88756  0.54451  0.24078  Biso   1.000  C
  C283     1.0000 0.79858  0.46705  0.02813  Biso   1.000  C
  H281     1.0000 0.76762  0.36932  0.06491  Biso   1.000  H
  C284     1.0000 0.80281  0.42189  0.11797  Biso   1.000  C
  O93      1.0000 0.90114  0.34781  0.13004  Biso   1.000  O
  N189     1.0000 0.84667  0.40669  0.14518  Biso   1.000  N
  C285     1.0000 0.85809  0.57099  0.14784  Biso   1.000  C
  N190     1.0000 0.88118  0.46483  0.21192  Biso   1.000  N
  O94      1.0000 0.95582  0.44124  0.24065  Biso   1.000  O
  C286     1.0000 0.85301  0.50749  0.21549  Biso   1.000  C
  H282     1.0000 0.87642  0.55759  0.28072  Biso   1.000  H
  O95      1.0000 0.79586  0.50129  0.99451  Biso   1.000  O
  N191     1.0000 0.80520  0.46874  0.09071  Biso   1.000  N
  H283     1.0000 0.77580  0.41900  0.14720  Biso   1.000  H
  C287     1.0000 0.86021  0.41875  0.20712  Biso   1.000  C
  N192     1.0000 0.83958  0.52731  0.15703  Biso   1.000  N
  O96      1.0000 0.84836  0.59768  0.10562  Biso   1.000  O
  H284     1.0000 0.82512  0.50330  0.24298  Biso   1.000  H
  C288     1.0000 0.79769  0.51119  0.12478  Biso   1.000  C
  H285     1.0000 0.83200  0.41741  0.23369  Biso   1.000  H
  H286     1.0000 0.88291  0.39502  0.22230  Biso   1.000  H
  H287     1.0000 0.77210  0.50580  0.15479  Biso   1.000  H
  H288     1.0000 0.78712  0.53630  0.09638  Biso   1.000  H
  O97      1.0000 0.65233  0.59835  0.85559  Biso   1.000  O
  C289     1.0000 0.67902  0.60808  0.89781  Biso   1.000  C
  N193     1.0000 0.72270  0.58957  0.90705  Biso   1.000  N
  N194     1.0000 0.66946  0.63935  0.94401  Biso   1.000  N
  C290     1.0000 0.73881  0.54769  0.87476  Biso   1.000  C
  C291     1.0000 0.74252  0.60300  0.96547  Biso   1.000  C
  C292     1.0000 0.70553  0.63756  0.99076  Biso   1.000  C
  C293     1.0000 0.62225  0.65416  0.95796  Biso   1.000  C
  N195     1.0000 0.78126  0.55520  0.84068  Biso   1.000  N
  H289     1.0000 0.74421  0.52209  0.90477  Biso   1.000  H
  H290     1.0000 0.71371  0.53711  0.84640  Biso   1.000  H
  N196     1.0000 0.78518  0.63117  0.96190  Biso   1.000  N
  H291     1.0000 0.74671  0.57512  0.99300  Biso   1.000  H
  N197     1.0000 0.73162  0.68149  0.99780  Biso   1.000  N
  H292     1.0000 0.69242  0.62641  0.03069  Biso   1.000  H
  N198     1.0000 0.61556  0.70483  0.95458  Biso   1.000  N
  H293     1.0000 0.61411  0.64341  0.99968  Biso   1.000  H
  H294     1.0000 0.60029  0.63872  0.92910  Biso   1.000  H
  C294     1.0000 0.78296  0.54860  0.77811  Biso   1.000  C
  C295     1.0000 0.82812  0.55280  0.86794  Biso   1.000  C
  C296     1.0000 0.83129  0.61020  0.95714  Biso   1.000  C
  C297     1.0000 0.77830  0.67556  0.98417  Biso   1.000  C
  C298     1.0000 0.71452  0.71960  0.03467  Biso   1.000  C
  C299     1.0000 0.58664  0.72542  0.91359  Biso   1.000  C
  C300     1.0000 0.62966  0.73638  0.00293  Biso   1.000  C
  N199     1.0000 0.82883  0.54543  0.76086  Biso   1.000  N
  O98      1.0000 0.74872  0.54585  0.74453  Biso   1.000  O
  C301     1.0000 0.86130  0.54698  0.81200  Biso   1.000  C
  N200     1.0000 0.84332  0.59666  0.89521  Biso   1.000  N
  H295     1.0000 0.83101  0.52579  0.89717  Biso   1.000  H
  H296     1.0000 0.83260  0.58199  0.98367  Biso   1.000  H
  H297     1.0000 0.85502  0.63290  0.97228  Biso   1.000  H
  O99      1.0000 0.80876  0.70581  0.99062  Biso   1.000  O
  N201     1.0000 0.67923  0.74844  0.00389  Biso   1.000  N
  H298     1.0000 0.74142  0.73991  0.04652  Biso   1.000  H
  H299     1.0000 0.70070  0.70662  0.07259  Biso   1.000  H
  O100     1.0000 0.56641  0.70599  0.87119  Biso   1.000  O
  N202     1.0000 0.58280  0.77227  0.92773  Biso   1.000  N
  C302     1.0000 0.60565  0.78352  0.98541  Biso   1.000  C
  H300     1.0000 0.61869  0.72482  0.04382  Biso   1.000  H
  C303     1.0000 0.84258  0.53052  0.70026  Biso   1.000  C
  N203     1.0000 0.89014  0.58918  0.81466  Biso   1.000  N
  H301     1.0000 0.88072  0.51761  0.81488  Biso   1.000  H
  C304     1.0000 0.88065  0.61594  0.86438  Biso   1.000  C
  C305     1.0000 0.68681  0.79509  0.99396  Biso   1.000  C
  C306     1.0000 0.54818  0.80231  0.89905  Biso   1.000  C
  N204     1.0000 0.64475  0.81610  0.98042  Biso   1.000  N
  H302     1.0000 0.58241  0.79382  0.01711  Biso   1.000  H
  N205     1.0000 0.86246  0.56852  0.66380  Biso   1.000  N
  H303     1.0000 0.81472  0.51761  0.67889  Biso   1.000  H
  H304     1.0000 0.86609  0.50492  0.70387  Biso   1.000  H
  C307     1.0000 0.93231  0.59497  0.77838  Biso   1.000  C
  O101     1.0000 0.90220  0.65113  0.88007  Biso   1.000  O
  O102     1.0000 0.72499  0.81529  0.99831  Biso   1.000  O
  N206     1.0000 0.56891  0.83990  0.86278  Biso   1.000  N
  H305     1.0000 0.52780  0.78282  0.87238  Biso   1.000  H
  H306     1.0000 0.52801  0.81642  0.93107  Biso   1.000  H
  C308     1.0000 0.63925  0.86634  0.97690  Biso   1.000  C
  C309     1.0000 0.84014  0.58587  0.61330  Biso   1.000  C
  C310     1.0000 0.91126  0.58280  0.66682  Biso   1.000  C
  N207     1.0000 0.92286  0.61298  0.71741  Biso   1.000  N
  H307     1.0000 0.94842  0.56412  0.77491  Biso   1.000  H
  H308     1.0000 0.95392  0.61690  0.79970  Biso   1.000  H
  C311     1.0000 0.56334  0.84307  0.80153  Biso   1.000  C
  C312     1.0000 0.58344  0.88429  0.88921  Biso   1.000  C
  N208     1.0000 0.62994  0.88355  0.91542  Biso   1.000  N
  H309     1.0000 0.66830  0.88150  0.99250  Biso   1.000  H
  H310     1.0000 0.61291  0.87589  0.00389  Biso   1.000  H
  O103     1.0000 0.80009  0.57554  0.59606  Biso   1.000  O
  N209     1.0000 0.87008  0.61647  0.58453  Biso   1.000  N
  C313     1.0000 0.91658  0.61573  0.61074  Biso   1.000  C
  H311     1.0000 0.93301  0.55520  0.66430  Biso   1.000  H
  C314     1.0000 0.93664  0.65695  0.69847  Biso   1.000  C
  N210     1.0000 0.57716  0.88704  0.78255  Biso   1.000  N
  O104     1.0000 0.54895  0.81141  0.76782  Biso   1.000  O
  C315     1.0000 0.58876  0.91722  0.83314  Biso   1.000  C
  H312     1.0000 0.55950  0.89652  0.91876  Biso   1.000  H
  C316     1.0000 0.65987  0.91415  0.88665  Biso   1.000  C
  C317     1.0000 0.86077  0.63368  0.52305  Biso   1.000  C
  N211     1.0000 0.93111  0.66012  0.63722  Biso   1.000  N
  H313     1.0000 0.94052  0.60350  0.58119  Biso   1.000  H
  O105     1.0000 0.95106  0.68861  0.73214  Biso   1.000  O
  C318     1.0000 0.56771  0.90505  0.72157  Biso   1.000  C
  N212     1.0000 0.63756  0.93150  0.83620  Biso   1.000  N
  H314     1.0000 0.56701  0.94482  0.83570  Biso   1.000  H
  O106     1.0000 0.69993  0.92448  0.90394  Biso   1.000  O
  N213     1.0000 0.85527  0.68392  0.51958  Biso   1.000  N
  H315     1.0000 0.88711  0.62412  0.49611  Biso   1.000  H
  H316     1.0000 0.83172  0.61852  0.50750  Biso   1.000  H
  C319     1.0000 0.95180  0.69770  0.60095  Biso   1.000  C
  N214     1.0000 0.60988  0.91083  0.68530  Biso   1.000  N
  H317     1.0000 0.55160  0.93590  0.72509  Biso   1.000  H
  H318     1.0000 0.54610  0.88312  0.70030  Biso   1.000  H
  C320     1.0000 0.65744  0.96950  0.79970  Biso   1.000  C
  C321     1.0000 0.89437  0.71650  0.51459  Biso   1.000  C
  C322     1.0000 0.81317  0.70493  0.50599  Biso   1.000  C
  N215     1.0000 0.91722  0.72774  0.57223  Biso   1.000  N
  H319     1.0000 0.97222  0.71720  0.62757  Biso   1.000  H
  H320     1.0000 0.97201  0.68360  0.56889  Biso   1.000  H
  C323     1.0000 0.61936  0.88407  0.63558  Biso   1.000  C
  C324     1.0000 0.63872  0.95304  0.68795  Biso   1.000  C
  N216     1.0000 0.67119  0.95455  0.73914  Biso   1.000  N
  H321     1.0000 0.68529  0.98241  0.82111  Biso   1.000  H
  H322     1.0000 0.63389  0.99510  0.79608  Biso   1.000  H
  H323     1.0000 0.91760  0.70620  0.48289  Biso   1.000  H
  C325     1.0000 0.87036  0.76364  0.49707  Biso   1.000  C
  O107     1.0000 0.77502  0.68473  0.50169  Biso   1.000  O
  N217     1.0000 0.82075  0.75158  0.49611  Biso   1.000  N
  C326     1.0000 0.91337  0.77460  0.58641  Biso   1.000  C
  N218     1.0000 0.65670  0.90336  0.60479  Biso   1.000  N
  O108     1.0000 0.59782  0.84889  0.61993  Biso   1.000  O
  C327     1.0000 0.67190  0.94722  0.63201  Biso   1.000  C
  H324     1.0000 0.61929  0.98241  0.68507  Biso   1.000  H
  C328     1.0000 0.71706  0.95142  0.72185  Biso   1.000  C
  N219     1.0000 0.88446  0.79519  0.54542  Biso   1.000  N
  H325     1.0000 0.88132  0.77520  0.45618  Biso   1.000  H
  C329     1.0000 0.78550  0.78042  0.46533  Biso   1.000  C
  O109     1.0000 0.93361  0.79403  0.62881  Biso   1.000  O
  C330     1.0000 0.66872  0.88982  0.54286  Biso   1.000  C
  N220     1.0000 0.71875  0.94482  0.65927  Biso   1.000  N
  H326     1.0000 0.66901  0.97423  0.60278  Biso   1.000  H
  O110     1.0000 0.75126  0.95417  0.75547  Biso   1.000  O
  C331     1.0000 0.87776  0.84586  0.54204  Biso   1.000  C
  N221     1.0000 0.76840  0.81853  0.50215  Biso   1.000  N
  H327     1.0000 0.75859  0.76011  0.45348  Biso   1.000  H
  H328     1.0000 0.79932  0.79339  0.42741  Biso   1.000  H
  N222     1.0000 0.71484  0.86884  0.53810  Biso   1.000  N
  H329     1.0000 0.66742  0.91803  0.51628  Biso   1.000  H
  H330     1.0000 0.64500  0.86712  0.52767  Biso   1.000  H
  C332     1.0000 0.76120  0.95233  0.62524  Biso   1.000  C
  N223     1.0000 0.83055  0.86066  0.55594  Biso   1.000  N
  H331     1.0000 0.88591  0.85661  0.50027  Biso   1.000  H
  H332     1.0000 0.89969  0.86130  0.57090  Biso   1.000  H
  C333     1.0000 0.79449  0.86246  0.50919  Biso   1.000  C
  C334     1.0000 0.72171  0.82445  0.51583  Biso   1.000  C
  C335     1.0000 0.75750  0.89701  0.53449  Biso   1.000  C
  N224     1.0000 0.77732  0.91045  0.59295  Biso   1.000  N
  H333     1.0000 0.75581  0.97789  0.59519  Biso   1.000  H
  H334     1.0000 0.78631  0.96291  0.65360  Biso   1.000  H
  C336     1.0000 0.82100  0.89194  0.60219  Biso   1.000  C
  H335     1.0000 0.80760  0.87360  0.46931  Biso   1.000  H
  O111     1.0000 0.69125  0.79420  0.50933  Biso   1.000  O
  H336     1.0000 0.75331  0.92490  0.50700  Biso   1.000  H
  O112     1.0000 0.84769  0.90167  0.64436  Biso   1.000  O
  C337     1.0000 0.13426  0.16656  0.86076  Biso   1.000  C
  N225     1.0000 0.13352  0.12005  0.83451  Biso   1.000  N
  N226     1.0000 0.08991  0.18108  0.88720  Biso   1.000  N
  H337     1.0000 0.14649  0.19049  0.83117  Biso   1.000  H
  C338     1.0000 0.16719  0.16123  0.91684  Biso   1.000  C
  C339     1.0000 0.11635  0.11078  0.77308  Biso   1.000  C
  C340     1.0000 0.16412  0.09015  0.86332  Biso   1.000  C
  C341     1.0000 0.05229  0.20181  0.85093  Biso   1.000  C
  C342     1.0000 0.09304  0.18665  0.94845  Biso   1.000  C
  N227     1.0000 0.18150  0.11247  0.91378  Biso   1.000  N
  N228     1.0000 0.13701  0.17283  0.96743  Biso   1.000  N
  H338     1.0000 0.19480  0.18298  0.91428  Biso   1.000  H
  N229     1.0000 0.06607  0.10528  0.76955  Biso   1.000  N
  H339     1.0000 0.12590  0.13712  0.74609  Biso   1.000  H
  H340     1.0000 0.13151  0.08169  0.75748  Biso   1.000  H
  O113     1.0000 0.17445  0.05010  0.84603  Biso   1.000  O
  N230     1.0000 0.02225  0.16719  0.82220  Biso   1.000  N
  H341     1.0000 0.03279  0.22219  0.87760  Biso   1.000  H
  H342     1.0000 0.06639  0.22201  0.81886  Biso   1.000  H
  O114     1.0000 0.06142  0.20104  0.98212  Biso   1.000  O
  C343     1.0000 0.21948  0.09259  0.95028  Biso   1.000  C
  C344     1.0000 0.15503  0.18228  0.02841  Biso   1.000  C
  C345     1.0000 0.03349  0.14438  0.76457  Biso   1.000  C
  C346     1.0000 0.04506  0.06318  0.75602  Biso   1.000  C
  C347     1.0000 0.97543  0.16335  0.83638  Biso   1.000  C
  H343     1.0000 0.23242  0.06470  0.92887  Biso   1.000  H
  H344     1.0000 0.24511  0.11610  0.95389  Biso   1.000  H
  N231     1.0000 0.20456  0.07884  0.01089  Biso   1.000  N
  N232     1.0000 0.16084  0.14015  0.06468  Biso   1.000  N
  H345     1.0000 0.18591  0.19839  0.02488  Biso   1.000  H
  H346     1.0000 0.13310  0.20389  0.04972  Biso   1.000  H
  H347     1.0000 0.04379  0.16761  0.73287  Biso   1.000  H
  C348     1.0000 0.98636  0.12037  0.74705  Biso   1.000  C
  O115     1.0000 0.06530  0.02500  0.75167  Biso   1.000  O
  N233     1.0000 0.99841  0.07076  0.74609  Biso   1.000  N
  N234     1.0000 0.95484  0.13444  0.79540  Biso   1.000  N
  O116     1.0000 0.95600  0.18362  0.87879  Biso   1.000  O
  C349     1.0000 0.20305  0.11131  0.06203  Biso   1.000  C
  C350     1.0000 0.20142  0.03293  0.02813  Biso   1.000  C
  C351     1.0000 0.13405  0.13066  0.11440  Biso   1.000  C
  H348     1.0000 0.97483  0.13130  0.70620  Biso   1.000  H
  C352     1.0000 0.96961  0.03547  0.71531  Biso   1.000  C
  C353     1.0000 0.90417  0.12774  0.79201  Biso   1.000  C
  H349     1.0000 0.23242  0.13070  0.06491  Biso   1.000  H
  C354     1.0000 0.19723  0.07809  0.11797  Biso   1.000  C
  O117     1.0000 0.20414  0.99873  0.99451  Biso   1.000  O
  N235     1.0000 0.19483  0.03127  0.09071  Biso   1.000  N
  O118     1.0000 0.09886  0.15221  0.13004  Biso   1.000  O
  N236     1.0000 0.15337  0.09333  0.14518  Biso   1.000  N
  N237     1.0000 0.93150  0.01840  0.75213  Biso   1.000  N
  H350     1.0000 0.98992  0.00860  0.70350  Biso   1.000  H
  H351     1.0000 0.95660  0.04929  0.67739  Biso   1.000  H
  N238     1.0000 0.88933  0.08053  0.80596  Biso   1.000  N
  H352     1.0000 0.89342  0.13592  0.75030  Biso   1.000  H
  H353     1.0000 0.88869  0.14970  0.82088  Biso   1.000  H
  H354     1.0000 0.22420  0.08099  0.14720  Biso   1.000  H
  C355     1.0000 0.20231  0.98882  0.12478  Biso   1.000  C
  C356     1.0000 0.13979  0.08127  0.20712  Biso   1.000  C
  C357     1.0000 0.92557  0.97172  0.76580  Biso   1.000  C
  C358     1.0000 0.88756  0.04449  0.75922  Biso   1.000  C
  C359     1.0000 0.85809  0.07097  0.85216  Biso   1.000  C
  N239     1.0000 0.16042  0.97271  0.15703  Biso   1.000  N
  H355     1.0000 0.22790  0.99422  0.15479  Biso   1.000  H
  H356     1.0000 0.21292  0.96372  0.09638  Biso   1.000  H
  N240     1.0000 0.11885  0.03519  0.21192  Biso   1.000  N
  H357     1.0000 0.16800  0.08261  0.23369  Biso   1.000  H
  H358     1.0000 0.11709  0.10500  0.22230  Biso   1.000  H
  O119     1.0000 0.95582  0.94123  0.75931  Biso   1.000  O
  N241     1.0000 0.88118  0.96485  0.78808  Biso   1.000  N
  C360     1.0000 0.85301  0.00751  0.78451  Biso   1.000  C
  H359     1.0000 0.87642  0.05761  0.71928  Biso   1.000  H
  O120     1.0000 0.84836  0.09770  0.89434  Biso   1.000  O
  N242     1.0000 0.83958  0.02732  0.84292  Biso   1.000  N
  C361     1.0000 0.14702  0.99253  0.21549  Biso   1.000  C
  C362     1.0000 0.14195  0.92903  0.14784  Biso   1.000  C
  C363     1.0000 0.07443  0.02831  0.23415  Biso   1.000  C
  C364     1.0000 0.86021  0.91873  0.79284  Biso   1.000  C
  H360     1.0000 0.82512  0.00331  0.75698  Biso   1.000  H
  C365     1.0000 0.79769  0.01118  0.87522  Biso   1.000  C
  H361     1.0000 0.17491  0.99672  0.24298  Biso   1.000  H
  C366     1.0000 0.11247  0.95551  0.24078  Biso   1.000  C
  O121     1.0000 0.15164  0.90234  0.10562  Biso   1.000  O
  N243     1.0000 0.11067  0.91947  0.19404  Biso   1.000  N
  N244     1.0000 0.06850  0.98160  0.24783  Biso   1.000  N
  O122     1.0000 0.04418  0.05877  0.24065  Biso   1.000  O
  N245     1.0000 0.84667  0.90667  0.85477  Biso   1.000  N
  H362     1.0000 0.83200  0.91739  0.76631  Biso   1.000  H
  H363     1.0000 0.88291  0.89500  0.77770  Biso   1.000  H
  N246     1.0000 0.80520  0.96873  0.90929  Biso   1.000  N
  H364     1.0000 0.77210  0.00582  0.84517  Biso   1.000  H
  H365     1.0000 0.78712  0.03631  0.90358  Biso   1.000  H
  H366     1.0000 0.12361  0.94242  0.28072  Biso   1.000  H
  C367     1.0000 0.09583  0.87226  0.20799  Biso   1.000  C
  C368     1.0000 0.03043  0.96453  0.28469  Biso   1.000  C
  C369     1.0000 0.80281  0.92191  0.88203  Biso   1.000  C
  C370     1.0000 0.86595  0.86934  0.88555  Biso   1.000  C
  C371     1.0000 0.79858  0.96707  0.97187  Biso   1.000  C
  N247     1.0000 0.04520  0.86556  0.20456  Biso   1.000  N
  H367     1.0000 0.10662  0.86412  0.24970  Biso   1.000  H
  H368     1.0000 0.11131  0.85030  0.17908  Biso   1.000  H
  N248     1.0000 0.00159  0.92924  0.25387  Biso   1.000  N
  H369     1.0000 0.01008  0.99140  0.29650  Biso   1.000  H
  H370     1.0000 0.04340  0.95071  0.32261  Biso   1.000  H
  C372     1.0000 0.79695  0.88869  0.93797  Biso   1.000  C
  H371     1.0000 0.77580  0.91901  0.85280  Biso   1.000  H
  O123     1.0000 0.90114  0.84779  0.86991  Biso   1.000  O
  N249     1.0000 0.83919  0.85989  0.93532  Biso   1.000  N
  N250     1.0000 0.79544  0.92120  0.98911  Biso   1.000  N
  O124     1.0000 0.79586  0.00127  0.00544  Biso   1.000  O
  C373     1.0000 0.01364  0.87963  0.25290  Biso   1.000  C
  C374     1.0000 0.02457  0.83665  0.16362  Biso   1.000  C
  C375     1.0000 0.95494  0.93682  0.24398  Biso   1.000  C
  H372     1.0000 0.76762  0.86930  0.93509  Biso   1.000  H
  C376     1.0000 0.84497  0.81772  0.97159  Biso   1.000  C
  C377     1.0000 0.78052  0.90741  0.04972  Biso   1.000  C
  C378     1.0000 0.96651  0.85566  0.23543  Biso   1.000  C
  H373     1.0000 0.02521  0.86870  0.29380  Biso   1.000  H
  N251     1.0000 0.97775  0.83281  0.17775  Biso   1.000  N
  O125     1.0000 0.04400  0.81642  0.12121  Biso   1.000  O
  O126     1.0000 0.93470  0.97500  0.24833  Biso   1.000  O
  N252     1.0000 0.93393  0.89472  0.23040  Biso   1.000  N
  H374     1.0000 0.81412  0.80161  0.97507  Biso   1.000  H
  H375     1.0000 0.86690  0.79611  0.95028  Biso   1.000  H
  N253     1.0000 0.86299  0.82717  0.03257  Biso   1.000  N
  N254     1.0000 0.81853  0.88756  0.08622  Biso   1.000  N
  H376     1.0000 0.76762  0.93530  0.07108  Biso   1.000  H
  H377     1.0000 0.75489  0.88390  0.04611  Biso   1.000  H
  H378     1.0000 0.95621  0.83242  0.26708  Biso   1.000  H
  C379     1.0000 0.94771  0.79819  0.14907  Biso   1.000  C
  C380     1.0000 0.88369  0.88922  0.22692  Biso   1.000  C
  C381     1.0000 0.83281  0.83877  0.08316  Biso   1.000  C
  C382     1.0000 0.90696  0.81335  0.05150  Biso   1.000  C
  C383     1.0000 0.83588  0.90985  0.13668  Biso   1.000  C
  N255     1.0000 0.91009  0.81892  0.11280  Biso   1.000  N
  H379     1.0000 0.96721  0.77781  0.12240  Biso   1.000  H
  H380     1.0000 0.93361  0.77802  0.18109  Biso   1.000  H
  N256     1.0000 0.86648  0.87995  0.16545  Biso   1.000  N
  H381     1.0000 0.87410  0.86292  0.25391  Biso   1.000  H
  H382     1.0000 0.86853  0.91831  0.24248  Biso   1.000  H
  C384     1.0000 0.86574  0.83344  0.13924  Biso   1.000  C
  H383     1.0000 0.80520  0.81702  0.08572  Biso   1.000  H
  O127     1.0000 0.93862  0.79896  0.01784  Biso   1.000  O
  O128     1.0000 0.82555  0.94993  0.15392  Biso   1.000  O
  H384     1.0000 0.85351  0.80951  0.16879  Biso   1.000  H
