data_image0
_cell_length_a       17.219
_cell_length_b       18.388
_cell_length_c       18.598
_cell_angle_alpha    90
_cell_angle_beta     90
_cell_angle_gamma    90

_symmetry_space_group_name_H-M    "P 1"
_symmetry_int_tables_number       1

loop_
  _symmetry_equiv_pos_as_xyz
  'x, y, z'

loop_
  _atom_site_label
  _atom_site_occupancy
  _atom_site_fract_x
  _atom_site_fract_y
  _atom_site_fract_z
  _atom_site_thermal_displace_type
  _atom_site_B_iso_or_equiv
  _atom_site_type_symbol
  C1       1.0000 0.45061  0.45812  0.74250  Biso   1.000  C
  C2       1.0000 0.50520  0.40570  0.72379  Biso   1.000  C
  C3       1.0000 0.37162  0.44127  0.73895  Biso   1.000  C
  H1       1.0000 0.46698  0.50500  0.75761  Biso   1.000  H
  C4       1.0000 0.48237  0.33560  0.70298  Biso   1.000  C
  H2       1.0000 0.55892  0.41761  0.72508  Biso   1.000  H
  C5       1.0000 0.34892  0.36883  0.73089  Biso   1.000  C
  C6       1.0000 0.30379  0.48727  0.72449  Biso   1.000  C
  C7       1.0000 0.52454  0.29416  0.64577  Biso   1.000  C
  C8       1.0000 0.40444  0.31586  0.71427  Biso   1.000  C
  C9       1.0000 0.26122  0.36410  0.72379  Biso   1.000  C
  C10      1.0000 0.26163  0.35790  0.71147  Biso   1.000  C
  C11      1.0000 0.24159  0.44154  0.70561  Biso   1.000  C
  C12      1.0000 0.29758  0.56211  0.71470  Biso   1.000  C
  C13      1.0000 0.55567  0.33593  0.58947  Biso   1.000  C
  C14      1.0000 0.51153  0.22003  0.63227  Biso   1.000  C
  H3       1.0000 0.38940  0.26631  0.71067  Biso   1.000  H
  C15      1.0000 0.23921  0.31129  0.66378  Biso   1.000  C
  C16      1.0000 0.22022  0.34169  0.79487  Biso   1.000  C
  C17      1.0000 0.21319  0.32499  0.77487  Biso   1.000  C
  C18      1.0000 0.24589  0.30971  0.64351  Biso   1.000  C
  C19      1.0000 0.17690  0.46944  0.67050  Biso   1.000  C
  C20      1.0000 0.23201  0.58919  0.67911  Biso   1.000  C
  H4       1.0000 0.33690  0.59397  0.73180  Biso   1.000  H
  C21      1.0000 0.55990  0.30895  0.52059  Biso   1.000  C
  H5       1.0000 0.57413  0.38362  0.59910  Biso   1.000  H
  C22      1.0000 0.51734  0.19154  0.56350  Biso   1.000  C
  H6       1.0000 0.49864  0.18871  0.67109  Biso   1.000  H
  H7       1.0000 0.18178  0.30939  0.66039  Biso   1.000  H
  H8       1.0000 0.25739  0.26207  0.67728  Biso   1.000  H
  C23      1.0000 0.27179  0.32978  0.58936  Biso   1.000  C
  H9       1.0000 0.26053  0.25892  0.65469  Biso   1.000  H
  H10      1.0000 0.18950  0.31042  0.63308  Biso   1.000  H
  H11      1.0000 0.16360  0.33990  0.78578  Biso   1.000  H
  H12      1.0000 0.23712  0.29171  0.80718  Biso   1.000  H
  C24      1.0000 0.23381  0.38928  0.85961  Biso   1.000  C
  H13      1.0000 0.15791  0.32309  0.76019  Biso   1.000  H
  H14      1.0000 0.23062  0.27431  0.78309  Biso   1.000  H
  C25      1.0000 0.21900  0.36600  0.84450  Biso   1.000  C
  C26      1.0000 0.28898  0.33299  0.57727  Biso   1.000  C
  C27      1.0000 0.17312  0.54334  0.65330  Biso   1.000  C
  H15      1.0000 0.13508  0.43822  0.65819  Biso   1.000  H
  H16      1.0000 0.22719  0.64020  0.67217  Biso   1.000  H
  C28      1.0000 0.56931  0.35327  0.45129  Biso   1.000  C
  C29      1.0000 0.53534  0.23798  0.50591  Biso   1.000  C
  H17      1.0000 0.50909  0.14112  0.55538  Biso   1.000  H
  H18      1.0000 0.23619  0.36431  0.56517  Biso   1.000  H
  H19      1.0000 0.32261  0.35431  0.59528  Biso   1.000  H
  C30      1.0000 0.28248  0.26300  0.54167  Biso   1.000  C
  H20      1.0000 0.34212  0.34718  0.59087  Biso   1.000  H
  H21      1.0000 0.26273  0.37650  0.55700  Biso   1.000  H
  C31      1.0000 0.29299  0.27398  0.51871  Biso   1.000  C
  H22      1.0000 0.21581  0.43920  0.84859  Biso   1.000  H
  H23      1.0000 0.29020  0.39161  0.86950  Biso   1.000  H
  C32      1.0000 0.19159  0.36159  0.92709  Biso   1.000  C
  H24      1.0000 0.20448  0.41728  0.83590  Biso   1.000  H
  H25      1.0000 0.27371  0.36518  0.86090  Biso   1.000  H
  C33      1.0000 0.16708  0.33511  0.90488  Biso   1.000  C
  C34      1.0000 0.11720  0.56776  0.59743  Biso   1.000  C
  C35      1.0000 0.53255  0.30069  0.39730  Biso   1.000  C
  C36      1.0000 0.52552  0.42582  0.45629  Biso   1.000  C
  C37      1.0000 0.65381  0.36350  0.42241  Biso   1.000  C
  C38      1.0000 0.65834  0.36459  0.45430  Biso   1.000  C
  C39      1.0000 0.51821  0.23238  0.42881  Biso   1.000  C
  H26      1.0000 0.30333  0.27801  0.49500  Biso   1.000  H
  H27      1.0000 0.23230  0.23891  0.53479  Biso   1.000  H
  H28      1.0000 0.31883  0.22923  0.56468  Biso   1.000  H
  H29      1.0000 0.24043  0.25832  0.50591  Biso   1.000  H
  H30      1.0000 0.32261  0.23222  0.53678  Biso   1.000  H
  H31      1.0000 0.31889  0.29372  0.47602  Biso   1.000  H
  H32      1.0000 0.20263  0.39412  0.96747  Biso   1.000  H
  H33      1.0000 0.20983  0.31238  0.93860  Biso   1.000  H
  H34      1.0000 0.13561  0.36051  0.91811  Biso   1.000  H
  H35      1.0000 0.17423  0.36388  0.94870  Biso   1.000  H
  H36      1.0000 0.18160  0.28442  0.91429  Biso   1.000  H
  H37      1.0000 0.11261  0.33729  0.88988  Biso   1.000  H
  C40      1.0000 0.14240  0.61807  0.54581  Biso   1.000  C
  C41      1.0000 0.04611  0.53258  0.58630  Biso   1.000  C
  C42      1.0000 0.50642  0.31657  0.32971  Biso   1.000  C
  H38      1.0000 0.54992  0.45568  0.49441  Biso   1.000  H
  H39      1.0000 0.53203  0.45209  0.41021  Biso   1.000  H
  C43      1.0000 0.43853  0.41968  0.47242  Biso   1.000  C
  H40      1.0000 0.67844  0.31510  0.41752  Biso   1.000  H
  H41      1.0000 0.65132  0.38558  0.37391  Biso   1.000  H
  C44      1.0000 0.70480  0.41092  0.47000  Biso   1.000  C
  H42      1.0000 0.68430  0.31667  0.45801  Biso   1.000  H
  C45      1.0000 0.68802  0.40450  0.38768  Biso   1.000  C
  H43      1.0000 0.67170  0.39297  0.49780  Biso   1.000  H
  C46      1.0000 0.48156  0.17887  0.38789  Biso   1.000  C
  C47      1.0000 0.10239  0.62519  0.48161  Biso   1.000  C
  H44      1.0000 0.18689  0.64722  0.55490  Biso   1.000  H
  C48      1.0000 0.00377  0.54079  0.52328  Biso   1.000  C
  H45      1.0000 0.02608  0.50201  0.62308  Biso   1.000  H
  C49      1.0000 0.46356  0.26517  0.29030  Biso   1.000  C
  H46      1.0000 0.51734  0.36268  0.30912  Biso   1.000  H
  H47      1.0000 0.40984  0.41538  0.42650  Biso   1.000  H
  H48      1.0000 0.42900  0.37481  0.50048  Biso   1.000  H
  C50      1.0000 0.40763  0.48450  0.51387  Biso   1.000  C
  H49      1.0000 0.70463  0.39112  0.51952  Biso   1.000  H
  H50      1.0000 0.68279  0.46063  0.47177  Biso   1.000  H
  C51      1.0000 0.78843  0.41478  0.44279  Biso   1.000  C
  H51      1.0000 0.66880  0.37938  0.34402  Biso   1.000  H
  H52      1.0000 0.66723  0.45470  0.38741  Biso   1.000  H
  C52      1.0000 0.77653  0.40711  0.38601  Biso   1.000  C
  C53      1.0000 0.45438  0.19562  0.31982  Biso   1.000  C
  H53      1.0000 0.47529  0.13112  0.40660  Biso   1.000  H
  C54      1.0000 0.13590  0.66081  0.41219  Biso   1.000  C
  C55      1.0000 0.11981  0.66832  0.41510  Biso   1.000  C
  C56      1.0000 0.03461  0.58413  0.46849  Biso   1.000  C
  H54      1.0000 0.95505  0.51740  0.51758  Biso   1.000  H
  C57      1.0000 0.41431  0.29334  0.23040  Biso   1.000  C
  H55      1.0000 0.35199  0.47792  0.52291  Biso   1.000  H
  H56      1.0000 0.41582  0.52888  0.48591  Biso   1.000  H
  H57      1.0000 0.43510  0.48842  0.55990  Biso   1.000  H
  H58      1.0000 0.81910  0.44551  0.47521  Biso   1.000  H
  H59      1.0000 0.78901  0.43572  0.39429  Biso   1.000  H
  H60      1.0000 0.81073  0.36578  0.44150  Biso   1.000  H
  H61      1.0000 0.79372  0.43082  0.34160  Biso   1.000  H
  H62      1.0000 0.79720  0.35752  0.38789  Biso   1.000  H
  H63      1.0000 0.79540  0.43479  0.42752  Biso   1.000  H
  H64      1.0000 0.42900  0.15913  0.29240  Biso   1.000  H
  C58      1.0000 0.08078  0.62334  0.35740  Biso   1.000  C
  C59      1.0000 0.22318  0.64950  0.39719  Biso   1.000  C
  C60      1.0000 0.12190  0.74538  0.41488  Biso   1.000  C
  C61      1.0000 0.20611  0.66701  0.40112  Biso   1.000  C
  C62      1.0000 0.08450  0.74489  0.41440  Biso   1.000  C
  C63      1.0000 0.02120  0.58321  0.39058  Biso   1.000  C
  C64      1.0000 0.33504  0.27681  0.23228  Biso   1.000  C
  C65      1.0000 0.43859  0.35061  0.18561  Biso   1.000  C
  C66      1.0000 0.09977  0.61051  0.28702  Biso   1.000  C
  H65      1.0000 0.23613  0.67381  0.35122  Biso   1.000  H
  H66      1.0000 0.25309  0.67441  0.43558  Biso   1.000  H
  C67      1.0000 0.25083  0.57081  0.39300  Biso   1.000  C
  H67      1.0000 0.23189  0.69540  0.43951  Biso   1.000  H
  H68      1.0000 0.21598  0.69241  0.35509  Biso   1.000  H
  C68      1.0000 0.24473  0.59218  0.39752  Biso   1.000  C
  H69      1.0000 0.15193  0.76572  0.45569  Biso   1.000  H
  H70      1.0000 0.14281  0.76708  0.37020  Biso   1.000  H
  C69      1.0000 0.03839  0.76833  0.42289  Biso   1.000  C
  H71      1.0000 0.09472  0.76708  0.36681  Biso   1.000  H
  C70      1.0000 0.11400  0.79590  0.47177  Biso   1.000  C
  H72      1.0000 0.02753  0.74032  0.41967  Biso   1.000  H
  C71      1.0000 0.97392  0.53861  0.34869  Biso   1.000  C
  H73      1.0000 0.31773  0.23417  0.25637  Biso   1.000  H
  C72      1.0000 0.28219  0.32162  0.19965  Biso   1.000  C
  C73      1.0000 0.38579  0.39520  0.15072  Biso   1.000  C
  H74      1.0000 0.49260  0.35888  0.17911  Biso   1.000  H
  C74      1.0000 0.06150  0.55542  0.24782  Biso   1.000  C
  H75      1.0000 0.13892  0.63889  0.26449  Biso   1.000  H
  H76      1.0000 0.26082  0.55259  0.44220  Biso   1.000  H
  H77      1.0000 0.20913  0.54068  0.37171  Biso   1.000  H
  C75      1.0000 0.32429  0.56200  0.34821  Biso   1.000  C
  H78      1.0000 0.25739  0.57597  0.44688  Biso   1.000  H
  H79      1.0000 0.20750  0.55688  0.37681  Biso   1.000  H
  C76      1.0000 0.31872  0.59202  0.35230  Biso   1.000  C
  H80      1.0000 0.01609  0.74570  0.46661  Biso   1.000  H
  H81      1.0000 0.00819  0.75131  0.38090  Biso   1.000  H
  C77      1.0000 0.03229  0.85181  0.42870  Biso   1.000  C
  H82      1.0000 0.17150  0.79742  0.47000  Biso   1.000  H
  H83      1.0000 0.09861  0.77719  0.51968  Biso   1.000  H
  C78      1.0000 0.08171  0.87340  0.46209  Biso   1.000  C
  C79      1.0000 0.99431  0.52464  0.27815  Biso   1.000  C
  H84      1.0000 0.92804  0.51800  0.36837  Biso   1.000  H
  C80      1.0000 0.30629  0.38346  0.16131  Biso   1.000  C
  C81      1.0000 0.19525  0.32336  0.21373  Biso   1.000  C
  H85      1.0000 0.40333  0.43311  0.12001  Biso   1.000  H
  C82      1.0000 0.10953  0.51430  0.19491  Biso   1.000  C
  H86      1.0000 0.33899  0.51050  0.34660  Biso   1.000  H
  H87      1.0000 0.36651  0.59028  0.36988  Biso   1.000  H
  H88      1.0000 0.31483  0.57951  0.29917  Biso   1.000  H
  H89      1.0000 0.30652  0.60741  0.30320  Biso   1.000  H
  H90      1.0000 0.34061  0.54280  0.35149  Biso   1.000  H
  H91      1.0000 0.35652  0.62568  0.37337  Biso   1.000  H
  H92      1.0000 0.05482  0.87421  0.38569  Biso   1.000  H
  H93      1.0000 0.06057  0.86850  0.47139  Biso   1.000  H
  H94      1.0000 0.02491  0.87198  0.46349  Biso   1.000  H
  H95      1.0000 0.97764  0.86589  0.43279  Biso   1.000  H
  H96      1.0000 0.10088  0.90461  0.50097  Biso   1.000  H
  H97      1.0000 0.09879  0.89292  0.41569  Biso   1.000  H
  H98      1.0000 0.96243  0.49380  0.24970  Biso   1.000  H
  C83      1.0000 0.23962  0.43240  0.15292  Biso   1.000  C
  C84      1.0000 0.17533  0.39890  0.18610  Biso   1.000  C
  C85      1.0000 0.17841  0.31858  0.29546  Biso   1.000  C
  C86      1.0000 0.14879  0.26387  0.17421  Biso   1.000  C
  C87      1.0000 0.11063  0.43871  0.20545  Biso   1.000  C
  C88      1.0000 0.16981  0.54574  0.15448  Biso   1.000  C
  C89      1.0000 0.23399  0.50549  0.13297  Biso   1.000  C
  H99      1.0000 0.12190  0.32489  0.30310  Biso   1.000  H
  H100     1.0000 0.19240  0.26931  0.31251  Biso   1.000  H
  C90      1.0000 0.22179  0.37492  0.34181  Biso   1.000  C
  H101     1.0000 0.16383  0.21601  0.19432  Biso   1.000  H
  H102     1.0000 0.09292  0.27110  0.18437  Biso   1.000  H
  C91      1.0000 0.16023  0.26169  0.09291  Biso   1.000  C
  H103     1.0000 0.06690  0.41489  0.22599  Biso   1.000  H
  H104     1.0000 0.16662  0.59561  0.14157  Biso   1.000  H
  H105     1.0000 0.27371  0.52752  0.10501  Biso   1.000  H
  H106     1.0000 0.27470  0.35670  0.35219  Biso   1.000  H
  H107     1.0000 0.22690  0.42082  0.31439  Biso   1.000  H
  C92      1.0000 0.18021  0.39020  0.41241  Biso   1.000  C
  H108     1.0000 0.14211  0.30819  0.07200  Biso   1.000  H
  H109     1.0000 0.21621  0.25669  0.08221  Biso   1.000  H
  C93      1.0000 0.11650  0.19959  0.05818  Biso   1.000  C
  H110     1.0000 0.20983  0.42598  0.44010  Biso   1.000  H
  H111     1.0000 0.17568  0.34501  0.43999  Biso   1.000  H
  H112     1.0000 0.12823  0.40940  0.40241  Biso   1.000  H
  H113     1.0000 0.12568  0.20018  0.00618  Biso   1.000  H
  H114     1.0000 0.06080  0.20492  0.06759  Biso   1.000  H
  H115     1.0000 0.13479  0.15331  0.07818  Biso   1.000  H
  C94      1.0000 0.56141  0.64939  0.68561  Biso   1.000  C
  C95      1.0000 0.61421  0.60480  0.65072  Biso   1.000  C
  H116     1.0000 0.50740  0.64112  0.67911  Biso   1.000  H
  C96      1.0000 0.58569  0.70666  0.73040  Biso   1.000  C
  C97      1.0000 0.69371  0.61654  0.66131  Biso   1.000  C
  H117     1.0000 0.59672  0.56689  0.62001  Biso   1.000  H
  C98      1.0000 0.66502  0.72319  0.73228  Biso   1.000  C
  C99      1.0000 0.53650  0.73483  0.79030  Biso   1.000  C
  C100     1.0000 0.71781  0.67838  0.69965  Biso   1.000  C
  C101     1.0000 0.76044  0.56760  0.65292  Biso   1.000  C
  H118     1.0000 0.68233  0.76583  0.75637  Biso   1.000  H
  C102     1.0000 0.54562  0.80438  0.81977  Biso   1.000  C
  C103     1.0000 0.49358  0.68343  0.82971  Biso   1.000  C
  C104     1.0000 0.80481  0.67664  0.71373  Biso   1.000  C
  C105     1.0000 0.82473  0.60110  0.68610  Biso   1.000  C
  C106     1.0000 0.76601  0.49451  0.63297  Biso   1.000  C
  C107     1.0000 0.51844  0.82113  0.88789  Biso   1.000  C
  H119     1.0000 0.57100  0.84087  0.79240  Biso   1.000  H
  C108     1.0000 0.46745  0.69931  0.89730  Biso   1.000  C
  H120     1.0000 0.48272  0.63732  0.80907  Biso   1.000  H
  C109     1.0000 0.82159  0.68142  0.79546  Biso   1.000  C
  C110     1.0000 0.85121  0.73613  0.67421  Biso   1.000  C
  C111     1.0000 0.88937  0.56129  0.70545  Biso   1.000  C
  H121     1.0000 0.72629  0.47248  0.60501  Biso   1.000  H
  C112     1.0000 0.83025  0.45426  0.65448  Biso   1.000  C
  C113     1.0000 0.48185  0.76762  0.92881  Biso   1.000  C
  H122     1.0000 0.52471  0.86888  0.90660  Biso   1.000  H
  C114     1.0000 0.43069  0.64673  0.95129  Biso   1.000  C
  H123     1.0000 0.87810  0.67511  0.80310  Biso   1.000  H
  H124     1.0000 0.80760  0.73069  0.81251  Biso   1.000  H
  C115     1.0000 0.77821  0.62508  0.84181  Biso   1.000  C
  H125     1.0000 0.83623  0.78399  0.69427  Biso   1.000  H
  H126     1.0000 0.90714  0.72890  0.68437  Biso   1.000  H
  C116     1.0000 0.83983  0.73831  0.59291  Biso   1.000  C
  C117     1.0000 0.89053  0.48570  0.69491  Biso   1.000  C
  H127     1.0000 0.93310  0.58511  0.72599  Biso   1.000  H
  H128     1.0000 0.83344  0.40439  0.64157  Biso   1.000  H
  C118     1.0000 0.46472  0.76202  0.00591  Biso   1.000  C
  C119     1.0000 0.47453  0.57418  0.95629  Biso   1.000  C
  C120     1.0000 0.34619  0.63650  0.92241  Biso   1.000  C
  C121     1.0000 0.34172  0.63541  0.95430  Biso   1.000  C
  C122     1.0000 0.44015  0.69105  0.02059  Biso   1.000  C
  H129     1.0000 0.72530  0.64330  0.85219  Biso   1.000  H
  H130     1.0000 0.77310  0.57918  0.81439  Biso   1.000  H
  C123     1.0000 0.81979  0.60980  0.91241  Biso   1.000  C
  H131     1.0000 0.85795  0.69181  0.57200  Biso   1.000  H
  H132     1.0000 0.78384  0.74331  0.58221  Biso   1.000  H
  C124     1.0000 0.88350  0.80041  0.55818  Biso   1.000  C
  C125     1.0000 0.93850  0.44458  0.74782  Biso   1.000  C
  C126     1.0000 0.48272  0.80846  0.06350  Biso   1.000  C
  H133     1.0000 0.45008  0.54432  0.99441  Biso   1.000  H
  H134     1.0000 0.46803  0.54791  0.91021  Biso   1.000  H
  C127     1.0000 0.56153  0.58032  0.97236  Biso   1.000  C
  H135     1.0000 0.32162  0.68490  0.91746  Biso   1.000  H
  H136     1.0000 0.34868  0.61442  0.87391  Biso   1.000  H
  C128     1.0000 0.29520  0.58908  0.97000  Biso   1.000  C
  H137     1.0000 0.31570  0.68333  0.95801  Biso   1.000  H
  C129     1.0000 0.31198  0.59550  0.88768  Biso   1.000  C
  H138     1.0000 0.32830  0.60703  0.99780  Biso   1.000  H
  C130     1.0000 0.44439  0.66407  0.08947  Biso   1.000  C
  H139     1.0000 0.79023  0.57402  0.94010  Biso   1.000  H
  H140     1.0000 0.82432  0.65499  0.93999  Biso   1.000  H
  H141     1.0000 0.87183  0.59060  0.90241  Biso   1.000  H
  H142     1.0000 0.87432  0.79982  0.50618  Biso   1.000  H
  H143     1.0000 0.93920  0.79508  0.56759  Biso   1.000  H
  H144     1.0000 0.86521  0.84669  0.57818  Biso   1.000  H
  C131     1.0000 0.90023  0.38949  0.78702  Biso   1.000  C
  C132     1.0000 0.00569  0.47536  0.77815  Biso   1.000  C
  H145     1.0000 0.49091  0.85888  0.05538  Biso   1.000  H
  C133     1.0000 0.48853  0.77997  0.13227  Biso   1.000  C
  H146     1.0000 0.59022  0.58462  0.92650  Biso   1.000  H
  H147     1.0000 0.57100  0.62519  0.00048  Biso   1.000  H
  C134     1.0000 0.59243  0.51550  0.01393  Biso   1.000  C
  H148     1.0000 0.31721  0.53937  0.97177  Biso   1.000  H
  C135     1.0000 0.21163  0.58522  0.94279  Biso   1.000  C
  H149     1.0000 0.29543  0.60888  0.01952  Biso   1.000  H
  H150     1.0000 0.33120  0.62062  0.84396  Biso   1.000  H
  H151     1.0000 0.33283  0.54530  0.88741  Biso   1.000  H
  C136     1.0000 0.22353  0.59289  0.88601  Biso   1.000  C
  C137     1.0000 0.47552  0.70584  0.14582  Biso   1.000  C
  H152     1.0000 0.42592  0.61638  0.09910  Biso   1.000  H
  H153     1.0000 0.86114  0.36111  0.76449  Biso   1.000  H
  C138     1.0000 0.91922  0.37666  0.85740  Biso   1.000  C
  C139     1.0000 0.02608  0.46139  0.84869  Biso   1.000  C
  H154     1.0000 0.03757  0.50620  0.74970  Biso   1.000  H
  H155     1.0000 0.50142  0.81129  0.17109  Biso   1.000  H
  H156     1.0000 0.58424  0.47112  0.98586  Biso   1.000  H
  H157     1.0000 0.64801  0.52208  0.02291  Biso   1.000  H
  H158     1.0000 0.56490  0.51158  0.05990  Biso   1.000  H
  H159     1.0000 0.18090  0.55449  0.97516  Biso   1.000  H
  H160     1.0000 0.21099  0.56428  0.89429  Biso   1.000  H
  H161     1.0000 0.18933  0.63422  0.94150  Biso   1.000  H
  H162     1.0000 0.20628  0.56918  0.84160  Biso   1.000  H
  H163     1.0000 0.20280  0.64248  0.88789  Biso   1.000  H
  H164     1.0000 0.20460  0.56521  0.92747  Biso   1.000  H
  C140     1.0000 0.51763  0.66440  0.20298  Biso   1.000  C
  C141     1.0000 0.97880  0.41679  0.89058  Biso   1.000  C
  C142     1.0000 0.86410  0.33919  0.91219  Biso   1.000  C
  C143     1.0000 0.88025  0.33168  0.91510  Biso   1.000  C
  H165     1.0000 0.07201  0.48200  0.86837  Biso   1.000  H
  C144     1.0000 0.49480  0.59430  0.22379  Biso   1.000  C
  C145     1.0000 0.59562  0.68414  0.21427  Biso   1.000  C
  C146     1.0000 0.96545  0.41587  0.96849  Biso   1.000  C
  C147     1.0000 0.89761  0.37481  0.98161  Biso   1.000  C
  C148     1.0000 0.77682  0.35050  0.89719  Biso   1.000  C
  C149     1.0000 0.87810  0.25462  0.91488  Biso   1.000  C
  C150     1.0000 0.79389  0.33299  0.90106  Biso   1.000  C
  C151     1.0000 0.91550  0.25511  0.91440  Biso   1.000  C
  C152     1.0000 0.54939  0.54188  0.24250  Biso   1.000  C
  H166     1.0000 0.44108  0.58239  0.22508  Biso   1.000  H
  C153     1.0000 0.65108  0.63117  0.23089  Biso   1.000  C
  H167     1.0000 0.61060  0.73369  0.21072  Biso   1.000  H
  C154     1.0000 0.99623  0.45921  0.02328  Biso   1.000  C
  C155     1.0000 0.85760  0.38193  0.04581  Biso   1.000  C
  H168     1.0000 0.76392  0.32619  0.85117  Biso   1.000  H
  H169     1.0000 0.74691  0.32559  0.93558  Biso   1.000  H
  C156     1.0000 0.74923  0.42919  0.89300  Biso   1.000  C
  H170     1.0000 0.76811  0.30460  0.93951  Biso   1.000  H
  H171     1.0000 0.78402  0.30759  0.85509  Biso   1.000  H
  C157     1.0000 0.75533  0.40782  0.89746  Biso   1.000  C
  H172     1.0000 0.84813  0.23428  0.95569  Biso   1.000  H
  H173     1.0000 0.85719  0.23292  0.87020  Biso   1.000  H
  C158     1.0000 0.96161  0.23167  0.92289  Biso   1.000  C
  H174     1.0000 0.90534  0.23292  0.86676  Biso   1.000  H
  C159     1.0000 0.88600  0.20410  0.97177  Biso   1.000  C
  H175     1.0000 0.97253  0.25968  0.91967  Biso   1.000  H
  C160     1.0000 0.62843  0.55873  0.23895  Biso   1.000  C
  H176     1.0000 0.53302  0.49500  0.25761  Biso   1.000  H
  C161     1.0000 0.73884  0.63590  0.22379  Biso   1.000  C
  C162     1.0000 0.73843  0.64210  0.21147  Biso   1.000  C
  C163     1.0000 0.95395  0.46742  0.08630  Biso   1.000  C
  H177     1.0000 0.04501  0.48260  0.01758  Biso   1.000  H
  C164     1.0000 0.88280  0.43224  0.09743  Biso   1.000  C
  H178     1.0000 0.81311  0.35278  0.05490  Biso   1.000  H
  H179     1.0000 0.73924  0.44741  0.94220  Biso   1.000  H
  H180     1.0000 0.79093  0.45932  0.87171  Biso   1.000  H
  C165     1.0000 0.67571  0.43800  0.84821  Biso   1.000  C
  H181     1.0000 0.74261  0.42403  0.94688  Biso   1.000  H
  H182     1.0000 0.79250  0.44312  0.87676  Biso   1.000  H
  C166     1.0000 0.68134  0.40798  0.85230  Biso   1.000  C
  H183     1.0000 0.98391  0.25430  0.96661  Biso   1.000  H
  H184     1.0000 0.99181  0.24869  0.88090  Biso   1.000  H
  C167     1.0000 0.96771  0.14819  0.92870  Biso   1.000  C
  H185     1.0000 0.82850  0.20258  0.97000  Biso   1.000  H
  C168     1.0000 0.91835  0.12660  0.96209  Biso   1.000  C
  H186     1.0000 0.90145  0.22281  0.01968  Biso   1.000  H
  C169     1.0000 0.69621  0.51273  0.22449  Biso   1.000  C
  C170     1.0000 0.75841  0.55846  0.20561  Biso   1.000  C
  C171     1.0000 0.76085  0.68871  0.16378  Biso   1.000  C
  C172     1.0000 0.77984  0.65831  0.29487  Biso   1.000  C
  C173     1.0000 0.78681  0.67501  0.27492  Biso   1.000  C
  C174     1.0000 0.75411  0.69029  0.14351  Biso   1.000  C
  H187     1.0000 0.97392  0.49799  0.12308  Biso   1.000  H
  C175     1.0000 0.82688  0.45666  0.15330  Biso   1.000  C
  H188     1.0000 0.66101  0.48950  0.84660  Biso   1.000  H
  H189     1.0000 0.63349  0.40972  0.86988  Biso   1.000  H
  H190     1.0000 0.68523  0.42049  0.79917  Biso   1.000  H
  H191     1.0000 0.69354  0.39259  0.80320  Biso   1.000  H
  H192     1.0000 0.65939  0.45720  0.85149  Biso   1.000  H
  H193     1.0000 0.64353  0.37432  0.87337  Biso   1.000  H
  H194     1.0000 0.94523  0.12579  0.88569  Biso   1.000  H
  H195     1.0000 0.93943  0.13150  0.97139  Biso   1.000  H
  H196     1.0000 0.97514  0.12802  0.96349  Biso   1.000  H
  H197     1.0000 0.02242  0.13411  0.93279  Biso   1.000  H
  H198     1.0000 0.90121  0.10708  0.91569  Biso   1.000  H
  H199     1.0000 0.89912  0.09539  0.00102  Biso   1.000  H
  C176     1.0000 0.70242  0.43789  0.21470  Biso   1.000  C
  C177     1.0000 0.82310  0.53056  0.17050  Biso   1.000  C
  H200     1.0000 0.81822  0.69061  0.16039  Biso   1.000  H
  H201     1.0000 0.74261  0.73793  0.17728  Biso   1.000  H
  C178     1.0000 0.72821  0.67022  0.08942  Biso   1.000  C
  H202     1.0000 0.73953  0.74108  0.15469  Biso   1.000  H
  H203     1.0000 0.81050  0.68958  0.13308  Biso   1.000  H
  H204     1.0000 0.83640  0.66010  0.28578  Biso   1.000  H
  H205     1.0000 0.76294  0.70829  0.30718  Biso   1.000  H
  C179     1.0000 0.76625  0.61072  0.35961  Biso   1.000  C
  H206     1.0000 0.84209  0.67691  0.26019  Biso   1.000  H
  H207     1.0000 0.76944  0.72569  0.28309  Biso   1.000  H
  C180     1.0000 0.78100  0.63400  0.34450  Biso   1.000  C
  C181     1.0000 0.71102  0.66701  0.07732  Biso   1.000  C
  C182     1.0000 0.76799  0.41081  0.17911  Biso   1.000  C
  H208     1.0000 0.66310  0.40603  0.23180  Biso   1.000  H
  H209     1.0000 0.86492  0.56178  0.15819  Biso   1.000  H
  H210     1.0000 0.76381  0.63569  0.06522  Biso   1.000  H
  H211     1.0000 0.67739  0.64569  0.09528  Biso   1.000  H
  C183     1.0000 0.71752  0.73700  0.04172  Biso   1.000  C
  H212     1.0000 0.65794  0.65282  0.09092  Biso   1.000  H
  H213     1.0000 0.73733  0.62350  0.05700  Biso   1.000  H
  C184     1.0000 0.70701  0.72602  0.01871  Biso   1.000  C
  H214     1.0000 0.78419  0.56080  0.34859  Biso   1.000  H
  H215     1.0000 0.70980  0.60839  0.36950  Biso   1.000  H
  C185     1.0000 0.80841  0.63841  0.42709  Biso   1.000  C
  H216     1.0000 0.79552  0.58272  0.33590  Biso   1.000  H
  H217     1.0000 0.72629  0.63482  0.36090  Biso   1.000  H
  C186     1.0000 0.83292  0.66489  0.40488  Biso   1.000  C
  H218     1.0000 0.77281  0.35980  0.17222  Biso   1.000  H
  H219     1.0000 0.69673  0.72199  0.99500  Biso   1.000  H
  H220     1.0000 0.76770  0.76109  0.03479  Biso   1.000  H
  H221     1.0000 0.68122  0.77077  0.06468  Biso   1.000  H
  H222     1.0000 0.75963  0.74168  0.00591  Biso   1.000  H
  H223     1.0000 0.67739  0.76778  0.03678  Biso   1.000  H
  H224     1.0000 0.68111  0.70628  0.97597  Biso   1.000  H
  H225     1.0000 0.79743  0.60588  0.46747  Biso   1.000  H
  H226     1.0000 0.79023  0.68762  0.43860  Biso   1.000  H
  H227     1.0000 0.86439  0.63949  0.41811  Biso   1.000  H
  H228     1.0000 0.82583  0.63612  0.44870  Biso   1.000  H
  H229     1.0000 0.81840  0.71558  0.41429  Biso   1.000  H
  H230     1.0000 0.88739  0.66271  0.38988  Biso   1.000  H
  C187     1.0000 0.38353  0.69959  0.55818  Biso   1.000  C
  C188     1.0000 0.33980  0.76169  0.59291  Biso   1.000  C
  H231     1.0000 0.37430  0.70018  0.50618  Biso   1.000  H
  H232     1.0000 0.43922  0.70492  0.56759  Biso   1.000  H
  H233     1.0000 0.36524  0.65331  0.57818  Biso   1.000  H
  C189     1.0000 0.35118  0.76387  0.67421  Biso   1.000  C
  H234     1.0000 0.35792  0.80819  0.57200  Biso   1.000  H
  H235     1.0000 0.28381  0.75669  0.58221  Biso   1.000  H
  C190     1.0000 0.30478  0.82336  0.71373  Biso   1.000  C
  H236     1.0000 0.33620  0.71601  0.69427  Biso   1.000  H
  H237     1.0000 0.40711  0.77110  0.68437  Biso   1.000  H
  C191     1.0000 0.21784  0.82162  0.69965  Biso   1.000  C
  C192     1.0000 0.32470  0.89890  0.68610  Biso   1.000  C
  C193     1.0000 0.32162  0.81858  0.79546  Biso   1.000  C
  C194     1.0000 0.19368  0.88346  0.66131  Biso   1.000  C
  C195     1.0000 0.16499  0.77681  0.73228  Biso   1.000  C
  C196     1.0000 0.26041  0.93240  0.65292  Biso   1.000  C
  C197     1.0000 0.38934  0.93871  0.70545  Biso   1.000  C
  H238     1.0000 0.37813  0.82489  0.80310  Biso   1.000  H
  H239     1.0000 0.30763  0.76931  0.81251  Biso   1.000  H
  C198     1.0000 0.27818  0.87492  0.84181  Biso   1.000  C
  C199     1.0000 0.11418  0.89520  0.65072  Biso   1.000  C
  C200     1.0000 0.08566  0.79334  0.73040  Biso   1.000  C
  H240     1.0000 0.18230  0.73417  0.75637  Biso   1.000  H
  C201     1.0000 0.26599  0.00549  0.63297  Biso   1.000  C
  H241     1.0000 0.43313  0.91489  0.72599  Biso   1.000  H
  C202     1.0000 0.39050  0.01430  0.69491  Biso   1.000  C
  H242     1.0000 0.22533  0.85670  0.85219  Biso   1.000  H
  H243     1.0000 0.27313  0.92082  0.81439  Biso   1.000  H
  C203     1.0000 0.31982  0.89020  0.91241  Biso   1.000  C
  H244     1.0000 0.09670  0.93311  0.62001  Biso   1.000  H
  C204     1.0000 0.06139  0.85061  0.68561  Biso   1.000  C
  C205     1.0000 0.03647  0.76517  0.79030  Biso   1.000  C
  H245     1.0000 0.22632  0.02752  0.60501  Biso   1.000  H
  C206     1.0000 0.33022  0.04574  0.65448  Biso   1.000  C
  C207     1.0000 0.43853  0.05542  0.74782  Biso   1.000  C
  H246     1.0000 0.29020  0.92598  0.94010  Biso   1.000  H
  H247     1.0000 0.32429  0.84501  0.93999  Biso   1.000  H
  H248     1.0000 0.37180  0.90940  0.90241  Biso   1.000  H
  H249     1.0000 0.00738  0.85888  0.67911  Biso   1.000  H
  C208     1.0000 0.04559  0.69562  0.81977  Biso   1.000  C
  C209     1.0000 0.99361  0.81657  0.82971  Biso   1.000  C
  H250     1.0000 0.33341  0.09561  0.64157  Biso   1.000  H
  C210     1.0000 0.50572  0.02464  0.77815  Biso   1.000  C
  C211     1.0000 0.40020  0.11051  0.78702  Biso   1.000  C
  C212     1.0000 0.01841  0.67887  0.88789  Biso   1.000  C
  H251     1.0000 0.07103  0.65913  0.79240  Biso   1.000  H
  C213     1.0000 0.96748  0.80069  0.89730  Biso   1.000  C
  H252     1.0000 0.98275  0.86268  0.80907  Biso   1.000  H
  H253     1.0000 0.53760  0.99380  0.74970  Biso   1.000  H
  C214     1.0000 0.52610  0.03861  0.84869  Biso   1.000  C
  H254     1.0000 0.36111  0.13889  0.76449  Biso   1.000  H
  C215     1.0000 0.41919  0.12334  0.85740  Biso   1.000  C
  H255     1.0000 0.02468  0.63112  0.90660  Biso   1.000  H
  C216     1.0000 0.98188  0.73238  0.92881  Biso   1.000  C
  C217     1.0000 0.93072  0.85327  0.95129  Biso   1.000  C
  C218     1.0000 0.47883  0.08321  0.89058  Biso   1.000  C
  H256     1.0000 0.57198  0.01800  0.86837  Biso   1.000  H
  C219     1.0000 0.36413  0.16081  0.91219  Biso   1.000  C
  C220     1.0000 0.38022  0.16832  0.91510  Biso   1.000  C
  C221     1.0000 0.96469  0.73798  0.00591  Biso   1.000  C
  C222     1.0000 0.97450  0.92582  0.95629  Biso   1.000  C
  C223     1.0000 0.84622  0.86350  0.92241  Biso   1.000  C
  C224     1.0000 0.84174  0.86459  0.95430  Biso   1.000  C
  C225     1.0000 0.94012  0.80895  0.02059  Biso   1.000  C
  C226     1.0000 0.46542  0.08413  0.96849  Biso   1.000  C
  C227     1.0000 0.39758  0.12519  0.98161  Biso   1.000  C
  C228     1.0000 0.27679  0.14950  0.89719  Biso   1.000  C
  C229     1.0000 0.37813  0.24538  0.91488  Biso   1.000  C
  C230     1.0000 0.29392  0.16701  0.90106  Biso   1.000  C
  C231     1.0000 0.41553  0.24489  0.91440  Biso   1.000  C
  C232     1.0000 0.98275  0.69154  0.06350  Biso   1.000  C
  C233     1.0000 0.06150  0.91968  0.97236  Biso   1.000  C
  H257     1.0000 0.95011  0.95568  0.99441  Biso   1.000  H
  H258     1.0000 0.96800  0.95209  0.91021  Biso   1.000  H
  H259     1.0000 0.82159  0.81510  0.91746  Biso   1.000  H
  H260     1.0000 0.84871  0.88558  0.87391  Biso   1.000  H
  C234     1.0000 0.79523  0.91092  0.97000  Biso   1.000  C
  H261     1.0000 0.81573  0.81667  0.95801  Biso   1.000  H
  C235     1.0000 0.81201  0.90450  0.88768  Biso   1.000  C
  H262     1.0000 0.82833  0.89297  0.99780  Biso   1.000  H
  C236     1.0000 0.94436  0.83593  0.08947  Biso   1.000  C
  C237     1.0000 0.49620  0.04079  0.02328  Biso   1.000  C
  C238     1.0000 0.35763  0.11807  0.04581  Biso   1.000  C
  H263     1.0000 0.26389  0.17381  0.85117  Biso   1.000  H
  H264     1.0000 0.24688  0.17441  0.93558  Biso   1.000  H
  C239     1.0000 0.24920  0.07081  0.89300  Biso   1.000  C
  H265     1.0000 0.26813  0.19540  0.93951  Biso   1.000  H
  H266     1.0000 0.28399  0.19241  0.85509  Biso   1.000  H
  C240     1.0000 0.25530  0.09218  0.89746  Biso   1.000  C
  H267     1.0000 0.34810  0.26572  0.95569  Biso   1.000  H
  H268     1.0000 0.35722  0.26708  0.87020  Biso   1.000  H
  C241     1.0000 0.46158  0.26833  0.92289  Biso   1.000  C
  H269     1.0000 0.40531  0.26708  0.86676  Biso   1.000  H
  C242     1.0000 0.38603  0.29590  0.97177  Biso   1.000  C
  H270     1.0000 0.47250  0.24032  0.91967  Biso   1.000  H
  H271     1.0000 0.99094  0.64112  0.05538  Biso   1.000  H
  C243     1.0000 0.98850  0.72003  0.13227  Biso   1.000  C
  H272     1.0000 0.09019  0.91538  0.92650  Biso   1.000  H
  H273     1.0000 0.07103  0.87481  0.00048  Biso   1.000  H
  C244     1.0000 0.09240  0.98450  0.01393  Biso   1.000  C
  H274     1.0000 0.81724  0.96063  0.97177  Biso   1.000  H
  C245     1.0000 0.71160  0.91478  0.94279  Biso   1.000  C
  H275     1.0000 0.79540  0.89112  0.01952  Biso   1.000  H
  H276     1.0000 0.83123  0.87938  0.84396  Biso   1.000  H
  H277     1.0000 0.83280  0.95470  0.88741  Biso   1.000  H
  C246     1.0000 0.72350  0.90711  0.88601  Biso   1.000  C
  C247     1.0000 0.97555  0.79416  0.14582  Biso   1.000  C
  H278     1.0000 0.92590  0.88362  0.09910  Biso   1.000  H
  H279     1.0000 0.54504  0.01740  0.01758  Biso   1.000  H
  C248     1.0000 0.45392  0.03258  0.08630  Biso   1.000  C
  C249     1.0000 0.38283  0.06776  0.09743  Biso   1.000  C
  H280     1.0000 0.31308  0.14722  0.05490  Biso   1.000  H
  H281     1.0000 0.23921  0.05259  0.94220  Biso   1.000  H
  H282     1.0000 0.29090  0.04068  0.87171  Biso   1.000  H
  C250     1.0000 0.17568  0.06200  0.84821  Biso   1.000  C
  H283     1.0000 0.24258  0.07597  0.94688  Biso   1.000  H
  H284     1.0000 0.29253  0.05688  0.87676  Biso   1.000  H
  C251     1.0000 0.18131  0.09202  0.85230  Biso   1.000  C
  H285     1.0000 0.48388  0.24570  0.96661  Biso   1.000  H
  H286     1.0000 0.49184  0.25131  0.88090  Biso   1.000  H
  C252     1.0000 0.46774  0.35181  0.92870  Biso   1.000  C
  H287     1.0000 0.32853  0.29742  0.97000  Biso   1.000  H
  C253     1.0000 0.41832  0.37340  0.96209  Biso   1.000  C
  H288     1.0000 0.40142  0.27719  0.01968  Biso   1.000  H
  H289     1.0000 0.00139  0.68871  0.17109  Biso   1.000  H
  H290     1.0000 0.14798  0.97792  0.02291  Biso   1.000  H
  H291     1.0000 0.06493  0.98842  0.05990  Biso   1.000  H
  H292     1.0000 0.08421  0.02888  0.98586  Biso   1.000  H
  H293     1.0000 0.68093  0.94551  0.97516  Biso   1.000  H
  H294     1.0000 0.71102  0.93572  0.89429  Biso   1.000  H
  H295     1.0000 0.68930  0.86578  0.94150  Biso   1.000  H
  H296     1.0000 0.70631  0.93082  0.84160  Biso   1.000  H
  H297     1.0000 0.70283  0.85752  0.88789  Biso   1.000  H
  H298     1.0000 0.70463  0.93479  0.92747  Biso   1.000  H
  C254     1.0000 0.01760  0.83560  0.20298  Biso   1.000  C
  H299     1.0000 0.47390  0.00201  0.12308  Biso   1.000  H
  C255     1.0000 0.32685  0.04334  0.15330  Biso   1.000  C
  H300     1.0000 0.16098  0.01050  0.84660  Biso   1.000  H
  H301     1.0000 0.13352  0.09028  0.86988  Biso   1.000  H
  H302     1.0000 0.18520  0.07951  0.79917  Biso   1.000  H
  H303     1.0000 0.19351  0.10741  0.80320  Biso   1.000  H
  H304     1.0000 0.15942  0.04280  0.85149  Biso   1.000  H
  H305     1.0000 0.14350  0.12568  0.87337  Biso   1.000  H
  H306     1.0000 0.52239  0.36589  0.93279  Biso   1.000  H
  H307     1.0000 0.44521  0.37421  0.88569  Biso   1.000  H
  H308     1.0000 0.43940  0.36850  0.97139  Biso   1.000  H
  H309     1.0000 0.47511  0.37198  0.96349  Biso   1.000  H
  H310     1.0000 0.40118  0.39292  0.91569  Biso   1.000  H
  H311     1.0000 0.39909  0.40461  0.00102  Biso   1.000  H
  C256     1.0000 0.99483  0.90570  0.22379  Biso   1.000  C
  C257     1.0000 0.09559  0.81586  0.21427  Biso   1.000  C
  C258     1.0000 0.32313  0.96944  0.17050  Biso   1.000  C
  C259     1.0000 0.26802  0.08919  0.17911  Biso   1.000  C
  H312     1.0000 0.94111  0.91761  0.22508  Biso   1.000  H
  C260     1.0000 0.04942  0.95812  0.24250  Biso   1.000  C
  C261     1.0000 0.15111  0.86883  0.23089  Biso   1.000  C
  H313     1.0000 0.11058  0.76631  0.21072  Biso   1.000  H
  H314     1.0000 0.36489  0.93822  0.15819  Biso   1.000  H
  C262     1.0000 0.25838  0.94154  0.20561  Biso   1.000  C
  C263     1.0000 0.20239  0.06211  0.21470  Biso   1.000  C
  H315     1.0000 0.27278  0.14020  0.17222  Biso   1.000  H
  C264     1.0000 0.12840  0.94127  0.23895  Biso   1.000  C
  H316     1.0000 0.03299  0.00500  0.25761  Biso   1.000  H
  C265     1.0000 0.23881  0.86410  0.22379  Biso   1.000  C
  C266     1.0000 0.23840  0.85790  0.21147  Biso   1.000  C
  C267     1.0000 0.19618  0.98727  0.22449  Biso   1.000  C
  H317     1.0000 0.16308  0.09397  0.23180  Biso   1.000  H
  C268     1.0000 0.26082  0.81129  0.16378  Biso   1.000  C
  C269     1.0000 0.27981  0.84169  0.29487  Biso   1.000  C
  C270     1.0000 0.28683  0.82499  0.27492  Biso   1.000  C
  C271     1.0000 0.25408  0.80971  0.14351  Biso   1.000  C
  H318     1.0000 0.31820  0.80939  0.16039  Biso   1.000  H
  H319     1.0000 0.24258  0.76207  0.17728  Biso   1.000  H
  C272     1.0000 0.22818  0.82978  0.08942  Biso   1.000  C
  H320     1.0000 0.23950  0.75892  0.15469  Biso   1.000  H
  H321     1.0000 0.31053  0.81042  0.13308  Biso   1.000  H
  H322     1.0000 0.33643  0.83990  0.28578  Biso   1.000  H
  H323     1.0000 0.26291  0.79171  0.30718  Biso   1.000  H
  C273     1.0000 0.26622  0.88928  0.35961  Biso   1.000  C
  H324     1.0000 0.34212  0.82309  0.26019  Biso   1.000  H
  H325     1.0000 0.26941  0.77431  0.28309  Biso   1.000  H
  C274     1.0000 0.28103  0.86600  0.34450  Biso   1.000  C
  C275     1.0000 0.21099  0.83299  0.07732  Biso   1.000  C
  H326     1.0000 0.26378  0.86431  0.06522  Biso   1.000  H
  H327     1.0000 0.17742  0.85431  0.09528  Biso   1.000  H
  C276     1.0000 0.21749  0.76300  0.04172  Biso   1.000  C
  H328     1.0000 0.15791  0.84718  0.09092  Biso   1.000  H
  H329     1.0000 0.23730  0.87650  0.05700  Biso   1.000  H
  C277     1.0000 0.20698  0.77398  0.01871  Biso   1.000  C
  H330     1.0000 0.28422  0.93920  0.34859  Biso   1.000  H
  H331     1.0000 0.20983  0.89161  0.36950  Biso   1.000  H
  C278     1.0000 0.30838  0.86159  0.42709  Biso   1.000  C
  H332     1.0000 0.29549  0.91728  0.33590  Biso   1.000  H
  H333     1.0000 0.22632  0.86518  0.36090  Biso   1.000  H
  C279     1.0000 0.33289  0.83511  0.40488  Biso   1.000  C
  H334     1.0000 0.19670  0.77801  0.99500  Biso   1.000  H
  H335     1.0000 0.26773  0.73891  0.03479  Biso   1.000  H
  H336     1.0000 0.18120  0.72923  0.06468  Biso   1.000  H
  H337     1.0000 0.25960  0.75832  0.00591  Biso   1.000  H
  H338     1.0000 0.17742  0.73222  0.03678  Biso   1.000  H
  H339     1.0000 0.18108  0.79372  0.97597  Biso   1.000  H
  H340     1.0000 0.29740  0.89412  0.46747  Biso   1.000  H
  H341     1.0000 0.29020  0.81238  0.43860  Biso   1.000  H
  H342     1.0000 0.36442  0.86051  0.41811  Biso   1.000  H
  H343     1.0000 0.32580  0.86388  0.44870  Biso   1.000  H
  H344     1.0000 0.31843  0.78442  0.41429  Biso   1.000  H
  H345     1.0000 0.38742  0.83729  0.38988  Biso   1.000  H
  C280     1.0000 0.71322  0.17501  0.77487  Biso   1.000  C
  C281     1.0000 0.76119  0.13590  0.72379  Biso   1.000  C
  C282     1.0000 0.76160  0.14210  0.71147  Biso   1.000  C
  H346     1.0000 0.66363  0.16010  0.78578  Biso   1.000  H
  H347     1.0000 0.73709  0.20829  0.80718  Biso   1.000  H
  H348     1.0000 0.65794  0.17691  0.76019  Biso   1.000  H
  H349     1.0000 0.73059  0.22569  0.78309  Biso   1.000  H
  C283     1.0000 0.71903  0.13400  0.84450  Biso   1.000  C
  C284     1.0000 0.84895  0.13117  0.73089  Biso   1.000  C
  C285     1.0000 0.74162  0.05846  0.70561  Biso   1.000  C
  C286     1.0000 0.73924  0.18871  0.66378  Biso   1.000  C
  C287     1.0000 0.72019  0.15831  0.79487  Biso   1.000  C
  C288     1.0000 0.74592  0.19029  0.64351  Biso   1.000  C
  C289     1.0000 0.69162  0.13841  0.92709  Biso   1.000  C
  H350     1.0000 0.70451  0.08272  0.83590  Biso   1.000  H
  H351     1.0000 0.77374  0.13482  0.86090  Biso   1.000  H
  C290     1.0000 0.66711  0.16489  0.90488  Biso   1.000  C
  C291     1.0000 0.90441  0.18414  0.71427  Biso   1.000  C
  C292     1.0000 0.87160  0.05873  0.73895  Biso   1.000  C
  C293     1.0000 0.67693  0.03056  0.67050  Biso   1.000  C
  C294     1.0000 0.80382  0.01273  0.72449  Biso   1.000  C
  H352     1.0000 0.68180  0.19061  0.66039  Biso   1.000  H
  H353     1.0000 0.75742  0.23793  0.67728  Biso   1.000  H
  C295     1.0000 0.77182  0.17022  0.58936  Biso   1.000  C
  H354     1.0000 0.76050  0.24108  0.65469  Biso   1.000  H
  H355     1.0000 0.68953  0.18958  0.63308  Biso   1.000  H
  C296     1.0000 0.73384  0.11072  0.85961  Biso   1.000  C
  C297     1.0000 0.78901  0.16701  0.57727  Biso   1.000  C
  H356     1.0000 0.70260  0.10588  0.96747  Biso   1.000  H
  H357     1.0000 0.70980  0.18762  0.93860  Biso   1.000  H
  H358     1.0000 0.63564  0.13949  0.91811  Biso   1.000  H
  H359     1.0000 0.67420  0.13612  0.94870  Biso   1.000  H
  H360     1.0000 0.68163  0.21558  0.91429  Biso   1.000  H
  H361     1.0000 0.61264  0.16271  0.88988  Biso   1.000  H
  C298     1.0000 0.98240  0.16440  0.70298  Biso   1.000  C
  H362     1.0000 0.88942  0.23369  0.71067  Biso   1.000  H
  C299     1.0000 0.95064  0.04188  0.74250  Biso   1.000  C
  C300     1.0000 0.67315  0.95666  0.65330  Biso   1.000  C
  H363     1.0000 0.63511  0.06178  0.65819  Biso   1.000  H
  C301     1.0000 0.79761  0.93789  0.71470  Biso   1.000  C
  H364     1.0000 0.73622  0.13569  0.56517  Biso   1.000  H
  H365     1.0000 0.82264  0.14569  0.59528  Biso   1.000  H
  C302     1.0000 0.78251  0.23700  0.54167  Biso   1.000  C
  H366     1.0000 0.84209  0.15282  0.59087  Biso   1.000  H
  H367     1.0000 0.76270  0.12350  0.55700  Biso   1.000  H
  C303     1.0000 0.79302  0.22602  0.51871  Biso   1.000  C
  H368     1.0000 0.71584  0.06080  0.84859  Biso   1.000  H
  H369     1.0000 0.79023  0.10839  0.86950  Biso   1.000  H
  C304     1.0000 0.02451  0.20584  0.64577  Biso   1.000  C
  C305     1.0000 0.00523  0.09430  0.72379  Biso   1.000  C
  H370     1.0000 0.96701  0.99500  0.75761  Biso   1.000  H
  C306     1.0000 0.61723  0.93224  0.59743  Biso   1.000  C
  C307     1.0000 0.73204  0.91081  0.67911  Biso   1.000  C
  H371     1.0000 0.83692  0.90603  0.73180  Biso   1.000  H
  H372     1.0000 0.80330  0.22199  0.49500  Biso   1.000  H
  H373     1.0000 0.73233  0.26109  0.53479  Biso   1.000  H
  H374     1.0000 0.81880  0.27077  0.56468  Biso   1.000  H
  H375     1.0000 0.74040  0.24168  0.50591  Biso   1.000  H
  H376     1.0000 0.82264  0.26778  0.53678  Biso   1.000  H
  H377     1.0000 0.81892  0.20628  0.47602  Biso   1.000  H
  C308     1.0000 0.05564  0.16407  0.58947  Biso   1.000  C
  C309     1.0000 0.01150  0.27997  0.63227  Biso   1.000  C
  H378     1.0000 0.05889  0.08239  0.72508  Biso   1.000  H
  C310     1.0000 0.64243  0.88193  0.54581  Biso   1.000  C
  C311     1.0000 0.54614  0.96742  0.58630  Biso   1.000  C
  H379     1.0000 0.72722  0.85980  0.67217  Biso   1.000  H
  C312     1.0000 0.05988  0.19105  0.52059  Biso   1.000  C
  H380     1.0000 0.07410  0.11638  0.59910  Biso   1.000  H
  C313     1.0000 0.01731  0.30846  0.56350  Biso   1.000  C
  H381     1.0000 0.99861  0.31129  0.67109  Biso   1.000  H
  C314     1.0000 0.60242  0.87481  0.48161  Biso   1.000  C
  H382     1.0000 0.68692  0.85278  0.55490  Biso   1.000  H
  C315     1.0000 0.50380  0.95921  0.52328  Biso   1.000  C
  H383     1.0000 0.52610  0.99799  0.62308  Biso   1.000  H
  C316     1.0000 0.06928  0.14673  0.45129  Biso   1.000  C
  C317     1.0000 0.03531  0.26202  0.50591  Biso   1.000  C
  H384     1.0000 0.00912  0.35888  0.55538  Biso   1.000  H
  C318     1.0000 0.63593  0.83919  0.41219  Biso   1.000  C
  C319     1.0000 0.61984  0.83168  0.41510  Biso   1.000  C
  C320     1.0000 0.53458  0.91587  0.46849  Biso   1.000  C
  H385     1.0000 0.45502  0.98260  0.51758  Biso   1.000  H
  C321     1.0000 0.03252  0.19931  0.39730  Biso   1.000  C
  C322     1.0000 0.02550  0.07418  0.45629  Biso   1.000  C
  C323     1.0000 0.15378  0.13650  0.42241  Biso   1.000  C
  C324     1.0000 0.15831  0.13541  0.45430  Biso   1.000  C
  C325     1.0000 0.01818  0.26762  0.42881  Biso   1.000  C
  C326     1.0000 0.58081  0.87666  0.35740  Biso   1.000  C
  C327     1.0000 0.72321  0.85050  0.39719  Biso   1.000  C
  C328     1.0000 0.62193  0.75462  0.41488  Biso   1.000  C
  C329     1.0000 0.70614  0.83299  0.40112  Biso   1.000  C
  C330     1.0000 0.58453  0.75511  0.41440  Biso   1.000  C
  C331     1.0000 0.52123  0.91679  0.39058  Biso   1.000  C
  C332     1.0000 0.00639  0.18343  0.32971  Biso   1.000  C
  C333     1.0000 0.93850  0.08032  0.47242  Biso   1.000  C
  H386     1.0000 0.04989  0.04432  0.49441  Biso   1.000  H
  H387     1.0000 0.03200  0.04791  0.41021  Biso   1.000  H
  H388     1.0000 0.17841  0.18490  0.41752  Biso   1.000  H
  H389     1.0000 0.15129  0.11442  0.37391  Biso   1.000  H
  C334     1.0000 0.20483  0.08908  0.47000  Biso   1.000  C
  H390     1.0000 0.18433  0.18333  0.45801  Biso   1.000  H
  C335     1.0000 0.18799  0.09550  0.38768  Biso   1.000  C
  H391     1.0000 0.17173  0.10703  0.49780  Biso   1.000  H
  C336     1.0000 0.98159  0.32113  0.38789  Biso   1.000  C
  C337     1.0000 0.59980  0.88949  0.28702  Biso   1.000  C
  H392     1.0000 0.73611  0.82619  0.35122  Biso   1.000  H
  H393     1.0000 0.75312  0.82559  0.43558  Biso   1.000  H
  C338     1.0000 0.75080  0.92919  0.39300  Biso   1.000  C
  H394     1.0000 0.73192  0.80460  0.43951  Biso   1.000  H
  H395     1.0000 0.71601  0.80759  0.35509  Biso   1.000  H
  C339     1.0000 0.74470  0.90782  0.39752  Biso   1.000  C
  H396     1.0000 0.65190  0.73428  0.45569  Biso   1.000  H
  H397     1.0000 0.64284  0.73292  0.37020  Biso   1.000  H
  C340     1.0000 0.53842  0.73167  0.42289  Biso   1.000  C
  H398     1.0000 0.59469  0.73292  0.36681  Biso   1.000  H
  C341     1.0000 0.61403  0.70410  0.47177  Biso   1.000  C
  H399     1.0000 0.52750  0.75968  0.41967  Biso   1.000  H
  C342     1.0000 0.47390  0.96139  0.34869  Biso   1.000  C
  C343     1.0000 0.96353  0.23483  0.29030  Biso   1.000  C
  H400     1.0000 0.01731  0.13732  0.30912  Biso   1.000  H
  H401     1.0000 0.90981  0.08462  0.42650  Biso   1.000  H
  H402     1.0000 0.92903  0.12519  0.50048  Biso   1.000  H
  C344     1.0000 0.90760  0.01550  0.51387  Biso   1.000  C
  H403     1.0000 0.20460  0.10888  0.51952  Biso   1.000  H
  H404     1.0000 0.18282  0.03937  0.47177  Biso   1.000  H
  C345     1.0000 0.28840  0.08522  0.44279  Biso   1.000  C
  H405     1.0000 0.16883  0.12062  0.34402  Biso   1.000  H
  H406     1.0000 0.16720  0.04530  0.38741  Biso   1.000  H
  C346     1.0000 0.27650  0.09289  0.38601  Biso   1.000  C
  C347     1.0000 0.95441  0.30438  0.31982  Biso   1.000  C
  H407     1.0000 0.97532  0.36888  0.40660  Biso   1.000  H
  C348     1.0000 0.56153  0.94458  0.24782  Biso   1.000  C
  H408     1.0000 0.63889  0.86111  0.26449  Biso   1.000  H
  H409     1.0000 0.76085  0.94741  0.44220  Biso   1.000  H
  H410     1.0000 0.70910  0.95932  0.37171  Biso   1.000  H
  C349     1.0000 0.82432  0.93800  0.34821  Biso   1.000  C
  H411     1.0000 0.75742  0.92403  0.44688  Biso   1.000  H
  H412     1.0000 0.70753  0.94312  0.37681  Biso   1.000  H
  C350     1.0000 0.81875  0.90798  0.35230  Biso   1.000  C
  H413     1.0000 0.51612  0.75430  0.46661  Biso   1.000  H
  H414     1.0000 0.50822  0.74869  0.38090  Biso   1.000  H
  C351     1.0000 0.53232  0.64819  0.42870  Biso   1.000  C
  H415     1.0000 0.67153  0.70258  0.47000  Biso   1.000  H
  H416     1.0000 0.59864  0.72281  0.51968  Biso   1.000  H
  C352     1.0000 0.58174  0.62660  0.46209  Biso   1.000  C
  C353     1.0000 0.49434  0.97536  0.27815  Biso   1.000  C
  H417     1.0000 0.42802  0.98200  0.36837  Biso   1.000  H
  C354     1.0000 0.91434  0.20666  0.23040  Biso   1.000  C
  H418     1.0000 0.85202  0.02208  0.52291  Biso   1.000  H
  H419     1.0000 0.93513  0.01158  0.55990  Biso   1.000  H
  H420     1.0000 0.91585  0.97112  0.48591  Biso   1.000  H
  H421     1.0000 0.31912  0.05449  0.47521  Biso   1.000  H
  H422     1.0000 0.28898  0.06428  0.39429  Biso   1.000  H
  H423     1.0000 0.31070  0.13422  0.44150  Biso   1.000  H
  H424     1.0000 0.29369  0.06918  0.34160  Biso   1.000  H
  H425     1.0000 0.29723  0.14248  0.38789  Biso   1.000  H
  H426     1.0000 0.29543  0.06521  0.42752  Biso   1.000  H
  H427     1.0000 0.92903  0.34087  0.29240  Biso   1.000  H
  C355     1.0000 0.60950  0.98570  0.19491  Biso   1.000  C
  H428     1.0000 0.83902  0.98950  0.34660  Biso   1.000  H
  H429     1.0000 0.86654  0.90972  0.36988  Biso   1.000  H
  H430     1.0000 0.81480  0.92049  0.29917  Biso   1.000  H
  H431     1.0000 0.80649  0.89259  0.30320  Biso   1.000  H
  H432     1.0000 0.84064  0.95720  0.35149  Biso   1.000  H
  H433     1.0000 0.85650  0.87432  0.37337  Biso   1.000  H
  H434     1.0000 0.47761  0.63411  0.43279  Biso   1.000  H
  H435     1.0000 0.55479  0.62579  0.38569  Biso   1.000  H
  H436     1.0000 0.56060  0.63150  0.47139  Biso   1.000  H
  H437     1.0000 0.52489  0.62802  0.46349  Biso   1.000  H
  H438     1.0000 0.60091  0.59539  0.50097  Biso   1.000  H
  H439     1.0000 0.59882  0.60708  0.41569  Biso   1.000  H
  H440     1.0000 0.46240  0.00620  0.24970  Biso   1.000  H
  C356     1.0000 0.83501  0.22319  0.23228  Biso   1.000  C
  C357     1.0000 0.93861  0.14939  0.18561  Biso   1.000  C
  C358     1.0000 0.61066  0.06129  0.20545  Biso   1.000  C
  C359     1.0000 0.66984  0.95426  0.15448  Biso   1.000  C
  C360     1.0000 0.78222  0.17838  0.19965  Biso   1.000  C
  H441     1.0000 0.81770  0.26583  0.25637  Biso   1.000  H
  C361     1.0000 0.88582  0.10480  0.15072  Biso   1.000  C
  H442     1.0000 0.99262  0.14112  0.17911  Biso   1.000  H
  C362     1.0000 0.67530  0.10110  0.18610  Biso   1.000  C
  H443     1.0000 0.56693  0.08511  0.22599  Biso   1.000  H
  C363     1.0000 0.73401  0.99451  0.13297  Biso   1.000  C
  H444     1.0000 0.66659  0.90439  0.14157  Biso   1.000  H
  C364     1.0000 0.69522  0.17664  0.21373  Biso   1.000  C
  C365     1.0000 0.80632  0.11654  0.16131  Biso   1.000  C
  H445     1.0000 0.90330  0.06689  0.12001  Biso   1.000  H
  C366     1.0000 0.73959  0.06760  0.15292  Biso   1.000  C
  H446     1.0000 0.77374  0.97248  0.10501  Biso   1.000  H
  C367     1.0000 0.64882  0.23613  0.17421  Biso   1.000  C
  C368     1.0000 0.67844  0.18142  0.29546  Biso   1.000  C
  H447     1.0000 0.66380  0.28399  0.19432  Biso   1.000  H
  H448     1.0000 0.59289  0.22890  0.18437  Biso   1.000  H
  C369     1.0000 0.66020  0.23831  0.09291  Biso   1.000  C
  H449     1.0000 0.62193  0.17511  0.30310  Biso   1.000  H
  H450     1.0000 0.69243  0.23069  0.31251  Biso   1.000  H
  C370     1.0000 0.72182  0.12508  0.34181  Biso   1.000  C
  H451     1.0000 0.64214  0.19181  0.07200  Biso   1.000  H
  H452     1.0000 0.71624  0.24331  0.08221  Biso   1.000  H
  C371     1.0000 0.61653  0.30041  0.05818  Biso   1.000  C
  H453     1.0000 0.77473  0.14330  0.35219  Biso   1.000  H
  H454     1.0000 0.72693  0.07918  0.31439  Biso   1.000  H
  C372     1.0000 0.68024  0.10980  0.41241  Biso   1.000  C
  H455     1.0000 0.62570  0.29982  0.00618  Biso   1.000  H
  H456     1.0000 0.56083  0.29508  0.06759  Biso   1.000  H
  H457     1.0000 0.63482  0.34669  0.07818  Biso   1.000  H
  H458     1.0000 0.70980  0.07402  0.44010  Biso   1.000  H
  H459     1.0000 0.67571  0.15499  0.43999  Biso   1.000  H
  H460     1.0000 0.62820  0.09060  0.40241  Biso   1.000  H
