data_image0
_cell_length_a       10.955
_cell_length_b       63.082
_cell_length_c       19.951
_cell_angle_alpha    90
_cell_angle_beta     90
_cell_angle_gamma    90

_symmetry_space_group_name_H-M    "P 1"
_symmetry_int_tables_number       1

loop_
  _symmetry_equiv_pos_as_xyz
  'x, y, z'

loop_
  _atom_site_label
  _atom_site_occupancy
  _atom_site_fract_x
  _atom_site_fract_y
  _atom_site_fract_z
  _atom_site_thermal_displace_type
  _atom_site_B_iso_or_equiv
  _atom_site_type_symbol
  C1       1.0000 0.77088  0.46043  0.45166  Biso   1.000  C
  C2       1.0000 0.80539  0.44238  0.41567  Biso   1.000  C
  H1       1.0000 0.70607  0.45959  0.48158  Biso   1.000  H
  C3       1.0000 0.83204  0.47958  0.44319  Biso   1.000  C
  C4       1.0000 0.73574  0.42247  0.42249  Biso   1.000  C
  C5       1.0000 0.90278  0.44450  0.37121  Biso   1.000  C
  C6       1.0000 0.92834  0.48118  0.39883  Biso   1.000  C
  H2       1.0000 0.80785  0.49139  0.46770  Biso   1.000  H
  C7       1.0000 0.68024  0.41671  0.48323  Biso   1.000  C
  C8       1.0000 0.71520  0.40925  0.36710  Biso   1.000  C
  C9       1.0000 0.96376  0.46351  0.36159  Biso   1.000  C
  H3       1.0000 0.92789  0.43271  0.34700  Biso   1.000  H
  H4       1.0000 0.96933  0.49401  0.39381  Biso   1.000  H
  C10      1.0000 0.60529  0.39900  0.48805  Biso   1.000  C
  H5       1.0000 0.69393  0.42491  0.52113  Biso   1.000  H
  C11      1.0000 0.64044  0.39159  0.37186  Biso   1.000  C
  H6       1.0000 0.75253  0.41240  0.32640  Biso   1.000  H
  C12      1.0000 0.06372  0.46497  0.31237  Biso   1.000  C
  C13      1.0000 0.54797  0.39380  0.55311  Biso   1.000  C
  C14      1.0000 0.58430  0.38639  0.43146  Biso   1.000  C
  H7       1.0000 0.62802  0.38310  0.33432  Biso   1.000  H
  H8       1.0000 0.08836  0.45270  0.29051  Biso   1.000  H
  N1       1.0000 0.11739  0.48213  0.29853  Biso   1.000  N
  N2       1.0000 0.46572  0.37971  0.55947  Biso   1.000  N
  H9       1.0000 0.57344  0.40110  0.59110  Biso   1.000  H
  H10      1.0000 0.53309  0.37461  0.43411  Biso   1.000  H
  C15      1.0000 0.21251  0.48199  0.24701  Biso   1.000  C
  C16      1.0000 0.41670  0.37613  0.62669  Biso   1.000  C
  C17      1.0000 0.32551  0.49353  0.27116  Biso   1.000  C
  H11      1.0000 0.18193  0.48879  0.20671  Biso   1.000  H
  H12      1.0000 0.23341  0.46750  0.23588  Biso   1.000  H
  C18      1.0000 0.42273  0.35272  0.64418  Biso   1.000  C
  H13      1.0000 0.33272  0.38090  0.62859  Biso   1.000  H
  H14      1.0000 0.46353  0.38420  0.65911  Biso   1.000  H
  N3       1.0000 0.40055  0.48039  0.31587  Biso   1.000  N
  H15      1.0000 0.37398  0.49780  0.23272  Biso   1.000  H
  H16      1.0000 0.30114  0.50629  0.29482  Biso   1.000  H
  N4       1.0000 0.54423  0.34631  0.66533  Biso   1.000  N
  H17      1.0000 0.36522  0.34970  0.67992  Biso   1.000  H
  H18      1.0000 0.39890  0.34439  0.60538  Biso   1.000  H
  C19      1.0000 0.48252  0.46688  0.27683  Biso   1.000  C
  C20      1.0000 0.46518  0.49320  0.36519  Biso   1.000  C
  C21      1.0000 0.57645  0.32470  0.64493  Biso   1.000  C
  C22      1.0000 0.56732  0.35051  0.73635  Biso   1.000  C
  C23      1.0000 0.50744  0.44580  0.31161  Biso   1.000  C
  H19      1.0000 0.55920  0.47430  0.26991  Biso   1.000  H
  H20      1.0000 0.44646  0.46421  0.23322  Biso   1.000  H
  C24      1.0000 0.38539  0.49876  0.42504  Biso   1.000  C
  H21      1.0000 0.49320  0.50620  0.34409  Biso   1.000  H
  H22      1.0000 0.53638  0.48550  0.38068  Biso   1.000  H
  C25      1.0000 0.62994  0.32450  0.57501  Biso   1.000  C
  H23      1.0000 0.50415  0.31580  0.64608  Biso   1.000  H
  H24      1.0000 0.63533  0.31890  0.67621  Biso   1.000  H
  H25      1.0000 0.56057  0.33740  0.76132  Biso   1.000  H
  H26      1.0000 0.50561  0.36020  0.75320  Biso   1.000  H
  C26      1.0000 0.69247  0.36002  0.74808  Biso   1.000  C
  N5       1.0000 0.39900  0.43271  0.30906  Biso   1.000  N
  H27      1.0000 0.57453  0.43860  0.28961  Biso   1.000  H
  H28      1.0000 0.53035  0.44831  0.35788  Biso   1.000  H
  N6       1.0000 0.37179  0.48061  0.46980  Biso   1.000  N
  H29      1.0000 0.42182  0.51049  0.44940  Biso   1.000  H
  H30      1.0000 0.30561  0.50320  0.40940  Biso   1.000  H
  H31      1.0000 0.63021  0.31010  0.55772  Biso   1.000  H
  H32      1.0000 0.57983  0.33311  0.54549  Biso   1.000  H
  N7       1.0000 0.75436  0.33277  0.57596  Biso   1.000  N
  H33      1.0000 0.71073  0.35990  0.79570  Biso   1.000  H
  H34      1.0000 0.75363  0.35149  0.72543  Biso   1.000  H
  N8       1.0000 0.69822  0.38182  0.72312  Biso   1.000  N
  C27      1.0000 0.35445  0.42587  0.36349  Biso   1.000  C
  C28      1.0000 0.26591  0.47258  0.47622  Biso   1.000  C
  C29      1.0000 0.77727  0.35004  0.54609  Biso   1.000  C
  C30      1.0000 0.79461  0.38696  0.69215  Biso   1.000  C
  C31      1.0000 0.24162  0.41314  0.36414  Biso   1.000  C
  H35      1.0000 0.39343  0.42890  0.40369  Biso   1.000  H
  C32      1.0000 0.24071  0.45576  0.52539  Biso   1.000  C
  H36      1.0000 0.20283  0.47739  0.44910  Biso   1.000  H
  C33      1.0000 0.90288  0.35876  0.54363  Biso   1.000  C
  H37      1.0000 0.71419  0.35741  0.52539  Biso   1.000  H
  H38      1.0000 0.85267  0.37649  0.68423  Biso   1.000  H
  C34      1.0000 0.81990  0.40863  0.66794  Biso   1.000  C
  C35      1.0000 0.19963  0.40347  0.42238  Biso   1.000  C
  C36      1.0000 0.17380  0.41085  0.30515  Biso   1.000  C
  C37      1.0000 0.12077  0.45125  0.54288  Biso   1.000  C
  C38      1.0000 0.33583  0.44526  0.55782  Biso   1.000  C
  C39      1.0000 0.93537  0.37244  0.49276  Biso   1.000  C
  C40      1.0000 0.99060  0.35195  0.58934  Biso   1.000  C
  C41      1.0000 0.93355  0.41257  0.63907  Biso   1.000  C
  C42      1.0000 0.73729  0.42532  0.67455  Biso   1.000  C
  C43      1.0000 0.09375  0.39121  0.42354  Biso   1.000  C
  H39      1.0000 0.24363  0.40530  0.46178  Biso   1.000  H
  C44      1.0000 0.06691  0.39927  0.30595  Biso   1.000  C
  H40      1.0000 0.20073  0.41711  0.26560  Biso   1.000  H
  C45      1.0000 0.09384  0.43684  0.59380  Biso   1.000  C
  H41      1.0000 0.05742  0.45790  0.52032  Biso   1.000  H
  C46      1.0000 0.31000  0.43092  0.60754  Biso   1.000  C
  H42      1.0000 0.41634  0.44800  0.54579  Biso   1.000  H
  H43      1.0000 0.87549  0.37740  0.46369  Biso   1.000  H
  C47      1.0000 0.05596  0.37906  0.48369  Biso   1.000  C
  H44      1.0000 0.96942  0.34281  0.62408  Biso   1.000  H
  C48      1.0000 0.10917  0.35893  0.58253  Biso   1.000  C
  H45      1.0000 0.98822  0.40140  0.63390  Biso   1.000  H
  C49      1.0000 0.96759  0.43282  0.61771  Biso   1.000  C
  C50      1.0000 0.76787  0.44525  0.65145  Biso   1.000  C
  H46      1.0000 0.66171  0.42300  0.69450  Biso   1.000  H
  C51      1.0000 0.02784  0.38948  0.36394  Biso   1.000  C
  H47      1.0000 0.02072  0.39810  0.26700  Biso   1.000  H
  C52      1.0000 0.19124  0.42657  0.62588  Biso   1.000  C
  H48      1.0000 0.37371  0.42400  0.62929  Biso   1.000  H
  C53      1.0000 0.14286  0.37210  0.53000  Biso   1.000  C
  H49      1.0000 0.16759  0.35470  0.61370  Biso   1.000  H
  C54      1.0000 0.88106  0.44905  0.62343  Biso   1.000  C
  H50      1.0000 0.71173  0.45629  0.65480  Biso   1.000  H
  H51      1.0000 0.95618  0.38160  0.36329  Biso   1.000  H
  H52      1.0000 0.17563  0.41681  0.65972  Biso   1.000  H
  H53      1.0000 0.22382  0.37630  0.52559  Biso   1.000  H
  H54      1.0000 0.90005  0.46260  0.60809  Biso   1.000  H
  C55      1.0000 0.22912  0.53957  0.54839  Biso   1.000  C
  C56      1.0000 0.16796  0.52042  0.55681  Biso   1.000  C
  C57      1.0000 0.19461  0.55762  0.58433  Biso   1.000  C
  H55      1.0000 0.29393  0.54041  0.51842  Biso   1.000  H
  H56      1.0000 0.19224  0.50861  0.53230  Biso   1.000  H
  C58      1.0000 0.07166  0.51882  0.60117  Biso   1.000  C
  C59      1.0000 0.09722  0.55550  0.62879  Biso   1.000  C
  C60      1.0000 0.26426  0.57753  0.57751  Biso   1.000  C
  C61      1.0000 0.03633  0.53649  0.63841  Biso   1.000  C
  H57      1.0000 0.03067  0.50599  0.60619  Biso   1.000  H
  H58      1.0000 0.07211  0.56729  0.65300  Biso   1.000  H
  C62      1.0000 0.31976  0.58329  0.51677  Biso   1.000  C
  C63      1.0000 0.28480  0.59075  0.63290  Biso   1.000  C
  C64      1.0000 0.93628  0.53503  0.68763  Biso   1.000  C
  H59      1.0000 0.30607  0.57509  0.47892  Biso   1.000  H
  C65      1.0000 0.39471  0.60100  0.51195  Biso   1.000  C
  C66      1.0000 0.35956  0.60841  0.62814  Biso   1.000  C
  H60      1.0000 0.24747  0.58760  0.67360  Biso   1.000  H
  H61      1.0000 0.91164  0.54730  0.70949  Biso   1.000  H
  N9       1.0000 0.88261  0.51787  0.70147  Biso   1.000  N
  C67      1.0000 0.41570  0.61361  0.56854  Biso   1.000  C
  C68      1.0000 0.45203  0.60620  0.44689  Biso   1.000  C
  H62      1.0000 0.37198  0.61690  0.66568  Biso   1.000  H
  C69      1.0000 0.78749  0.51801  0.75304  Biso   1.000  C
  H63      1.0000 0.46691  0.62539  0.56589  Biso   1.000  H
  H64      1.0000 0.42656  0.59890  0.40890  Biso   1.000  H
  N10      1.0000 0.53428  0.62029  0.44053  Biso   1.000  N
  C70      1.0000 0.67449  0.50647  0.72884  Biso   1.000  C
  H65      1.0000 0.81807  0.51121  0.79329  Biso   1.000  H
  H66      1.0000 0.76659  0.53250  0.76412  Biso   1.000  H
  C71      1.0000 0.58330  0.62387  0.37331  Biso   1.000  C
  H67      1.0000 0.62602  0.50220  0.76728  Biso   1.000  H
  H68      1.0000 0.69895  0.49371  0.70523  Biso   1.000  H
  N11      1.0000 0.59954  0.51961  0.68418  Biso   1.000  N
  H69      1.0000 0.66728  0.61910  0.37141  Biso   1.000  H
  H70      1.0000 0.53647  0.61580  0.34089  Biso   1.000  H
  C72      1.0000 0.57727  0.64728  0.35582  Biso   1.000  C
  C73      1.0000 0.53482  0.50680  0.63481  Biso   1.000  C
  C74      1.0000 0.51748  0.53312  0.72317  Biso   1.000  C
  H71      1.0000 0.63478  0.65030  0.32008  Biso   1.000  H
  H72      1.0000 0.60110  0.65561  0.39462  Biso   1.000  H
  N12      1.0000 0.45577  0.65369  0.33467  Biso   1.000  N
  C75      1.0000 0.61461  0.50124  0.57496  Biso   1.000  C
  H73      1.0000 0.50680  0.49380  0.65591  Biso   1.000  H
  H74      1.0000 0.46362  0.51450  0.61932  Biso   1.000  H
  H75      1.0000 0.44080  0.52570  0.73009  Biso   1.000  H
  H76      1.0000 0.55354  0.53579  0.76683  Biso   1.000  H
  C76      1.0000 0.49265  0.55420  0.68839  Biso   1.000  C
  C77      1.0000 0.43268  0.64949  0.26365  Biso   1.000  C
  C78      1.0000 0.42364  0.67530  0.35507  Biso   1.000  C
  H77      1.0000 0.57818  0.48951  0.55060  Biso   1.000  H
  H78      1.0000 0.69439  0.49680  0.59060  Biso   1.000  H
  N13      1.0000 0.62821  0.51939  0.53020  Biso   1.000  N
  H79      1.0000 0.42547  0.56140  0.71039  Biso   1.000  H
  H80      1.0000 0.46974  0.55169  0.64212  Biso   1.000  H
  N14      1.0000 0.60100  0.56729  0.69094  Biso   1.000  N
  H81      1.0000 0.43943  0.66260  0.23868  Biso   1.000  H
  H82      1.0000 0.49439  0.63980  0.24680  Biso   1.000  H
  C79      1.0000 0.30753  0.63998  0.25192  Biso   1.000  C
  C80      1.0000 0.37015  0.67550  0.42499  Biso   1.000  C
  H83      1.0000 0.49594  0.68420  0.35392  Biso   1.000  H
  H84      1.0000 0.36467  0.68110  0.32379  Biso   1.000  H
  C81      1.0000 0.73409  0.52742  0.52378  Biso   1.000  C
  C82      1.0000 0.64564  0.57413  0.63651  Biso   1.000  C
  H85      1.0000 0.28927  0.64010  0.20430  Biso   1.000  H
  H86      1.0000 0.24637  0.64851  0.27462  Biso   1.000  H
  N15      1.0000 0.30178  0.61818  0.27688  Biso   1.000  N
  H87      1.0000 0.36979  0.68990  0.44228  Biso   1.000  H
  H88      1.0000 0.42017  0.66689  0.45451  Biso   1.000  H
  N16      1.0000 0.24573  0.66723  0.42404  Biso   1.000  N
  C83      1.0000 0.75929  0.54424  0.47461  Biso   1.000  C
  H89      1.0000 0.79717  0.52261  0.55090  Biso   1.000  H
  H90      1.0000 0.60657  0.57110  0.59631  Biso   1.000  H
  C84      1.0000 0.75838  0.58686  0.63586  Biso   1.000  C
  C85      1.0000 0.20539  0.61304  0.30785  Biso   1.000  C
  C86      1.0000 0.22273  0.64996  0.45391  Biso   1.000  C
  C87      1.0000 0.87923  0.54875  0.45712  Biso   1.000  C
  C88      1.0000 0.66417  0.55474  0.44218  Biso   1.000  C
  C89      1.0000 0.80046  0.59653  0.57767  Biso   1.000  C
  C90      1.0000 0.82620  0.58915  0.69485  Biso   1.000  C
  H91      1.0000 0.14733  0.62351  0.31582  Biso   1.000  H
  C91      1.0000 0.18010  0.59137  0.33206  Biso   1.000  C
  C92      1.0000 0.09712  0.64124  0.45637  Biso   1.000  C
  H92      1.0000 0.28581  0.64259  0.47461  Biso   1.000  H
  C93      1.0000 0.90625  0.56316  0.40620  Biso   1.000  C
  H93      1.0000 0.94258  0.54210  0.47973  Biso   1.000  H
  H94      1.0000 0.58375  0.55200  0.45421  Biso   1.000  H
  C94      1.0000 0.69000  0.56908  0.39246  Biso   1.000  C
  H95      1.0000 0.75646  0.59470  0.53822  Biso   1.000  H
  C95      1.0000 0.90634  0.60879  0.57646  Biso   1.000  C
  C96      1.0000 0.93309  0.60073  0.69405  Biso   1.000  C
  H96      1.0000 0.79927  0.58289  0.73440  Biso   1.000  H
  C97      1.0000 0.06654  0.58743  0.36093  Biso   1.000  C
  C98      1.0000 0.26271  0.57468  0.32545  Biso   1.000  C
  C99      1.0000 0.06463  0.62756  0.50724  Biso   1.000  C
  C100     1.0000 0.00940  0.64805  0.41066  Biso   1.000  C
  C101     1.0000 0.03241  0.56718  0.38229  Biso   1.000  C
  C102     1.0000 0.80885  0.57343  0.37412  Biso   1.000  C
  H97      1.0000 0.62629  0.57600  0.37071  Biso   1.000  H
  C103     1.0000 0.97225  0.61052  0.63606  Biso   1.000  C
  C104     1.0000 0.94404  0.62094  0.51631  Biso   1.000  C
  H98      1.0000 0.97928  0.60190  0.73300  Biso   1.000  H
  H99      1.0000 0.01178  0.59860  0.36610  Biso   1.000  H
  C105     1.0000 0.23213  0.55475  0.34855  Biso   1.000  C
  H100     1.0000 0.33829  0.57700  0.30550  Biso   1.000  H
  H101     1.0000 0.12451  0.62260  0.53631  Biso   1.000  H
  H102     1.0000 0.03058  0.65719  0.37592  Biso   1.000  H
  C106     1.0000 0.89083  0.64107  0.41747  Biso   1.000  C
  C107     1.0000 0.11903  0.55095  0.37657  Biso   1.000  C
  H103     1.0000 0.82437  0.58319  0.34028  Biso   1.000  H
  H104     1.0000 0.04382  0.61840  0.63671  Biso   1.000  H
  C108     1.0000 0.85714  0.62790  0.47000  Biso   1.000  C
  H105     1.0000 0.28827  0.54371  0.34520  Biso   1.000  H
  H106     1.0000 0.83241  0.64530  0.38630  Biso   1.000  H
  H107     1.0000 0.10005  0.53740  0.39191  Biso   1.000  H
  H108     1.0000 0.77618  0.62370  0.47441  Biso   1.000  H
  C109     1.0000 0.71255  0.51801  0.25302  Biso   1.000  C
  N17      1.0000 0.61743  0.51787  0.20149  Biso   1.000  N
  C110     1.0000 0.82556  0.50647  0.22886  Biso   1.000  C
  H109     1.0000 0.68188  0.51121  0.29332  Biso   1.000  H
  H110     1.0000 0.73346  0.53250  0.26410  Biso   1.000  H
  C111     1.0000 0.56367  0.53503  0.18761  Biso   1.000  C
  H111     1.0000 0.87403  0.50220  0.26730  Biso   1.000  H
  H112     1.0000 0.80110  0.49371  0.20520  Biso   1.000  H
  N18      1.0000 0.90050  0.51961  0.18415  Biso   1.000  N
  C112     1.0000 0.46372  0.53649  0.13839  Biso   1.000  C
  H113     1.0000 0.58841  0.54730  0.20951  Biso   1.000  H
  C113     1.0000 0.96522  0.50680  0.13483  Biso   1.000  C
  C114     1.0000 0.98247  0.53312  0.22320  Biso   1.000  C
  C115     1.0000 0.42830  0.51882  0.10120  Biso   1.000  C
  C116     1.0000 0.40283  0.55550  0.12882  Biso   1.000  C
  C117     1.0000 0.88544  0.50124  0.07493  Biso   1.000  C
  H114     1.0000 0.99325  0.49380  0.15588  Biso   1.000  H
  H115     1.0000 0.03642  0.51450  0.11929  Biso   1.000  H
  H116     1.0000 0.94651  0.53579  0.26680  Biso   1.000  H
  H117     1.0000 0.05924  0.52570  0.23011  Biso   1.000  H
  C118     1.0000 0.00739  0.55420  0.18836  Biso   1.000  C
  C119     1.0000 0.33199  0.52042  0.05679  Biso   1.000  C
  H118     1.0000 0.46928  0.50599  0.10621  Biso   1.000  H
  H119     1.0000 0.42793  0.56729  0.15302  Biso   1.000  H
  C120     1.0000 0.30543  0.55762  0.08431  Biso   1.000  C
  H120     1.0000 0.92186  0.48951  0.05062  Biso   1.000  H
  H121     1.0000 0.80566  0.49680  0.09062  Biso   1.000  H
  N19      1.0000 0.87184  0.51939  0.03022  Biso   1.000  N
  N20      1.0000 0.89904  0.56729  0.19097  Biso   1.000  N
  H122     1.0000 0.07449  0.56140  0.21042  Biso   1.000  H
  H123     1.0000 0.03031  0.55169  0.14210  Biso   1.000  H
  C121     1.0000 0.27093  0.53957  0.04837  Biso   1.000  C
  H124     1.0000 0.30780  0.50861  0.03228  Biso   1.000  H
  C122     1.0000 0.23569  0.57753  0.07749  Biso   1.000  C
  C123     1.0000 0.76595  0.52742  0.02376  Biso   1.000  C
  C124     1.0000 0.85440  0.57413  0.13653  Biso   1.000  C
  H125     1.0000 0.20612  0.54041  0.01840  Biso   1.000  H
  C125     1.0000 0.18019  0.58329  0.01679  Biso   1.000  C
  C126     1.0000 0.21524  0.59075  0.13288  Biso   1.000  C
  H126     1.0000 0.70278  0.52261  0.05092  Biso   1.000  H
  C127     1.0000 0.74076  0.54424  0.97459  Biso   1.000  C
  H127     1.0000 0.89338  0.57110  0.09629  Biso   1.000  H
  C128     1.0000 0.74158  0.58686  0.13583  Biso   1.000  C
  C129     1.0000 0.10534  0.60100  0.01198  Biso   1.000  C
  H128     1.0000 0.19388  0.57509  0.97890  Biso   1.000  H
  C130     1.0000 0.14039  0.60841  0.12816  Biso   1.000  C
  H129     1.0000 0.25249  0.58760  0.17363  Biso   1.000  H
  C131     1.0000 0.62081  0.54875  0.95709  Biso   1.000  C
  C132     1.0000 0.83578  0.55474  0.94221  Biso   1.000  C
  C133     1.0000 0.69959  0.59653  0.07764  Biso   1.000  C
  C134     1.0000 0.67385  0.58915  0.19488  Biso   1.000  C
  C135     1.0000 0.08435  0.61361  0.06857  Biso   1.000  C
  C136     1.0000 0.04801  0.60620  0.94687  Biso   1.000  C
  H130     1.0000 0.12798  0.61690  0.16571  Biso   1.000  H
  C137     1.0000 0.59379  0.56316  0.90622  Biso   1.000  C
  H131     1.0000 0.55737  0.54210  0.97970  Biso   1.000  H
  H132     1.0000 0.91629  0.55200  0.95419  Biso   1.000  H
  C138     1.0000 0.81004  0.56908  0.89249  Biso   1.000  C
  H133     1.0000 0.74359  0.59470  0.03819  Biso   1.000  H
  C139     1.0000 0.59370  0.60879  0.07644  Biso   1.000  C
  C140     1.0000 0.56696  0.60073  0.19403  Biso   1.000  C
  H134     1.0000 0.70068  0.58289  0.23442  Biso   1.000  H
  H135     1.0000 0.03314  0.62539  0.06591  Biso   1.000  H
  N21      1.0000 0.96568  0.62029  0.94055  Biso   1.000  N
  H136     1.0000 0.07339  0.59890  0.90893  Biso   1.000  H
  C141     1.0000 0.46764  0.56718  0.88231  Biso   1.000  C
  C142     1.0000 0.69119  0.57343  0.87414  Biso   1.000  C
  H137     1.0000 0.87376  0.57600  0.87068  Biso   1.000  H
  C143     1.0000 0.52780  0.61052  0.13603  Biso   1.000  C
  C144     1.0000 0.55600  0.62094  0.01629  Biso   1.000  C
  H138     1.0000 0.52068  0.60190  0.23302  Biso   1.000  H
  C145     1.0000 0.91675  0.62387  0.87329  Biso   1.000  C
  C146     1.0000 0.43350  0.58743  0.86096  Biso   1.000  C
  C147     1.0000 0.38101  0.55095  0.87660  Biso   1.000  C
  H139     1.0000 0.67558  0.58319  0.84031  Biso   1.000  H
  H140     1.0000 0.45623  0.61840  0.13668  Biso   1.000  H
  C148     1.0000 0.43542  0.62756  0.00727  Biso   1.000  C
  C149     1.0000 0.64290  0.62790  0.96998  Biso   1.000  C
  H141     1.0000 0.83268  0.61910  0.87138  Biso   1.000  H
  H142     1.0000 0.96349  0.61580  0.84091  Biso   1.000  H
  C150     1.0000 0.92268  0.64728  0.85585  Biso   1.000  C
  C151     1.0000 0.31995  0.59137  0.83209  Biso   1.000  C
  H143     1.0000 0.48818  0.59860  0.86612  Biso   1.000  H
  H144     1.0000 0.40000  0.53740  0.89189  Biso   1.000  H
  C152     1.0000 0.26791  0.55475  0.84858  Biso   1.000  C
  H145     1.0000 0.37554  0.62260  0.03629  Biso   1.000  H
  C153     1.0000 0.40292  0.64124  0.95639  Biso   1.000  C
  C154     1.0000 0.60922  0.64107  0.91745  Biso   1.000  C
  H146     1.0000 0.72378  0.62370  0.97439  Biso   1.000  H
  H147     1.0000 0.86518  0.65030  0.82011  Biso   1.000  H
  H148     1.0000 0.89895  0.65561  0.89459  Biso   1.000  H
  N22      1.0000 0.04418  0.65369  0.83470  Biso   1.000  N
  C155     1.0000 0.29457  0.61304  0.80783  Biso   1.000  C
  C156     1.0000 0.23733  0.57468  0.82547  Biso   1.000  C
  H149     1.0000 0.21168  0.54371  0.84522  Biso   1.000  H
  C157     1.0000 0.27732  0.64996  0.95389  Biso   1.000  C
  C158     1.0000 0.49064  0.64805  0.91063  Biso   1.000  C
  H150     1.0000 0.66764  0.64530  0.88632  Biso   1.000  H
  C159     1.0000 0.06728  0.64949  0.76362  Biso   1.000  C
  C160     1.0000 0.07640  0.67530  0.85509  Biso   1.000  C
  N23      1.0000 0.19817  0.61818  0.77690  Biso   1.000  N
  H151     1.0000 0.35272  0.62351  0.81580  Biso   1.000  H
  H152     1.0000 0.16166  0.57700  0.80552  Biso   1.000  H
  N24      1.0000 0.25431  0.66723  0.92406  Biso   1.000  N
  H153     1.0000 0.21424  0.64259  0.97459  Biso   1.000  H
  H154     1.0000 0.46937  0.65719  0.87590  Biso   1.000  H
  H155     1.0000 0.06061  0.66260  0.73871  Biso   1.000  H
  H156     1.0000 0.00557  0.63980  0.74678  Biso   1.000  H
  C161     1.0000 0.19251  0.63998  0.75194  Biso   1.000  C
  C162     1.0000 0.12990  0.67550  0.92502  Biso   1.000  C
  H157     1.0000 0.00411  0.68420  0.85389  Biso   1.000  H
  H158     1.0000 0.13528  0.68110  0.82382  Biso   1.000  H
  H159     1.0000 0.21068  0.64010  0.70433  Biso   1.000  H
  H160     1.0000 0.25358  0.64851  0.77460  Biso   1.000  H
  H161     1.0000 0.13017  0.68990  0.94231  Biso   1.000  H
  H162     1.0000 0.07978  0.66689  0.95449  Biso   1.000  H
  C163     1.0000 0.28754  0.48199  0.74698  Biso   1.000  C
  C164     1.0000 0.17453  0.49353  0.77114  Biso   1.000  C
  H163     1.0000 0.31812  0.48879  0.70668  Biso   1.000  H
  H164     1.0000 0.26664  0.46750  0.73590  Biso   1.000  H
  N25      1.0000 0.38257  0.48213  0.79856  Biso   1.000  N
  N26      1.0000 0.09950  0.48039  0.81585  Biso   1.000  N
  H165     1.0000 0.12597  0.49780  0.73270  Biso   1.000  H
  H166     1.0000 0.19890  0.50629  0.79480  Biso   1.000  H
  C165     1.0000 0.43633  0.46497  0.81239  Biso   1.000  C
  C166     1.0000 0.01753  0.46688  0.77680  Biso   1.000  C
  C167     1.0000 0.03478  0.49320  0.86517  Biso   1.000  C
  H167     1.0000 0.41159  0.45270  0.79049  Biso   1.000  H
  C168     1.0000 0.53628  0.46351  0.86161  Biso   1.000  C
  C169     1.0000 0.99261  0.44580  0.81164  Biso   1.000  C
  H168     1.0000 0.05349  0.46421  0.73320  Biso   1.000  H
  H169     1.0000 0.94085  0.47430  0.76989  Biso   1.000  H
  C170     1.0000 0.11456  0.49876  0.92507  Biso   1.000  C
  H170     1.0000 0.00675  0.50620  0.84412  Biso   1.000  H
  H171     1.0000 0.96358  0.48550  0.88071  Biso   1.000  H
  C171     1.0000 0.59717  0.44450  0.87123  Biso   1.000  C
  C172     1.0000 0.57170  0.48118  0.89880  Biso   1.000  C
  N27      1.0000 0.10096  0.43271  0.80903  Biso   1.000  N
  H172     1.0000 0.92551  0.43860  0.78958  Biso   1.000  H
  H173     1.0000 0.96969  0.44831  0.85790  Biso   1.000  H
  H174     1.0000 0.07823  0.51049  0.94943  Biso   1.000  H
  H175     1.0000 0.19443  0.50320  0.90943  Biso   1.000  H
  N28      1.0000 0.12816  0.48061  0.96983  Biso   1.000  N
  H176     1.0000 0.57207  0.43271  0.84703  Biso   1.000  H
  C173     1.0000 0.69457  0.44238  0.91569  Biso   1.000  C
  C174     1.0000 0.66801  0.47958  0.94321  Biso   1.000  C
  H177     1.0000 0.53072  0.49401  0.89379  Biso   1.000  H
  C175     1.0000 0.14560  0.42587  0.86352  Biso   1.000  C
  C176     1.0000 0.23414  0.47258  0.97624  Biso   1.000  C
  C177     1.0000 0.72907  0.46043  0.95163  Biso   1.000  C
  C178     1.0000 0.76431  0.42247  0.92251  Biso   1.000  C
  H178     1.0000 0.69220  0.49139  0.96772  Biso   1.000  H
  C179     1.0000 0.25842  0.41314  0.86417  Biso   1.000  C
  H179     1.0000 0.10662  0.42890  0.90371  Biso   1.000  H
  H180     1.0000 0.29722  0.47739  0.94913  Biso   1.000  H
  C180     1.0000 0.25933  0.45576  0.02541  Biso   1.000  C
  H181     1.0000 0.79388  0.45959  0.98160  Biso   1.000  H
  C181     1.0000 0.81981  0.41671  0.98326  Biso   1.000  C
  C182     1.0000 0.78485  0.40925  0.86712  Biso   1.000  C
  C183     1.0000 0.32624  0.41085  0.80512  Biso   1.000  C
  C184     1.0000 0.30041  0.40347  0.92236  Biso   1.000  C
  C185     1.0000 0.37919  0.45125  0.04291  Biso   1.000  C
  C186     1.0000 0.16422  0.44526  0.05779  Biso   1.000  C
  C187     1.0000 0.89475  0.39900  0.98802  Biso   1.000  C
  H182     1.0000 0.80612  0.42491  0.02110  Biso   1.000  H
  C188     1.0000 0.85961  0.39159  0.87184  Biso   1.000  C
  H183     1.0000 0.74751  0.41240  0.82642  Biso   1.000  H
  C189     1.0000 0.43314  0.39927  0.80597  Biso   1.000  C
  H184     1.0000 0.29932  0.41711  0.76563  Biso   1.000  H
  C190     1.0000 0.40630  0.39121  0.92356  Biso   1.000  C
  H185     1.0000 0.25641  0.40530  0.96181  Biso   1.000  H
  C191     1.0000 0.40621  0.43684  0.09378  Biso   1.000  C
  H186     1.0000 0.44263  0.45790  0.02030  Biso   1.000  H
  H187     1.0000 0.08371  0.44800  0.04581  Biso   1.000  H
  C192     1.0000 0.18996  0.43092  0.10756  Biso   1.000  C
  C193     1.0000 0.95199  0.39380  0.05313  Biso   1.000  C
  C194     1.0000 0.91575  0.38639  0.93143  Biso   1.000  C
  H188     1.0000 0.87202  0.38310  0.83429  Biso   1.000  H
  C195     1.0000 0.47220  0.38948  0.86397  Biso   1.000  C
  H189     1.0000 0.47932  0.39810  0.76698  Biso   1.000  H
  C196     1.0000 0.44400  0.37906  0.98371  Biso   1.000  C
  C197     1.0000 0.53245  0.43282  0.11769  Biso   1.000  C
  C198     1.0000 0.30881  0.42657  0.12586  Biso   1.000  C
  H190     1.0000 0.12634  0.42400  0.12932  Biso   1.000  H
  N29      1.0000 0.03432  0.37971  0.05945  Biso   1.000  N
  H191     1.0000 0.92661  0.40110  0.09112  Biso   1.000  H
  H192     1.0000 0.96696  0.37461  0.93409  Biso   1.000  H
  H193     1.0000 0.54377  0.38160  0.86332  Biso   1.000  H
  C199     1.0000 0.56458  0.37244  0.99273  Biso   1.000  C
  C200     1.0000 0.35710  0.37210  0.03002  Biso   1.000  C
  C201     1.0000 0.56650  0.41257  0.13909  Biso   1.000  C
  C202     1.0000 0.61899  0.44905  0.12345  Biso   1.000  C
  H194     1.0000 0.32442  0.41681  0.15969  Biso   1.000  H
  C203     1.0000 0.08334  0.37613  0.12671  Biso   1.000  C
  H195     1.0000 0.62455  0.37740  0.96371  Biso   1.000  H
  C204     1.0000 0.59708  0.35876  0.04361  Biso   1.000  C
  C205     1.0000 0.39078  0.35893  0.08255  Biso   1.000  C
  H196     1.0000 0.27622  0.37630  0.02561  Biso   1.000  H
  C206     1.0000 0.68015  0.40863  0.16791  Biso   1.000  C
  H197     1.0000 0.51182  0.40140  0.13388  Biso   1.000  H
  C207     1.0000 0.73209  0.44525  0.15147  Biso   1.000  C
  H198     1.0000 0.60000  0.46260  0.10811  Biso   1.000  H
  C208     1.0000 0.07732  0.35272  0.14420  Biso   1.000  C
  H199     1.0000 0.16732  0.38090  0.12862  Biso   1.000  H
  H200     1.0000 0.03651  0.38420  0.15909  Biso   1.000  H
  C209     1.0000 0.50945  0.35195  0.08937  Biso   1.000  C
  C210     1.0000 0.72268  0.35004  0.04611  Biso   1.000  C
  H201     1.0000 0.33245  0.35470  0.11368  Biso   1.000  H
  C211     1.0000 0.70543  0.38696  0.19217  Biso   1.000  C
  C212     1.0000 0.76276  0.42532  0.17453  Biso   1.000  C
  H202     1.0000 0.78832  0.45629  0.15478  Biso   1.000  H
  N30      1.0000 0.95582  0.34631  0.16536  Biso   1.000  N
  H203     1.0000 0.13482  0.34970  0.17989  Biso   1.000  H
  H204     1.0000 0.10114  0.34439  0.10541  Biso   1.000  H
  H205     1.0000 0.53063  0.34281  0.12410  Biso   1.000  H
  H206     1.0000 0.78585  0.35741  0.02541  Biso   1.000  H
  N31      1.0000 0.74569  0.33277  0.07594  Biso   1.000  N
  N32      1.0000 0.80183  0.38182  0.22310  Biso   1.000  N
  H207     1.0000 0.64728  0.37649  0.18420  Biso   1.000  H
  H208     1.0000 0.83834  0.42300  0.19448  Biso   1.000  H
  C213     1.0000 0.92360  0.32470  0.14496  Biso   1.000  C
  C214     1.0000 0.93272  0.35051  0.23638  Biso   1.000  C
  C215     1.0000 0.87010  0.32450  0.07498  Biso   1.000  C
  C216     1.0000 0.80749  0.36002  0.24806  Biso   1.000  C
  H209     1.0000 0.99589  0.31580  0.14611  Biso   1.000  H
  H210     1.0000 0.86472  0.31890  0.17618  Biso   1.000  H
  H211     1.0000 0.93939  0.33740  0.26129  Biso   1.000  H
  H212     1.0000 0.99443  0.36020  0.25322  Biso   1.000  H
  H213     1.0000 0.86983  0.31010  0.05769  Biso   1.000  H
  H214     1.0000 0.92022  0.33311  0.04551  Biso   1.000  H
  H215     1.0000 0.78932  0.35990  0.29572  Biso   1.000  H
  H216     1.0000 0.74642  0.35149  0.22540  Biso   1.000  H
  C217     1.0000 0.87010  0.17550  0.57501  Biso   1.000  C
  N33      1.0000 0.74569  0.16723  0.57596  Biso   1.000  N
  H217     1.0000 0.86983  0.18990  0.55772  Biso   1.000  H
  H218     1.0000 0.92022  0.16689  0.54549  Biso   1.000  H
  C218     1.0000 0.92360  0.17530  0.64493  Biso   1.000  C
  C219     1.0000 0.72268  0.14996  0.54609  Biso   1.000  C
  H219     1.0000 0.99589  0.18420  0.64608  Biso   1.000  H
  H220     1.0000 0.86472  0.18110  0.67621  Biso   1.000  H
  N34      1.0000 0.95582  0.15369  0.66533  Biso   1.000  N
  C220     1.0000 0.59708  0.14124  0.54363  Biso   1.000  C
  H221     1.0000 0.78585  0.14259  0.52539  Biso   1.000  H
  C221     1.0000 0.93272  0.14949  0.73635  Biso   1.000  C
  C222     1.0000 0.07732  0.14728  0.64418  Biso   1.000  C
  C223     1.0000 0.56458  0.12756  0.49276  Biso   1.000  C
  C224     1.0000 0.50945  0.14805  0.58934  Biso   1.000  C
  H222     1.0000 0.93939  0.16260  0.76132  Biso   1.000  H
  H223     1.0000 0.99443  0.13980  0.75320  Biso   1.000  H
  C225     1.0000 0.80749  0.13998  0.74808  Biso   1.000  C
  C226     1.0000 0.08334  0.12387  0.62669  Biso   1.000  C
  H224     1.0000 0.13482  0.15030  0.67992  Biso   1.000  H
  H225     1.0000 0.10114  0.15561  0.60538  Biso   1.000  H
  C227     1.0000 0.44400  0.12094  0.48369  Biso   1.000  C
  H226     1.0000 0.62455  0.12260  0.46369  Biso   1.000  H
  C228     1.0000 0.39078  0.14107  0.58253  Biso   1.000  C
  H227     1.0000 0.53063  0.15719  0.62408  Biso   1.000  H
  H228     1.0000 0.78932  0.14010  0.79570  Biso   1.000  H
  H229     1.0000 0.74642  0.14851  0.72543  Biso   1.000  H
  N35      1.0000 0.80183  0.11818  0.72312  Biso   1.000  N
  H230     1.0000 0.16732  0.11910  0.62859  Biso   1.000  H
  H231     1.0000 0.03651  0.11580  0.65911  Biso   1.000  H
  N36      1.0000 0.03432  0.12029  0.55947  Biso   1.000  N
  C229     1.0000 0.40630  0.10879  0.42354  Biso   1.000  C
  C230     1.0000 0.35710  0.12790  0.53000  Biso   1.000  C
  H232     1.0000 0.33245  0.14530  0.61370  Biso   1.000  H
  C231     1.0000 0.70543  0.11304  0.69215  Biso   1.000  C
  C232     1.0000 0.95199  0.10620  0.55311  Biso   1.000  C
  C233     1.0000 0.47220  0.11052  0.36394  Biso   1.000  C
  C234     1.0000 0.30041  0.09653  0.42238  Biso   1.000  C
  H233     1.0000 0.27622  0.12370  0.52559  Biso   1.000  H
  H234     1.0000 0.64728  0.12351  0.68423  Biso   1.000  H
  C235     1.0000 0.68015  0.09137  0.66794  Biso   1.000  C
  C236     1.0000 0.89475  0.10100  0.48805  Biso   1.000  C
  H235     1.0000 0.92661  0.09890  0.59110  Biso   1.000  H
  H236     1.0000 0.54377  0.11840  0.36329  Biso   1.000  H
  C237     1.0000 0.43314  0.10073  0.30595  Biso   1.000  C
  C238     1.0000 0.25842  0.08686  0.36414  Biso   1.000  C
  H237     1.0000 0.25641  0.09470  0.46178  Biso   1.000  H
  C239     1.0000 0.56650  0.08743  0.63907  Biso   1.000  C
  C240     1.0000 0.76276  0.07468  0.67455  Biso   1.000  C
  C241     1.0000 0.81981  0.08329  0.48323  Biso   1.000  C
  C242     1.0000 0.91575  0.11361  0.43146  Biso   1.000  C
  H238     1.0000 0.47932  0.10190  0.26700  Biso   1.000  H
  C243     1.0000 0.32624  0.08915  0.30515  Biso   1.000  C
  C244     1.0000 0.14560  0.07413  0.36349  Biso   1.000  C
  C245     1.0000 0.53245  0.06718  0.61771  Biso   1.000  C
  H239     1.0000 0.51182  0.09860  0.63390  Biso   1.000  H
  C246     1.0000 0.73209  0.05475  0.65145  Biso   1.000  C
  H240     1.0000 0.83834  0.07700  0.69450  Biso   1.000  H
  C247     1.0000 0.76431  0.07753  0.42249  Biso   1.000  C
  H241     1.0000 0.80612  0.07509  0.52113  Biso   1.000  H
  H242     1.0000 0.96696  0.12539  0.43411  Biso   1.000  H
  C248     1.0000 0.85961  0.10841  0.37186  Biso   1.000  C
  H243     1.0000 0.29932  0.08289  0.26560  Biso   1.000  H
  H244     1.0000 0.10662  0.07110  0.40369  Biso   1.000  H
  N37      1.0000 0.10096  0.06729  0.30906  Biso   1.000  N
  C249     1.0000 0.40621  0.06316  0.59380  Biso   1.000  C
  C250     1.0000 0.61899  0.05095  0.62343  Biso   1.000  C
  H245     1.0000 0.78832  0.04371  0.65480  Biso   1.000  H
  C251     1.0000 0.69457  0.05762  0.41567  Biso   1.000  C
  C252     1.0000 0.78485  0.09075  0.36710  Biso   1.000  C
  H246     1.0000 0.87202  0.11690  0.33432  Biso   1.000  H
  C253     1.0000 0.99261  0.05420  0.31161  Biso   1.000  C
  C254     1.0000 0.37919  0.04875  0.54288  Biso   1.000  C
  C255     1.0000 0.30881  0.07343  0.62588  Biso   1.000  C
  H247     1.0000 0.60000  0.03740  0.60809  Biso   1.000  H
  C256     1.0000 0.59717  0.05550  0.37121  Biso   1.000  C
  C257     1.0000 0.72907  0.03957  0.45166  Biso   1.000  C
  H248     1.0000 0.74751  0.08760  0.32640  Biso   1.000  H
  C258     1.0000 0.01753  0.03312  0.27683  Biso   1.000  C
  H249     1.0000 0.92551  0.06140  0.28961  Biso   1.000  H
  H250     1.0000 0.96969  0.05169  0.35788  Biso   1.000  H
  C259     1.0000 0.25933  0.04424  0.52539  Biso   1.000  C
  H251     1.0000 0.44263  0.04210  0.52032  Biso   1.000  H
  C260     1.0000 0.18996  0.06908  0.60754  Biso   1.000  C
  H252     1.0000 0.32442  0.08319  0.65972  Biso   1.000  H
  C261     1.0000 0.53628  0.03649  0.36159  Biso   1.000  C
  H253     1.0000 0.57207  0.06729  0.34700  Biso   1.000  H
  C262     1.0000 0.66801  0.02042  0.44319  Biso   1.000  C
  H254     1.0000 0.79388  0.04041  0.48158  Biso   1.000  H
  H255     1.0000 0.05349  0.03579  0.23322  Biso   1.000  H
  N38      1.0000 0.09950  0.01961  0.31587  Biso   1.000  N
  H256     1.0000 0.94085  0.02570  0.26991  Biso   1.000  H
  C263     1.0000 0.23414  0.02742  0.47622  Biso   1.000  C
  C264     1.0000 0.16422  0.05474  0.55782  Biso   1.000  C
  H257     1.0000 0.12634  0.07600  0.62929  Biso   1.000  H
  C265     1.0000 0.43633  0.03503  0.31237  Biso   1.000  C
  C266     1.0000 0.57170  0.01882  0.39883  Biso   1.000  C
  H258     1.0000 0.69220  0.00861  0.46770  Biso   1.000  H
  C267     1.0000 0.17453  0.00647  0.27116  Biso   1.000  C
  C268     1.0000 0.03478  0.00680  0.36519  Biso   1.000  C
  N39      1.0000 0.12816  0.01939  0.46980  Biso   1.000  N
  H259     1.0000 0.29722  0.02261  0.44910  Biso   1.000  H
  H260     1.0000 0.08371  0.05200  0.54579  Biso   1.000  H
  N40      1.0000 0.38257  0.01787  0.29853  Biso   1.000  N
  H261     1.0000 0.41159  0.04730  0.29051  Biso   1.000  H
  H262     1.0000 0.53072  0.00599  0.39381  Biso   1.000  H
  H263     1.0000 0.12597  0.00220  0.23272  Biso   1.000  H
  C269     1.0000 0.28754  0.01801  0.24701  Biso   1.000  C
  H264     1.0000 0.19890  0.99371  0.29482  Biso   1.000  H
  C270     1.0000 0.11456  0.00124  0.42504  Biso   1.000  C
  H265     1.0000 0.96358  0.01450  0.38068  Biso   1.000  H
  H266     1.0000 0.00675  0.99380  0.34409  Biso   1.000  H
  H267     1.0000 0.31812  0.01121  0.20671  Biso   1.000  H
  H268     1.0000 0.26664  0.03250  0.23588  Biso   1.000  H
  H269     1.0000 0.07823  0.98951  0.44940  Biso   1.000  H
  H270     1.0000 0.19443  0.99680  0.40940  Biso   1.000  H
  C271     1.0000 0.12990  0.82450  0.42499  Biso   1.000  C
  C272     1.0000 0.07640  0.82470  0.35507  Biso   1.000  C
  H271     1.0000 0.13017  0.81010  0.44228  Biso   1.000  H
  H272     1.0000 0.07978  0.83311  0.45451  Biso   1.000  H
  N41      1.0000 0.25431  0.83277  0.42404  Biso   1.000  N
  H273     1.0000 0.00411  0.81580  0.35392  Biso   1.000  H
  H274     1.0000 0.13528  0.81890  0.32379  Biso   1.000  H
  N42      1.0000 0.04418  0.84631  0.33467  Biso   1.000  N
  C273     1.0000 0.27732  0.85004  0.45391  Biso   1.000  C
  C274     1.0000 0.06728  0.85051  0.26365  Biso   1.000  C
  C275     1.0000 0.92268  0.85272  0.35582  Biso   1.000  C
  C276     1.0000 0.40292  0.85876  0.45637  Biso   1.000  C
  H275     1.0000 0.21424  0.85741  0.47461  Biso   1.000  H
  H276     1.0000 0.06061  0.83740  0.23868  Biso   1.000  H
  H277     1.0000 0.00557  0.86020  0.24680  Biso   1.000  H
  C277     1.0000 0.19251  0.86002  0.25192  Biso   1.000  C
  C278     1.0000 0.91675  0.87613  0.37331  Biso   1.000  C
  H278     1.0000 0.86518  0.84970  0.32008  Biso   1.000  H
  H279     1.0000 0.89895  0.84439  0.39462  Biso   1.000  H
  C279     1.0000 0.43542  0.87244  0.50724  Biso   1.000  C
  C280     1.0000 0.49064  0.85195  0.41066  Biso   1.000  C
  H280     1.0000 0.21068  0.85990  0.20430  Biso   1.000  H
  H281     1.0000 0.25358  0.85149  0.27462  Biso   1.000  H
  N43      1.0000 0.19817  0.88182  0.27688  Biso   1.000  N
  H282     1.0000 0.83268  0.88090  0.37141  Biso   1.000  H
  H283     1.0000 0.96349  0.88420  0.34089  Biso   1.000  H
  N44      1.0000 0.96568  0.87971  0.44053  Biso   1.000  N
  C281     1.0000 0.55600  0.87906  0.51631  Biso   1.000  C
  H284     1.0000 0.37554  0.87740  0.53631  Biso   1.000  H
  H285     1.0000 0.46937  0.84281  0.37592  Biso   1.000  H
  C282     1.0000 0.60922  0.85893  0.41747  Biso   1.000  C
  C283     1.0000 0.29457  0.88696  0.30785  Biso   1.000  C
  C284     1.0000 0.04801  0.89380  0.44689  Biso   1.000  C
  C285     1.0000 0.59370  0.89121  0.57646  Biso   1.000  C
  C286     1.0000 0.64290  0.87210  0.47000  Biso   1.000  C
  H286     1.0000 0.66764  0.85470  0.38630  Biso   1.000  H
  H287     1.0000 0.35272  0.87649  0.31582  Biso   1.000  H
  C287     1.0000 0.31995  0.90863  0.33206  Biso   1.000  C
  C288     1.0000 0.10534  0.89900  0.51195  Biso   1.000  C
  H288     1.0000 0.07339  0.90110  0.40890  Biso   1.000  H
  C289     1.0000 0.69959  0.90347  0.57767  Biso   1.000  C
  C290     1.0000 0.52780  0.88948  0.63606  Biso   1.000  C
  H289     1.0000 0.72378  0.87630  0.47441  Biso   1.000  H
  C291     1.0000 0.43350  0.91257  0.36093  Biso   1.000  C
  C292     1.0000 0.23733  0.92532  0.32545  Biso   1.000  C
  C293     1.0000 0.18019  0.91671  0.51677  Biso   1.000  C
  C294     1.0000 0.08435  0.88639  0.56854  Biso   1.000  C
  C295     1.0000 0.74158  0.91314  0.63586  Biso   1.000  C
  H290     1.0000 0.74359  0.90530  0.53822  Biso   1.000  H
  H291     1.0000 0.45623  0.88160  0.63671  Biso   1.000  H
  C296     1.0000 0.56696  0.89927  0.69405  Biso   1.000  C
  H292     1.0000 0.48818  0.90140  0.36610  Biso   1.000  H
  C297     1.0000 0.46764  0.93282  0.38229  Biso   1.000  C
  C298     1.0000 0.26791  0.94525  0.34855  Biso   1.000  C
  H293     1.0000 0.16166  0.92300  0.30550  Biso   1.000  H
  C299     1.0000 0.23569  0.92247  0.57751  Biso   1.000  C
  H294     1.0000 0.19388  0.92491  0.47892  Biso   1.000  H
  H295     1.0000 0.03314  0.87461  0.56589  Biso   1.000  H
  C300     1.0000 0.14039  0.89159  0.62814  Biso   1.000  C
  C301     1.0000 0.85440  0.92587  0.63651  Biso   1.000  C
  C302     1.0000 0.67385  0.91085  0.69485  Biso   1.000  C
  H296     1.0000 0.52068  0.89810  0.73300  Biso   1.000  H
  C303     1.0000 0.38101  0.94905  0.37657  Biso   1.000  C
  C304     1.0000 0.59379  0.93684  0.40620  Biso   1.000  C
  H297     1.0000 0.21168  0.95629  0.34520  Biso   1.000  H
  C305     1.0000 0.30543  0.94238  0.58433  Biso   1.000  C
  C306     1.0000 0.21524  0.90925  0.63290  Biso   1.000  C
  H298     1.0000 0.12798  0.88310  0.66568  Biso   1.000  H
  H299     1.0000 0.89338  0.92890  0.59631  Biso   1.000  H
  N45      1.0000 0.89904  0.93271  0.69094  Biso   1.000  N
  H300     1.0000 0.70068  0.91711  0.73440  Biso   1.000  H
  H301     1.0000 0.40000  0.96260  0.39191  Biso   1.000  H
  C307     1.0000 0.62081  0.95125  0.45712  Biso   1.000  C
  C308     1.0000 0.69119  0.92657  0.37412  Biso   1.000  C
  C309     1.0000 0.40283  0.94450  0.62879  Biso   1.000  C
  C310     1.0000 0.27093  0.96043  0.54839  Biso   1.000  C
  H302     1.0000 0.25249  0.91240  0.67360  Biso   1.000  H
  C311     1.0000 0.00739  0.94580  0.68839  Biso   1.000  C
  H303     1.0000 0.55737  0.95790  0.47973  Biso   1.000  H
  C312     1.0000 0.74076  0.95576  0.47461  Biso   1.000  C
  C313     1.0000 0.81004  0.93092  0.39246  Biso   1.000  C
  H304     1.0000 0.67558  0.91681  0.34028  Biso   1.000  H
  C314     1.0000 0.46372  0.96351  0.63841  Biso   1.000  C
  H305     1.0000 0.42793  0.93271  0.65300  Biso   1.000  H
  H306     1.0000 0.20612  0.95959  0.51842  Biso   1.000  H
  C315     1.0000 0.33199  0.97958  0.55681  Biso   1.000  C
  C316     1.0000 0.98247  0.96688  0.72317  Biso   1.000  C
  H307     1.0000 0.07449  0.93860  0.71039  Biso   1.000  H
  H308     1.0000 0.03031  0.94831  0.64212  Biso   1.000  H
  C317     1.0000 0.83578  0.94526  0.44218  Biso   1.000  C
  C318     1.0000 0.76595  0.97258  0.52378  Biso   1.000  C
  H309     1.0000 0.87376  0.92400  0.37071  Biso   1.000  H
  C319     1.0000 0.56367  0.96497  0.68763  Biso   1.000  C
  C320     1.0000 0.42830  0.98118  0.60117  Biso   1.000  C
  H310     1.0000 0.30780  0.99139  0.53230  Biso   1.000  H
  H311     1.0000 0.94651  0.96421  0.76683  Biso   1.000  H
  N46      1.0000 0.90050  0.98039  0.68418  Biso   1.000  N
  H312     1.0000 0.05924  0.97430  0.73009  Biso   1.000  H
  H313     1.0000 0.91629  0.94800  0.45421  Biso   1.000  H
  H314     1.0000 0.70278  0.97739  0.55090  Biso   1.000  H
  N47      1.0000 0.87184  0.98061  0.53020  Biso   1.000  N
  H315     1.0000 0.58841  0.95270  0.70949  Biso   1.000  H
  N48      1.0000 0.61743  0.98213  0.70147  Biso   1.000  N
  H316     1.0000 0.46928  0.99401  0.60619  Biso   1.000  H
  C321     1.0000 0.82556  0.99353  0.72884  Biso   1.000  C
  C322     1.0000 0.96522  0.99320  0.63481  Biso   1.000  C
  C323     1.0000 0.88544  0.99876  0.57496  Biso   1.000  C
  C324     1.0000 0.71255  0.98199  0.75304  Biso   1.000  C
  H317     1.0000 0.87403  0.99780  0.76728  Biso   1.000  H
  H318     1.0000 0.80110  0.00629  0.70523  Biso   1.000  H
  H319     1.0000 0.99325  0.00620  0.65591  Biso   1.000  H
  H320     1.0000 0.03642  0.98550  0.61932  Biso   1.000  H
  H321     1.0000 0.92186  0.01049  0.55060  Biso   1.000  H
  H322     1.0000 0.80566  0.00320  0.59060  Biso   1.000  H
  H323     1.0000 0.68188  0.98879  0.79329  Biso   1.000  H
  H324     1.0000 0.73346  0.96750  0.76412  Biso   1.000  H
  C325     1.0000 0.62994  0.17550  0.07498  Biso   1.000  C
  C326     1.0000 0.57645  0.17530  0.14496  Biso   1.000  C
  H325     1.0000 0.63021  0.18990  0.05769  Biso   1.000  H
  H326     1.0000 0.57983  0.16689  0.04551  Biso   1.000  H
  N49      1.0000 0.75436  0.16723  0.07594  Biso   1.000  N
  N50      1.0000 0.54423  0.15369  0.16536  Biso   1.000  N
  H327     1.0000 0.50415  0.18420  0.14611  Biso   1.000  H
  H328     1.0000 0.63533  0.18110  0.17618  Biso   1.000  H
  C327     1.0000 0.77727  0.14996  0.04611  Biso   1.000  C
  C328     1.0000 0.42273  0.14728  0.14420  Biso   1.000  C
  C329     1.0000 0.56732  0.14949  0.23638  Biso   1.000  C
  C330     1.0000 0.90288  0.14124  0.04361  Biso   1.000  C
  H329     1.0000 0.71419  0.14259  0.02541  Biso   1.000  H
  C331     1.0000 0.41670  0.12387  0.12671  Biso   1.000  C
  H330     1.0000 0.36522  0.15030  0.17989  Biso   1.000  H
  H331     1.0000 0.39890  0.15561  0.10541  Biso   1.000  H
  H332     1.0000 0.56057  0.16260  0.26129  Biso   1.000  H
  H333     1.0000 0.50561  0.13980  0.25322  Biso   1.000  H
  C332     1.0000 0.69247  0.13998  0.24806  Biso   1.000  C
  C333     1.0000 0.93537  0.12756  0.99273  Biso   1.000  C
  C334     1.0000 0.99060  0.14805  0.08937  Biso   1.000  C
  N51      1.0000 0.46572  0.12029  0.05945  Biso   1.000  N
  H334     1.0000 0.33272  0.11910  0.12862  Biso   1.000  H
  H335     1.0000 0.46353  0.11580  0.15909  Biso   1.000  H
  H336     1.0000 0.71073  0.14010  0.29572  Biso   1.000  H
  H337     1.0000 0.75363  0.14851  0.22540  Biso   1.000  H
  N52      1.0000 0.69822  0.11818  0.22310  Biso   1.000  N
  H338     1.0000 0.87549  0.12260  0.96371  Biso   1.000  H
  C335     1.0000 0.05596  0.12094  0.98371  Biso   1.000  C
  H339     1.0000 0.96942  0.15719  0.12410  Biso   1.000  H
  C336     1.0000 0.10917  0.14107  0.08255  Biso   1.000  C
  C337     1.0000 0.54797  0.10620  0.05313  Biso   1.000  C
  C338     1.0000 0.79461  0.11304  0.19217  Biso   1.000  C
  C339     1.0000 0.09375  0.10879  0.92356  Biso   1.000  C
  C340     1.0000 0.14286  0.12790  0.03002  Biso   1.000  C
  H340     1.0000 0.16759  0.14530  0.11368  Biso   1.000  H
  C341     1.0000 0.60529  0.10100  0.98802  Biso   1.000  C
  H341     1.0000 0.57344  0.09890  0.09112  Biso   1.000  H
  H342     1.0000 0.85267  0.12351  0.18420  Biso   1.000  H
  C342     1.0000 0.81990  0.09137  0.16791  Biso   1.000  C
  C343     1.0000 0.19963  0.09653  0.92236  Biso   1.000  C
  C344     1.0000 0.02784  0.11052  0.86397  Biso   1.000  C
  H343     1.0000 0.22382  0.12370  0.02561  Biso   1.000  H
  C345     1.0000 0.58430  0.11361  0.93143  Biso   1.000  C
  C346     1.0000 0.68024  0.08329  0.98326  Biso   1.000  C
  C347     1.0000 0.93355  0.08743  0.13909  Biso   1.000  C
  C348     1.0000 0.73729  0.07468  0.17453  Biso   1.000  C
  C349     1.0000 0.24162  0.08686  0.86417  Biso   1.000  C
  H344     1.0000 0.24363  0.09470  0.96181  Biso   1.000  H
  H345     1.0000 0.95618  0.11840  0.86332  Biso   1.000  H
  C350     1.0000 0.06691  0.10073  0.80597  Biso   1.000  C
  C351     1.0000 0.64044  0.10841  0.87184  Biso   1.000  C
  H346     1.0000 0.53309  0.12539  0.93409  Biso   1.000  H
  C352     1.0000 0.73574  0.07753  0.92251  Biso   1.000  C
  H347     1.0000 0.69393  0.07509  0.02110  Biso   1.000  H
  H348     1.0000 0.98822  0.09860  0.13388  Biso   1.000  H
  C353     1.0000 0.96759  0.06718  0.11769  Biso   1.000  C
  C354     1.0000 0.76787  0.05475  0.15147  Biso   1.000  C
  H349     1.0000 0.66171  0.07700  0.19448  Biso   1.000  H
  C355     1.0000 0.35445  0.07413  0.86352  Biso   1.000  C
  C356     1.0000 0.17380  0.08915  0.80512  Biso   1.000  C
  H350     1.0000 0.02072  0.10190  0.76698  Biso   1.000  H
  H351     1.0000 0.62802  0.11690  0.83429  Biso   1.000  H
  C357     1.0000 0.71520  0.09075  0.86712  Biso   1.000  C
  C358     1.0000 0.80539  0.05762  0.91569  Biso   1.000  C
  C359     1.0000 0.88106  0.05095  0.12345  Biso   1.000  C
  C360     1.0000 0.09384  0.06316  0.09378  Biso   1.000  C
  H352     1.0000 0.71173  0.04371  0.15478  Biso   1.000  H
  N53      1.0000 0.39900  0.06729  0.80903  Biso   1.000  N
  H353     1.0000 0.39343  0.07110  0.90371  Biso   1.000  H
  H354     1.0000 0.20073  0.08289  0.76563  Biso   1.000  H
  H355     1.0000 0.75253  0.08760  0.82642  Biso   1.000  H
  C361     1.0000 0.90278  0.05550  0.87123  Biso   1.000  C
  C362     1.0000 0.77088  0.03957  0.95163  Biso   1.000  C
  H356     1.0000 0.90005  0.03740  0.10811  Biso   1.000  H
  C363     1.0000 0.12077  0.04875  0.04291  Biso   1.000  C
  C364     1.0000 0.19124  0.07343  0.12586  Biso   1.000  C
  C365     1.0000 0.50744  0.05420  0.81164  Biso   1.000  C
  C366     1.0000 0.96376  0.03649  0.86161  Biso   1.000  C
  H357     1.0000 0.92789  0.06729  0.84703  Biso   1.000  H
  H358     1.0000 0.70607  0.04041  0.98160  Biso   1.000  H
  C367     1.0000 0.83204  0.02042  0.94321  Biso   1.000  C
  C368     1.0000 0.24071  0.04424  0.02541  Biso   1.000  C
  H359     1.0000 0.05742  0.04210  0.02030  Biso   1.000  H
  C369     1.0000 0.31000  0.06908  0.10756  Biso   1.000  C
  H360     1.0000 0.17563  0.08319  0.15969  Biso   1.000  H
  C370     1.0000 0.48252  0.03312  0.77680  Biso   1.000  C
  H361     1.0000 0.57453  0.06140  0.78958  Biso   1.000  H
  H362     1.0000 0.53035  0.05169  0.85790  Biso   1.000  H
  C371     1.0000 0.92834  0.01882  0.89880  Biso   1.000  C
  C372     1.0000 0.06372  0.03503  0.81239  Biso   1.000  C
  H363     1.0000 0.80785  0.00861  0.96772  Biso   1.000  H
  C373     1.0000 0.26591  0.02742  0.97624  Biso   1.000  C
  C374     1.0000 0.33583  0.05474  0.05779  Biso   1.000  C
  H364     1.0000 0.37371  0.07600  0.12932  Biso   1.000  H
  N54      1.0000 0.40055  0.01961  0.81585  Biso   1.000  N
  H365     1.0000 0.55920  0.02570  0.76989  Biso   1.000  H
  H366     1.0000 0.44646  0.03579  0.73320  Biso   1.000  H
  H367     1.0000 0.96933  0.00599  0.89379  Biso   1.000  H
  H368     1.0000 0.08836  0.04730  0.79049  Biso   1.000  H
  N55      1.0000 0.11739  0.01787  0.79856  Biso   1.000  N
  N56      1.0000 0.37179  0.01939  0.96983  Biso   1.000  N
  H369     1.0000 0.20283  0.02261  0.94913  Biso   1.000  H
  H370     1.0000 0.41634  0.05200  0.04581  Biso   1.000  H
  C375     1.0000 0.32551  0.00647  0.77114  Biso   1.000  C
  C376     1.0000 0.46518  0.00680  0.86517  Biso   1.000  C
  C377     1.0000 0.21251  0.01801  0.74698  Biso   1.000  C
  C378     1.0000 0.38539  0.00124  0.92507  Biso   1.000  C
  H371     1.0000 0.30114  0.99371  0.79480  Biso   1.000  H
  H372     1.0000 0.37398  0.00220  0.73270  Biso   1.000  H
  H373     1.0000 0.49320  0.99380  0.84412  Biso   1.000  H
  H374     1.0000 0.53638  0.01450  0.88071  Biso   1.000  H
  H375     1.0000 0.18193  0.01121  0.70668  Biso   1.000  H
  H376     1.0000 0.23341  0.03250  0.73590  Biso   1.000  H
  H377     1.0000 0.42182  0.98951  0.94943  Biso   1.000  H
  H378     1.0000 0.30561  0.99680  0.90943  Biso   1.000  H
  C379     1.0000 0.37015  0.82450  0.92502  Biso   1.000  C
  N57      1.0000 0.24573  0.83277  0.92406  Biso   1.000  N
  H379     1.0000 0.36979  0.81010  0.94231  Biso   1.000  H
  H380     1.0000 0.42017  0.83311  0.95449  Biso   1.000  H
  C380     1.0000 0.42364  0.82470  0.85509  Biso   1.000  C
  C381     1.0000 0.22273  0.85004  0.95389  Biso   1.000  C
  H381     1.0000 0.49594  0.81580  0.85389  Biso   1.000  H
  H382     1.0000 0.36467  0.81890  0.82382  Biso   1.000  H
  N58      1.0000 0.45577  0.84631  0.83470  Biso   1.000  N
  C382     1.0000 0.09712  0.85876  0.95639  Biso   1.000  C
  H383     1.0000 0.28581  0.85741  0.97459  Biso   1.000  H
  C383     1.0000 0.57727  0.85272  0.85585  Biso   1.000  C
  C384     1.0000 0.43268  0.85051  0.76362  Biso   1.000  C
  C385     1.0000 0.06463  0.87244  0.00727  Biso   1.000  C
  C386     1.0000 0.00940  0.85195  0.91063  Biso   1.000  C
  C387     1.0000 0.58330  0.87613  0.87329  Biso   1.000  C
  H384     1.0000 0.63478  0.84970  0.82011  Biso   1.000  H
  H385     1.0000 0.60110  0.84439  0.89459  Biso   1.000  H
  H386     1.0000 0.43943  0.83740  0.73871  Biso   1.000  H
  H387     1.0000 0.49439  0.86020  0.74678  Biso   1.000  H
  C388     1.0000 0.30753  0.86002  0.75194  Biso   1.000  C
  H388     1.0000 0.12451  0.87740  0.03629  Biso   1.000  H
  C389     1.0000 0.94404  0.87906  0.01629  Biso   1.000  C
  C390     1.0000 0.89083  0.85893  0.91745  Biso   1.000  C
  H389     1.0000 0.03058  0.84281  0.87590  Biso   1.000  H
  H390     1.0000 0.66728  0.88090  0.87138  Biso   1.000  H
  H391     1.0000 0.53647  0.88420  0.84091  Biso   1.000  H
  N59      1.0000 0.53428  0.87971  0.94055  Biso   1.000  N
  H392     1.0000 0.28927  0.85990  0.70433  Biso   1.000  H
  H393     1.0000 0.24637  0.85149  0.77460  Biso   1.000  H
  N60      1.0000 0.30178  0.88182  0.77690  Biso   1.000  N
  C391     1.0000 0.85714  0.87210  0.96998  Biso   1.000  C
  C392     1.0000 0.90634  0.89121  0.07644  Biso   1.000  C
  H394     1.0000 0.83241  0.85470  0.88632  Biso   1.000  H
  C393     1.0000 0.45203  0.89380  0.94687  Biso   1.000  C
  C394     1.0000 0.20539  0.88696  0.80783  Biso   1.000  C
  H395     1.0000 0.77618  0.87630  0.97439  Biso   1.000  H
  C395     1.0000 0.80046  0.90347  0.07764  Biso   1.000  C
  C396     1.0000 0.97225  0.88948  0.13603  Biso   1.000  C
  C397     1.0000 0.39471  0.89900  0.01198  Biso   1.000  C
  H396     1.0000 0.42656  0.90110  0.90893  Biso   1.000  H
  H397     1.0000 0.14733  0.87649  0.81580  Biso   1.000  H
  C398     1.0000 0.18010  0.90863  0.83209  Biso   1.000  C
  C399     1.0000 0.75838  0.91314  0.13583  Biso   1.000  C
  H398     1.0000 0.75646  0.90530  0.03819  Biso   1.000  H
  H399     1.0000 0.04382  0.88160  0.13668  Biso   1.000  H
  C400     1.0000 0.93309  0.89927  0.19403  Biso   1.000  C
  C401     1.0000 0.31976  0.91671  0.01679  Biso   1.000  C
  C402     1.0000 0.41570  0.88639  0.06857  Biso   1.000  C
  C403     1.0000 0.06654  0.91257  0.86096  Biso   1.000  C
  C404     1.0000 0.26271  0.92532  0.82547  Biso   1.000  C
  C405     1.0000 0.64564  0.92587  0.13653  Biso   1.000  C
  C406     1.0000 0.82620  0.91085  0.19488  Biso   1.000  C
  H400     1.0000 0.97928  0.89810  0.23302  Biso   1.000  H
  C407     1.0000 0.26426  0.92247  0.07749  Biso   1.000  C
  H401     1.0000 0.30607  0.92491  0.97890  Biso   1.000  H
  H402     1.0000 0.46691  0.87461  0.06591  Biso   1.000  H
  C408     1.0000 0.35956  0.89159  0.12816  Biso   1.000  C
  H403     1.0000 0.01178  0.90140  0.86612  Biso   1.000  H
  C409     1.0000 0.03241  0.93282  0.88231  Biso   1.000  C
  C410     1.0000 0.23213  0.94525  0.84858  Biso   1.000  C
  H404     1.0000 0.33829  0.92300  0.80552  Biso   1.000  H
  H405     1.0000 0.60657  0.92890  0.09629  Biso   1.000  H
  N61      1.0000 0.60100  0.93271  0.19097  Biso   1.000  N
  H406     1.0000 0.79927  0.91711  0.23442  Biso   1.000  H
  C411     1.0000 0.19461  0.94238  0.08431  Biso   1.000  C
  C412     1.0000 0.28480  0.90925  0.13288  Biso   1.000  C
  H407     1.0000 0.37198  0.88310  0.16571  Biso   1.000  H
  C413     1.0000 0.90625  0.93684  0.90622  Biso   1.000  C
  C414     1.0000 0.11903  0.94905  0.87660  Biso   1.000  C
  H408     1.0000 0.28827  0.95629  0.84522  Biso   1.000  H
  C415     1.0000 0.49265  0.94580  0.18836  Biso   1.000  C
  C416     1.0000 0.09722  0.94450  0.12882  Biso   1.000  C
  C417     1.0000 0.22912  0.96043  0.04837  Biso   1.000  C
  H409     1.0000 0.24747  0.91240  0.17363  Biso   1.000  H
  C418     1.0000 0.87923  0.95125  0.95709  Biso   1.000  C
  C419     1.0000 0.80885  0.92657  0.87414  Biso   1.000  C
  H410     1.0000 0.10005  0.96260  0.89189  Biso   1.000  H
  C420     1.0000 0.51748  0.96688  0.22320  Biso   1.000  C
  H411     1.0000 0.42547  0.93860  0.21042  Biso   1.000  H
  H412     1.0000 0.46974  0.94831  0.14210  Biso   1.000  H
  C421     1.0000 0.03633  0.96351  0.13839  Biso   1.000  C
  H413     1.0000 0.07211  0.93271  0.15302  Biso   1.000  H
  C422     1.0000 0.16796  0.97958  0.05679  Biso   1.000  C
  H414     1.0000 0.29393  0.95959  0.01840  Biso   1.000  H
  C423     1.0000 0.75929  0.95576  0.97459  Biso   1.000  C
  H415     1.0000 0.94258  0.95790  0.97970  Biso   1.000  H
  C424     1.0000 0.69000  0.93092  0.89249  Biso   1.000  C
  H416     1.0000 0.82437  0.91681  0.84031  Biso   1.000  H
  H417     1.0000 0.44080  0.97430  0.23011  Biso   1.000  H
  H418     1.0000 0.55354  0.96421  0.26680  Biso   1.000  H
  N62      1.0000 0.59954  0.98039  0.18415  Biso   1.000  N
  C425     1.0000 0.93628  0.96497  0.18761  Biso   1.000  C
  C426     1.0000 0.07166  0.98118  0.10120  Biso   1.000  C
  H419     1.0000 0.19224  0.99139  0.03228  Biso   1.000  H
  C427     1.0000 0.73409  0.97258  0.02376  Biso   1.000  C
  C428     1.0000 0.66417  0.94526  0.94221  Biso   1.000  C
  H420     1.0000 0.62629  0.92400  0.87068  Biso   1.000  H
  C429     1.0000 0.67449  0.99353  0.22886  Biso   1.000  C
  C430     1.0000 0.53482  0.99320  0.13483  Biso   1.000  C
  N63      1.0000 0.88261  0.98213  0.20149  Biso   1.000  N
  H421     1.0000 0.91164  0.95270  0.20951  Biso   1.000  H
  H422     1.0000 0.03067  0.99401  0.10621  Biso   1.000  H
  N64      1.0000 0.62821  0.98061  0.03022  Biso   1.000  N
  H423     1.0000 0.79717  0.97739  0.05092  Biso   1.000  H
  H424     1.0000 0.58375  0.94800  0.95419  Biso   1.000  H
  H425     1.0000 0.62602  0.99780  0.26730  Biso   1.000  H
  C431     1.0000 0.78749  0.98199  0.25302  Biso   1.000  C
  H426     1.0000 0.69895  0.00629  0.20520  Biso   1.000  H
  C432     1.0000 0.61461  0.99876  0.07493  Biso   1.000  C
  H427     1.0000 0.46362  0.98550  0.11929  Biso   1.000  H
  H428     1.0000 0.50680  0.00620  0.15588  Biso   1.000  H
  H429     1.0000 0.81807  0.98879  0.29332  Biso   1.000  H
  H430     1.0000 0.76659  0.96750  0.26410  Biso   1.000  H
  H431     1.0000 0.57818  0.01049  0.05062  Biso   1.000  H
  H432     1.0000 0.69439  0.00320  0.09062  Biso   1.000  H
