data_image0
_cell_length_a       34.306
_cell_length_b       33.662
_cell_length_c       20.908
_cell_angle_alpha    90
_cell_angle_beta     116.85
_cell_angle_gamma    90

_symmetry_space_group_name_H-M    "P 1"
_symmetry_int_tables_number       1

loop_
  _symmetry_equiv_pos_as_xyz
  'x, y, z'

loop_
  _atom_site_label
  _atom_site_occupancy
  _atom_site_fract_x
  _atom_site_fract_y
  _atom_site_fract_z
  _atom_site_thermal_displace_type
  _atom_site_B_iso_or_equiv
  _atom_site_type_symbol
  C1       1.0000 0.71808  0.50701  0.59869  Biso   1.000  C
  N1       1.0000 0.73380  0.46664  0.62539  Biso   1.000  N
  H1       1.0000 0.71036  0.50841  0.54798  Biso   1.000  H
  H2       1.0000 0.69197  0.51239  0.60400  Biso   1.000  H
  C2       1.0000 0.75202  0.53829  0.63831  Biso   1.000  C
  C3       1.0000 0.71610  0.43717  0.56841  Biso   1.000  C
  C4       1.0000 0.72533  0.45615  0.68591  Biso   1.000  C
  H3       1.0000 0.76468  0.53339  0.68951  Biso   1.000  H
  H4       1.0000 0.73846  0.56429  0.62877  Biso   1.000  H
  N2       1.0000 0.78600  0.53693  0.61467  Biso   1.000  N
  C5       1.0000 0.74319  0.43283  0.52788  Biso   1.000  C
  H5       1.0000 0.71468  0.41168  0.58888  Biso   1.000  H
  H6       1.0000 0.68659  0.44469  0.53501  Biso   1.000  H
  H7       1.0000 0.72586  0.48010  0.71218  Biso   1.000  H
  H8       1.0000 0.69638  0.44460  0.66790  Biso   1.000  H
  C6       1.0000 0.75846  0.42716  0.73604  Biso   1.000  C
  C7       1.0000 0.82473  0.52968  0.66029  Biso   1.000  C
  H9       1.0000 0.75088  0.45900  0.51758  Biso   1.000  H
  H10      1.0000 0.72597  0.41949  0.48258  Biso   1.000  H
  N3       1.0000 0.78296  0.41017  0.56932  Biso   1.000  N
  H11      1.0000 0.76288  0.40601  0.70859  Biso   1.000  H
  H12      1.0000 0.74767  0.41548  0.76740  Biso   1.000  H
  N4       1.0000 0.79953  0.44715  0.77860  Biso   1.000  N
  H13      1.0000 0.83087  0.52558  0.70789  Biso   1.000  H
  C8       1.0000 0.86044  0.52757  0.63986  Biso   1.000  C
  C9       1.0000 0.81900  0.42502  0.57827  Biso   1.000  C
  C10      1.0000 0.83324  0.43568  0.77388  Biso   1.000  C
  C11      1.0000 0.90281  0.52181  0.69149  Biso   1.000  C
  C12      1.0000 0.85170  0.53179  0.56798  Biso   1.000  C
  C13      1.0000 0.86104  0.40422  0.61354  Biso   1.000  C
  H14      1.0000 0.81879  0.45069  0.56149  Biso   1.000  H
  H15      1.0000 0.83066  0.41531  0.74220  Biso   1.000  H
  C14      1.0000 0.87644  0.45360  0.81709  Biso   1.000  C
  H16      1.0000 0.90869  0.51919  0.73920  Biso   1.000  H
  C15      1.0000 0.93731  0.51978  0.67289  Biso   1.000  C
  C16      1.0000 0.88547  0.52989  0.54937  Biso   1.000  C
  H17      1.0000 0.82319  0.53589  0.53281  Biso   1.000  H
  C17      1.0000 0.86517  0.36679  0.64496  Biso   1.000  C
  C18      1.0000 0.89747  0.42151  0.61290  Biso   1.000  C
  C19      1.0000 0.91310  0.43729  0.81548  Biso   1.000  C
  C20      1.0000 0.88129  0.48636  0.86153  Biso   1.000  C
  C21      1.0000 0.92787  0.52359  0.60111  Biso   1.000  C
  C22      1.0000 0.98129  0.51554  0.72719  Biso   1.000  C
  H18      1.0000 0.87968  0.53280  0.50166  Biso   1.000  H
  C23      1.0000 0.90458  0.34754  0.67396  Biso   1.000  C
  H19      1.0000 0.84108  0.35488  0.64619  Biso   1.000  H
  C24      1.0000 0.93783  0.40223  0.64249  Biso   1.000  C
  H20      1.0000 0.89497  0.44650  0.59226  Biso   1.000  H
  H21      1.0000 0.91005  0.41578  0.78568  Biso   1.000  H
  C25      1.0000 0.95480  0.45294  0.85853  Biso   1.000  C
  C26      1.0000 0.92202  0.50208  0.90308  Biso   1.000  C
  H22      1.0000 0.85686  0.49750  0.86287  Biso   1.000  H
  H23      1.0000 0.95027  0.52189  0.58781  Biso   1.000  H
  C27      1.0000 0.01864  0.51554  0.77276  Biso   1.000  C
  C28      1.0000 0.94083  0.36498  0.67267  Biso   1.000  C
  H24      1.0000 0.90708  0.32259  0.69460  Biso   1.000  H
  C29      1.0000 0.97555  0.42021  0.64142  Biso   1.000  C
  C30      1.0000 0.95890  0.48571  0.90211  Biso   1.000  C
  C31      1.0000 0.99275  0.43497  0.85832  Biso   1.000  C
  H25      1.0000 0.92497  0.52388  0.93219  Biso   1.000  H
  C32      1.0000 0.06265  0.51978  0.82706  Biso   1.000  C
  H26      1.0000 0.96737  0.35158  0.69229  Biso   1.000  H
  C33      1.0000 0.00720  0.43497  0.64163  Biso   1.000  C
  H27      1.0000 0.98626  0.49658  0.93037  Biso   1.000  H
  C34      1.0000 0.02441  0.42021  0.85853  Biso   1.000  C
  C35      1.0000 0.09711  0.52181  0.80846  Biso   1.000  C
  C36      1.0000 0.07210  0.52359  0.89890  Biso   1.000  C
  C37      1.0000 0.04515  0.45294  0.64142  Biso   1.000  C
  C38      1.0000 0.06214  0.40223  0.85751  Biso   1.000  C
  C39      1.0000 0.13952  0.52757  0.86014  Biso   1.000  C
  H28      1.0000 0.09128  0.51919  0.76080  Biso   1.000  H
  H29      1.0000 0.04967  0.52189  0.91219  Biso   1.000  H
  C40      1.0000 0.11448  0.52989  0.95058  Biso   1.000  C
  C41      1.0000 0.08682  0.43729  0.68447  Biso   1.000  C
  C42      1.0000 0.04107  0.48571  0.59789  Biso   1.000  C
  C43      1.0000 0.05909  0.36498  0.82728  Biso   1.000  C
  C44      1.0000 0.10245  0.42151  0.88705  Biso   1.000  C
  C45      1.0000 0.17522  0.52968  0.83966  Biso   1.000  C
  C46      1.0000 0.14825  0.53179  0.93197  Biso   1.000  C
  H30      1.0000 0.12027  0.53280  0.99829  Biso   1.000  H
  C47      1.0000 0.12352  0.45360  0.68286  Biso   1.000  C
  H31      1.0000 0.08987  0.41578  0.71427  Biso   1.000  H
  H32      1.0000 0.01369  0.49658  0.56958  Biso   1.000  H
  C48      1.0000 0.07790  0.50208  0.59687  Biso   1.000  C
  H33      1.0000 0.03256  0.35158  0.80766  Biso   1.000  H
  C49      1.0000 0.09538  0.34754  0.82599  Biso   1.000  C
  C50      1.0000 0.13891  0.40422  0.88641  Biso   1.000  C
  H34      1.0000 0.10498  0.44650  0.90769  Biso   1.000  H
  H35      1.0000 0.16905  0.52558  0.79206  Biso   1.000  H
  N5       1.0000 0.21393  0.53693  0.88528  Biso   1.000  N
  H36      1.0000 0.17677  0.53589  0.96719  Biso   1.000  H
  C51      1.0000 0.16669  0.43568  0.72607  Biso   1.000  C
  C52      1.0000 0.11866  0.48636  0.63842  Biso   1.000  C
  H37      1.0000 0.07499  0.52388  0.56776  Biso   1.000  H
  H38      1.0000 0.09287  0.32259  0.80535  Biso   1.000  H
  C53      1.0000 0.13478  0.36679  0.85499  Biso   1.000  C
  C54      1.0000 0.18095  0.42502  0.92168  Biso   1.000  C
  C55      1.0000 0.24795  0.53829  0.86169  Biso   1.000  C
  H39      1.0000 0.16927  0.41531  0.75780  Biso   1.000  H
  N6       1.0000 0.20041  0.44715  0.72140  Biso   1.000  N
  H40      1.0000 0.14307  0.49750  0.63708  Biso   1.000  H
  H41      1.0000 0.15887  0.35488  0.85376  Biso   1.000  H
  H42      1.0000 0.18117  0.45069  0.93846  Biso   1.000  H
  N7       1.0000 0.21699  0.41017  0.93063  Biso   1.000  N
  C56      1.0000 0.28187  0.50701  0.90126  Biso   1.000  C
  H43      1.0000 0.23529  0.53339  0.81050  Biso   1.000  H
  H44      1.0000 0.26146  0.56429  0.87118  Biso   1.000  H
  C57      1.0000 0.24151  0.42716  0.76397  Biso   1.000  C
  C58      1.0000 0.25673  0.43283  0.97207  Biso   1.000  C
  N8       1.0000 0.26612  0.46664  0.87456  Biso   1.000  N
  H45      1.0000 0.28956  0.50841  0.95197  Biso   1.000  H
  H46      1.0000 0.30795  0.51239  0.89595  Biso   1.000  H
  C59      1.0000 0.27462  0.45615  0.81404  Biso   1.000  C
  H47      1.0000 0.23707  0.40601  0.79136  Biso   1.000  H
  H48      1.0000 0.25229  0.41548  0.73261  Biso   1.000  H
  C60      1.0000 0.28385  0.43717  0.93155  Biso   1.000  C
  H49      1.0000 0.24907  0.45900  0.98237  Biso   1.000  H
  H50      1.0000 0.27400  0.41949  0.01743  Biso   1.000  H
  H51      1.0000 0.27407  0.48010  0.78777  Biso   1.000  H
  H52      1.0000 0.30358  0.44460  0.83210  Biso   1.000  H
  H53      1.0000 0.28527  0.41168  0.91107  Biso   1.000  H
  H54      1.0000 0.31338  0.44469  0.96500  Biso   1.000  H
  C61      1.0000 0.42016  0.52163  0.55806  Biso   1.000  C
  C62      1.0000 0.42408  0.48146  0.57178  Biso   1.000  C
  C63      1.0000 0.42881  0.54875  0.61301  Biso   1.000  C
  H55      1.0000 0.41168  0.53069  0.51169  Biso   1.000  H
  C64      1.0000 0.43676  0.46753  0.64147  Biso   1.000  C
  H56      1.0000 0.41827  0.46358  0.53469  Biso   1.000  H
  C65      1.0000 0.44079  0.53541  0.68270  Biso   1.000  C
  H57      1.0000 0.42656  0.57590  0.60336  Biso   1.000  H
  C66      1.0000 0.44231  0.42490  0.65761  Biso   1.000  C
  C67      1.0000 0.44461  0.49477  0.69637  Biso   1.000  C
  C68      1.0000 0.45037  0.56372  0.73952  Biso   1.000  C
  N9       1.0000 0.44079  0.39980  0.61193  Biso   1.000  N
  H58      1.0000 0.44709  0.41620  0.70280  Biso   1.000  H
  H59      1.0000 0.45247  0.48559  0.74258  Biso   1.000  H
  C69      1.0000 0.45990  0.58799  0.78589  Biso   1.000  C
  C70      1.0000 0.44674  0.35782  0.63209  Biso   1.000  C
  C71      1.0000 0.47338  0.61734  0.84089  Biso   1.000  C
  C72      1.0000 0.40677  0.33432  0.58481  Biso   1.000  C
  H60      1.0000 0.45226  0.35509  0.68168  Biso   1.000  H
  H61      1.0000 0.47188  0.34748  0.62780  Biso   1.000  H
  C73      1.0000 0.46673  0.65783  0.82277  Biso   1.000  C
  C74      1.0000 0.49333  0.60718  0.91284  Biso   1.000  C
  N10      1.0000 0.37117  0.33970  0.60405  Biso   1.000  N
  H62      1.0000 0.39698  0.34240  0.53538  Biso   1.000  H
  H63      1.0000 0.41437  0.30640  0.58840  Biso   1.000  H
  H64      1.0000 0.45317  0.66520  0.77469  Biso   1.000  H
  C75      1.0000 0.47994  0.68686  0.87510  Biso   1.000  C
  C76      1.0000 0.50696  0.63576  0.96585  Biso   1.000  C
  H65      1.0000 0.49766  0.58051  0.92570  Biso   1.000  H
  C77      1.0000 0.32815  0.33557  0.54246  Biso   1.000  C
  C78      1.0000 0.37556  0.31237  0.66174  Biso   1.000  C
  C79      1.0000 0.50053  0.67575  0.94768  Biso   1.000  C
  C80      1.0000 0.47238  0.72904  0.85494  Biso   1.000  C
  H66      1.0000 0.52050  0.62819  0.01378  Biso   1.000  H
  C81      1.0000 0.31272  0.37461  0.50134  Biso   1.000  C
  H67      1.0000 0.30716  0.32699  0.55897  Biso   1.000  H
  H68      1.0000 0.32949  0.31528  0.51056  Biso   1.000  H
  H69      1.0000 0.40618  0.30619  0.69101  Biso   1.000  H
  H70      1.0000 0.36029  0.28780  0.64110  Biso   1.000  H
  C82      1.0000 0.35690  0.33061  0.70821  Biso   1.000  C
  H71      1.0000 0.50986  0.69509  0.98338  Biso   1.000  H
  H72      1.0000 0.45907  0.73558  0.80648  Biso   1.000  H
  N11      1.0000 0.48320  0.75667  0.90029  Biso   1.000  N
  H73      1.0000 0.33647  0.38661  0.49507  Biso   1.000  H
  H74      1.0000 0.28898  0.36941  0.45417  Biso   1.000  H
  N12      1.0000 0.29809  0.40179  0.53956  Biso   1.000  N
  H75      1.0000 0.32887  0.34279  0.67809  Biso   1.000  H
  H76      1.0000 0.35226  0.30999  0.73647  Biso   1.000  H
  N13      1.0000 0.38643  0.36023  0.75534  Biso   1.000  N
  C83      1.0000 0.47437  0.79764  0.87563  Biso   1.000  C
  C84      1.0000 0.31789  0.43453  0.55951  Biso   1.000  C
  C85      1.0000 0.37268  0.39525  0.75464  Biso   1.000  C
  C86      1.0000 0.45055  0.81888  0.91150  Biso   1.000  C
  H77      1.0000 0.45665  0.79808  0.82406  Biso   1.000  H
  H78      1.0000 0.50166  0.81118  0.88689  Biso   1.000  H
  C87      1.0000 0.30472  0.46539  0.59510  Biso   1.000  C
  H79      1.0000 0.34198  0.43919  0.55120  Biso   1.000  H
  H80      1.0000 0.34388  0.40149  0.72317  Biso   1.000  H
  C88      1.0000 0.40107  0.42621  0.80230  Biso   1.000  C
  N14      1.0000 0.40514  0.80643  0.88410  Biso   1.000  N
  H81      1.0000 0.46566  0.81389  0.96269  Biso   1.000  H
  H82      1.0000 0.45147  0.84728  0.90415  Biso   1.000  H
  C89      1.0000 0.32646  0.50178  0.61172  Biso   1.000  C
  C90      1.0000 0.26897  0.46022  0.60936  Biso   1.000  C
  C91      1.0000 0.38449  0.46358  0.80283  Biso   1.000  C
  C92      1.0000 0.44474  0.41851  0.84877  Biso   1.000  C
  C93      1.0000 0.37586  0.82996  0.82240  Biso   1.000  C
  C94      1.0000 0.39077  0.80518  0.93980  Biso   1.000  C
  C95      1.0000 0.31278  0.53286  0.64142  Biso   1.000  C
  H83      1.0000 0.35047  0.50550  0.60298  Biso   1.000  H
  H84      1.0000 0.25417  0.43610  0.59880  Biso   1.000  H
  C96      1.0000 0.25537  0.49052  0.63895  Biso   1.000  C
  H85      1.0000 0.35548  0.46910  0.77169  Biso   1.000  H
  C97      1.0000 0.41056  0.49323  0.84936  Biso   1.000  C
  C98      1.0000 0.47100  0.44739  0.89472  Biso   1.000  C
  H86      1.0000 0.45625  0.39350  0.84877  Biso   1.000  H
  C99      1.0000 0.33749  0.80566  0.76965  Biso   1.000  C
  H87      1.0000 0.39207  0.84038  0.79828  Biso   1.000  H
  H88      1.0000 0.36497  0.85230  0.83886  Biso   1.000  H
  C100     1.0000 0.40029  0.76579  0.97840  Biso   1.000  C
  H89      1.0000 0.35957  0.81020  0.91836  Biso   1.000  H
  H90      1.0000 0.40527  0.82609  0.97427  Biso   1.000  H
  C101     1.0000 0.33291  0.57136  0.65241  Biso   1.000  C
  C102     1.0000 0.27699  0.52656  0.65450  Biso   1.000  C
  H91      1.0000 0.23168  0.48669  0.64839  Biso   1.000  H
  C103     1.0000 0.45425  0.48461  0.89531  Biso   1.000  C
  C104     1.0000 0.39268  0.53131  0.84995  Biso   1.000  C
  H92      1.0000 0.50008  0.44180  0.92538  Biso   1.000  H
  N15      1.0000 0.35270  0.77928  0.73014  Biso   1.000  N
  H93      1.0000 0.32516  0.79009  0.79527  Biso   1.000  H
  H94      1.0000 0.31498  0.82318  0.73657  Biso   1.000  H
  N16      1.0000 0.37024  0.73543  0.93342  Biso   1.000  N
  H95      1.0000 0.43008  0.75789  0.99100  Biso   1.000  H
  H96      1.0000 0.39751  0.76849  0.02241  Biso   1.000  H
  C105     1.0000 0.34661  0.60436  0.65697  Biso   1.000  C
  H97      1.0000 0.26737  0.54688  0.67396  Biso   1.000  H
  H98      1.0000 0.47217  0.50398  0.92640  Biso   1.000  H
  C106     1.0000 0.37773  0.56348  0.85017  Biso   1.000  C
  C107     1.0000 0.34694  0.74241  0.73346  Biso   1.000  C
  C108     1.0000 0.38675  0.70391  0.92232  Biso   1.000  C
  C109     1.0000 0.36137  0.64458  0.65997  Biso   1.000  C
  C110     1.0000 0.35703  0.60097  0.84845  Biso   1.000  C
  C111     1.0000 0.36071  0.71285  0.69610  Biso   1.000  C
  H99      1.0000 0.33348  0.73359  0.76070  Biso   1.000  H
  C112     1.0000 0.36014  0.66989  0.88244  Biso   1.000  C
  H100     1.0000 0.41696  0.70239  0.94018  Biso   1.000  H
  C113     1.0000 0.34947  0.67337  0.69615  Biso   1.000  C
  C114     1.0000 0.38536  0.65611  0.62512  Biso   1.000  C
  C115     1.0000 0.38078  0.63457  0.88244  Biso   1.000  C
  C116     1.0000 0.31152  0.60341  0.81286  Biso   1.000  C
  C117     1.0000 0.38438  0.72369  0.65970  Biso   1.000  C
  C118     1.0000 0.31436  0.67168  0.84690  Biso   1.000  C
  H101     1.0000 0.33378  0.66588  0.72060  Biso   1.000  H
  H102     1.0000 0.39378  0.63719  0.60137  Biso   1.000  H
  C119     1.0000 0.39709  0.69529  0.62485  Biso   1.000  C
  H103     1.0000 0.41118  0.63330  0.90560  Biso   1.000  H
  C120     1.0000 0.29021  0.63855  0.81189  Biso   1.000  C
  H104     1.0000 0.29526  0.58119  0.78938  Biso   1.000  H
  H105     1.0000 0.39177  0.75019  0.65879  Biso   1.000  H
  H106     1.0000 0.30016  0.69518  0.84690  Biso   1.000  H
  H107     1.0000 0.41337  0.70260  0.60127  Biso   1.000  H
  H108     1.0000 0.25987  0.63989  0.78788  Biso   1.000  H
  C121     1.0000 0.72534  0.54382  0.18591  Biso   1.000  C
  N17      1.0000 0.73382  0.53336  0.12544  Biso   1.000  N
  H109     1.0000 0.72590  0.51990  0.21218  Biso   1.000  H
  H110     1.0000 0.69639  0.55540  0.16790  Biso   1.000  H
  C122     1.0000 0.75847  0.57281  0.23604  Biso   1.000  C
  C123     1.0000 0.71810  0.49299  0.09869  Biso   1.000  C
  C124     1.0000 0.71611  0.56280  0.06840  Biso   1.000  C
  H111     1.0000 0.76289  0.59399  0.20859  Biso   1.000  H
  H112     1.0000 0.74769  0.58449  0.26740  Biso   1.000  H
  N18      1.0000 0.79954  0.55285  0.27860  Biso   1.000  N
  H113     1.0000 0.71040  0.49159  0.04798  Biso   1.000  H
  H114     1.0000 0.69198  0.48758  0.10400  Biso   1.000  H
  C125     1.0000 0.75203  0.46171  0.13831  Biso   1.000  C
  C126     1.0000 0.74320  0.56717  0.02788  Biso   1.000  C
  H115     1.0000 0.71470  0.58829  0.08888  Biso   1.000  H
  H116     1.0000 0.68660  0.55528  0.03501  Biso   1.000  H
  C127     1.0000 0.83325  0.56432  0.27388  Biso   1.000  C
  H117     1.0000 0.76469  0.46658  0.18950  Biso   1.000  H
  H118     1.0000 0.73849  0.43568  0.12882  Biso   1.000  H
  N19      1.0000 0.78604  0.46304  0.11467  Biso   1.000  N
  H119     1.0000 0.75089  0.54100  0.01758  Biso   1.000  H
  N20      1.0000 0.78297  0.58983  0.06932  Biso   1.000  N
  H120     1.0000 0.72595  0.58051  0.98258  Biso   1.000  H
  H121     1.0000 0.83068  0.58469  0.24220  Biso   1.000  H
  C128     1.0000 0.87645  0.54640  0.31709  Biso   1.000  C
  C129     1.0000 0.82476  0.47029  0.16034  Biso   1.000  C
  C130     1.0000 0.81903  0.57495  0.07832  Biso   1.000  C
  C131     1.0000 0.91315  0.56271  0.31554  Biso   1.000  C
  C132     1.0000 0.88132  0.51364  0.36159  Biso   1.000  C
  H122     1.0000 0.83088  0.47439  0.20789  Biso   1.000  H
  C133     1.0000 0.86045  0.47240  0.13986  Biso   1.000  C
  C134     1.0000 0.86105  0.59578  0.11354  Biso   1.000  C
  H123     1.0000 0.81880  0.54928  0.06149  Biso   1.000  H
  H124     1.0000 0.91007  0.58419  0.28568  Biso   1.000  H
  C135     1.0000 0.95482  0.54706  0.35858  Biso   1.000  C
  C136     1.0000 0.92208  0.49789  0.40313  Biso   1.000  C
  H125     1.0000 0.85687  0.50250  0.36287  Biso   1.000  H
  C137     1.0000 0.90282  0.47819  0.19149  Biso   1.000  C
  C138     1.0000 0.85171  0.46818  0.06797  Biso   1.000  C
  C139     1.0000 0.86519  0.63318  0.14501  Biso   1.000  C
  C140     1.0000 0.89749  0.57849  0.11290  Biso   1.000  C
  C141     1.0000 0.95891  0.51426  0.40211  Biso   1.000  C
  C142     1.0000 0.99278  0.56503  0.35837  Biso   1.000  C
  H126     1.0000 0.92498  0.47609  0.43219  Biso   1.000  H
  H127     1.0000 0.90870  0.48078  0.23920  Biso   1.000  H
  C143     1.0000 0.93732  0.48019  0.17289  Biso   1.000  C
  C144     1.0000 0.88548  0.47011  0.04937  Biso   1.000  C
  H128     1.0000 0.82320  0.46408  0.03281  Biso   1.000  H
  C145     1.0000 0.90459  0.65243  0.17396  Biso   1.000  C
  H129     1.0000 0.84109  0.64509  0.14619  Biso   1.000  H
  C146     1.0000 0.93784  0.59774  0.14249  Biso   1.000  C
  H130     1.0000 0.89500  0.55350  0.09231  Biso   1.000  H
  H131     1.0000 0.98627  0.50339  0.43036  Biso   1.000  H
  C147     1.0000 0.02442  0.57979  0.35853  Biso   1.000  C
  C148     1.0000 0.92788  0.47638  0.10110  Biso   1.000  C
  C149     1.0000 0.98130  0.48446  0.22719  Biso   1.000  C
  H132     1.0000 0.87971  0.46720  0.00172  Biso   1.000  H
  C150     1.0000 0.94084  0.63499  0.17267  Biso   1.000  C
  H133     1.0000 0.90709  0.67738  0.19460  Biso   1.000  H
  C151     1.0000 0.97556  0.57979  0.14142  Biso   1.000  C
  C152     1.0000 0.06215  0.59774  0.35751  Biso   1.000  C
  H134     1.0000 0.95031  0.47811  0.08781  Biso   1.000  H
  C153     1.0000 0.01866  0.48446  0.27281  Biso   1.000  C
  H135     1.0000 0.96738  0.64839  0.19229  Biso   1.000  H
  C154     1.0000 0.00721  0.56503  0.14163  Biso   1.000  C
  C155     1.0000 0.05910  0.63499  0.32728  Biso   1.000  C
  C156     1.0000 0.10247  0.57849  0.38710  Biso   1.000  C
  C157     1.0000 0.06267  0.48019  0.32712  Biso   1.000  C
  C158     1.0000 0.04517  0.54706  0.14142  Biso   1.000  C
  H136     1.0000 0.03258  0.64839  0.30771  Biso   1.000  H
  C159     1.0000 0.09540  0.65243  0.32604  Biso   1.000  C
  C160     1.0000 0.13892  0.59578  0.38641  Biso   1.000  C
  H137     1.0000 0.10499  0.55350  0.40769  Biso   1.000  H
  C161     1.0000 0.09714  0.47819  0.30851  Biso   1.000  C
  C162     1.0000 0.07211  0.47638  0.39890  Biso   1.000  C
  C163     1.0000 0.08683  0.56271  0.18446  Biso   1.000  C
  C164     1.0000 0.04108  0.51426  0.09789  Biso   1.000  C
  H138     1.0000 0.09290  0.67738  0.30540  Biso   1.000  H
  C165     1.0000 0.13479  0.63318  0.35499  Biso   1.000  C
  C166     1.0000 0.18096  0.57495  0.42168  Biso   1.000  C
  C167     1.0000 0.13953  0.47240  0.36014  Biso   1.000  C
  H139     1.0000 0.09129  0.48078  0.26080  Biso   1.000  H
  H140     1.0000 0.04968  0.47811  0.41219  Biso   1.000  H
  C168     1.0000 0.11450  0.47011  0.45057  Biso   1.000  C
  C169     1.0000 0.12353  0.54640  0.18286  Biso   1.000  C
  H141     1.0000 0.08988  0.58419  0.21427  Biso   1.000  H
  H142     1.0000 0.01370  0.50339  0.06958  Biso   1.000  H
  C170     1.0000 0.07791  0.49789  0.09687  Biso   1.000  C
  H143     1.0000 0.15890  0.64509  0.35381  Biso   1.000  H
  H144     1.0000 0.18119  0.54928  0.43851  Biso   1.000  H
  N21      1.0000 0.21700  0.58983  0.43063  Biso   1.000  N
  C171     1.0000 0.17523  0.47029  0.33966  Biso   1.000  C
  C172     1.0000 0.14826  0.46818  0.43197  Biso   1.000  C
  H145     1.0000 0.12028  0.46720  0.49829  Biso   1.000  H
  C173     1.0000 0.16671  0.56432  0.22612  Biso   1.000  C
  C174     1.0000 0.11867  0.51364  0.13842  Biso   1.000  C
  H146     1.0000 0.07501  0.47609  0.06781  Biso   1.000  H
  C175     1.0000 0.25674  0.56717  0.47207  Biso   1.000  C
  H147     1.0000 0.16908  0.47439  0.29211  Biso   1.000  H
  N22      1.0000 0.21394  0.46304  0.38528  Biso   1.000  N
  H148     1.0000 0.17679  0.46408  0.46719  Biso   1.000  H
  H149     1.0000 0.16928  0.58469  0.25780  Biso   1.000  H
  N23      1.0000 0.20042  0.55285  0.22140  Biso   1.000  N
  H150     1.0000 0.14308  0.50250  0.13708  Biso   1.000  H
  C176     1.0000 0.28388  0.56280  0.43160  Biso   1.000  C
  H151     1.0000 0.24908  0.54100  0.48236  Biso   1.000  H
  H152     1.0000 0.27397  0.58051  0.51737  Biso   1.000  H
  C177     1.0000 0.24796  0.46171  0.36169  Biso   1.000  C
  C178     1.0000 0.24152  0.57281  0.26397  Biso   1.000  C
  N24      1.0000 0.26614  0.53336  0.37456  Biso   1.000  N
  H153     1.0000 0.28528  0.58829  0.41107  Biso   1.000  H
  H154     1.0000 0.31339  0.55528  0.46500  Biso   1.000  H
  C179     1.0000 0.28189  0.49299  0.40131  Biso   1.000  C
  H155     1.0000 0.23530  0.46658  0.31050  Biso   1.000  H
  H156     1.0000 0.26147  0.43568  0.37118  Biso   1.000  H
  C180     1.0000 0.27463  0.54382  0.31404  Biso   1.000  C
  H157     1.0000 0.23710  0.59399  0.29141  Biso   1.000  H
  H158     1.0000 0.25230  0.58449  0.23260  Biso   1.000  H
  H159     1.0000 0.28957  0.49159  0.45197  Biso   1.000  H
  H160     1.0000 0.30798  0.48758  0.39600  Biso   1.000  H
  H161     1.0000 0.27408  0.51990  0.28777  Biso   1.000  H
  H162     1.0000 0.30359  0.55540  0.33210  Biso   1.000  H
  C181     1.0000 0.83749  0.30566  0.76965  Biso   1.000  C
  C182     1.0000 0.87583  0.32999  0.82240  Biso   1.000  C
  H163     1.0000 0.82516  0.29009  0.79527  Biso   1.000  H
  H164     1.0000 0.81498  0.32318  0.73657  Biso   1.000  H
  N25      1.0000 0.85270  0.27928  0.73014  Biso   1.000  N
  N26      1.0000 0.90511  0.30646  0.88410  Biso   1.000  N
  H165     1.0000 0.89207  0.34038  0.79828  Biso   1.000  H
  H166     1.0000 0.86497  0.35230  0.83886  Biso   1.000  H
  C183     1.0000 0.84694  0.24241  0.73346  Biso   1.000  C
  C184     1.0000 0.89077  0.30518  0.93980  Biso   1.000  C
  C185     1.0000 0.95055  0.31891  0.91150  Biso   1.000  C
  H167     1.0000 0.83348  0.23359  0.76070  Biso   1.000  H
  C186     1.0000 0.86071  0.21288  0.69610  Biso   1.000  C
  C187     1.0000 0.90029  0.26579  0.97840  Biso   1.000  C
  H168     1.0000 0.85957  0.31020  0.91836  Biso   1.000  H
  H169     1.0000 0.90527  0.32609  0.97427  Biso   1.000  H
  C188     1.0000 0.97437  0.29764  0.87563  Biso   1.000  C
  H170     1.0000 0.96566  0.31389  0.96269  Biso   1.000  H
  H171     1.0000 0.95147  0.34731  0.90415  Biso   1.000  H
  C189     1.0000 0.84947  0.17337  0.69615  Biso   1.000  C
  C190     1.0000 0.88438  0.22369  0.65970  Biso   1.000  C
  N27      1.0000 0.87024  0.23543  0.93342  Biso   1.000  N
  H172     1.0000 0.93008  0.25789  0.99100  Biso   1.000  H
  H173     1.0000 0.89751  0.26849  0.02241  Biso   1.000  H
  H174     1.0000 0.95665  0.29808  0.82406  Biso   1.000  H
  N28      1.0000 0.98320  0.25667  0.90029  Biso   1.000  N
  H175     1.0000 0.00166  0.31118  0.88689  Biso   1.000  H
  H176     1.0000 0.83378  0.16588  0.72060  Biso   1.000  H
  C191     1.0000 0.86137  0.14458  0.65997  Biso   1.000  C
  C192     1.0000 0.89709  0.19529  0.62485  Biso   1.000  C
  H177     1.0000 0.89177  0.25019  0.65879  Biso   1.000  H
  C193     1.0000 0.88675  0.20394  0.92232  Biso   1.000  C
  C194     1.0000 0.97238  0.22907  0.85494  Biso   1.000  C
  C195     1.0000 0.88536  0.15611  0.62512  Biso   1.000  C
  C196     1.0000 0.84658  0.10439  0.65697  Biso   1.000  C
  H178     1.0000 0.91337  0.20260  0.60127  Biso   1.000  H
  C197     1.0000 0.86014  0.16989  0.88244  Biso   1.000  C
  H179     1.0000 0.91696  0.20239  0.94018  Biso   1.000  H
  C198     1.0000 0.97994  0.18689  0.87510  Biso   1.000  C
  H180     1.0000 0.95907  0.23561  0.80648  Biso   1.000  H
  H181     1.0000 0.89378  0.13719  0.60137  Biso   1.000  H
  C199     1.0000 0.83291  0.07136  0.65241  Biso   1.000  C
  C200     1.0000 0.81436  0.17168  0.84690  Biso   1.000  C
  C201     1.0000 0.88078  0.13457  0.88244  Biso   1.000  C
  C202     1.0000 0.96673  0.15783  0.82277  Biso   1.000  C
  C203     1.0000 0.00053  0.17578  0.94768  Biso   1.000  C
  C204     1.0000 0.81278  0.03286  0.64142  Biso   1.000  C
  C205     1.0000 0.79021  0.13855  0.81189  Biso   1.000  C
  H182     1.0000 0.80016  0.19521  0.84690  Biso   1.000  H
  C206     1.0000 0.85703  0.10097  0.84845  Biso   1.000  C
  H183     1.0000 0.91118  0.13330  0.90560  Biso   1.000  H
  C207     1.0000 0.97338  0.11734  0.84089  Biso   1.000  C
  H184     1.0000 0.95317  0.16520  0.77469  Biso   1.000  H
  H185     1.0000 0.00986  0.19509  0.98338  Biso   1.000  H
  C208     1.0000 0.00696  0.13576  0.96585  Biso   1.000  C
  C209     1.0000 0.82646  0.00178  0.61172  Biso   1.000  C
  C210     1.0000 0.77699  0.02659  0.65450  Biso   1.000  C
  H186     1.0000 0.75987  0.13989  0.78788  Biso   1.000  H
  C211     1.0000 0.81152  0.10344  0.81286  Biso   1.000  C
  C212     1.0000 0.87770  0.06348  0.85017  Biso   1.000  C
  C213     1.0000 0.95990  0.08802  0.78589  Biso   1.000  C
  C214     1.0000 0.99333  0.10718  0.91284  Biso   1.000  C
  H187     1.0000 0.02050  0.12819  0.01378  Biso   1.000  H
  C215     1.0000 0.80472  0.96539  0.59510  Biso   1.000  C
  H188     1.0000 0.85047  0.00550  0.60298  Biso   1.000  H
  H189     1.0000 0.76737  0.04691  0.67396  Biso   1.000  H
  C216     1.0000 0.75537  0.99055  0.63895  Biso   1.000  C
  H190     1.0000 0.79526  0.08119  0.78938  Biso   1.000  H
  C217     1.0000 0.89268  0.03134  0.84995  Biso   1.000  C
  C218     1.0000 0.95034  0.06375  0.73952  Biso   1.000  C
  H191     1.0000 0.99766  0.08051  0.92570  Biso   1.000  H
  C219     1.0000 0.81789  0.93456  0.55951  Biso   1.000  C
  C220     1.0000 0.76897  0.96025  0.60936  Biso   1.000  C
  H192     1.0000 0.73168  0.98672  0.64839  Biso   1.000  H
  C221     1.0000 0.91056  0.99326  0.84936  Biso   1.000  C
  C222     1.0000 0.94079  0.03544  0.68270  Biso   1.000  C
  N29      1.0000 0.79809  0.90182  0.53956  Biso   1.000  N
  H193     1.0000 0.84198  0.93922  0.55120  Biso   1.000  H
  H194     1.0000 0.75417  0.93613  0.59880  Biso   1.000  H
  C223     1.0000 0.88449  0.96361  0.80283  Biso   1.000  C
  C224     1.0000 0.95425  0.98461  0.89531  Biso   1.000  C
  C225     1.0000 0.92881  0.04875  0.61301  Biso   1.000  C
  C226     1.0000 0.94461  0.99477  0.69637  Biso   1.000  C
  C227     1.0000 0.81272  0.87461  0.50134  Biso   1.000  C
  C228     1.0000 0.90107  0.92621  0.80230  Biso   1.000  C
  H195     1.0000 0.85548  0.96910  0.77169  Biso   1.000  H
  H196     1.0000 0.97217  0.00401  0.92640  Biso   1.000  H
  C229     1.0000 0.97100  0.94742  0.89472  Biso   1.000  C
  H197     1.0000 0.92656  0.07590  0.60336  Biso   1.000  H
  C230     1.0000 0.92016  0.02163  0.55806  Biso   1.000  C
  C231     1.0000 0.93676  0.96756  0.64147  Biso   1.000  C
  H198     1.0000 0.95247  0.98562  0.74258  Biso   1.000  H
  C232     1.0000 0.82815  0.83560  0.54246  Biso   1.000  C
  H199     1.0000 0.83647  0.88661  0.49507  Biso   1.000  H
  H200     1.0000 0.78898  0.86941  0.45417  Biso   1.000  H
  C233     1.0000 0.87268  0.89525  0.75464  Biso   1.000  C
  C234     1.0000 0.94474  0.91854  0.84877  Biso   1.000  C
  H201     1.0000 0.00008  0.94180  0.92538  Biso   1.000  H
  C235     1.0000 0.92405  0.98149  0.57178  Biso   1.000  C
  H202     1.0000 0.91168  0.03069  0.51169  Biso   1.000  H
  C236     1.0000 0.94228  0.92493  0.65761  Biso   1.000  C
  N30      1.0000 0.87117  0.83973  0.60405  Biso   1.000  N
  H203     1.0000 0.80716  0.82702  0.55897  Biso   1.000  H
  H204     1.0000 0.82946  0.81531  0.51056  Biso   1.000  H
  H205     1.0000 0.84388  0.90152  0.72317  Biso   1.000  H
  N31      1.0000 0.88643  0.86026  0.75534  Biso   1.000  N
  H206     1.0000 0.95625  0.89353  0.84877  Biso   1.000  H
  H207     1.0000 0.91827  0.96361  0.53469  Biso   1.000  H
  N32      1.0000 0.94076  0.89983  0.61193  Biso   1.000  N
  H208     1.0000 0.94709  0.91623  0.70280  Biso   1.000  H
  C237     1.0000 0.87556  0.81240  0.66174  Biso   1.000  C
  C238     1.0000 0.90677  0.83432  0.58481  Biso   1.000  C
  C239     1.0000 0.85690  0.83064  0.70821  Biso   1.000  C
  C240     1.0000 0.94674  0.85785  0.63209  Biso   1.000  C
  H209     1.0000 0.90618  0.80622  0.69101  Biso   1.000  H
  H210     1.0000 0.86029  0.78783  0.64110  Biso   1.000  H
  H211     1.0000 0.89698  0.84240  0.53538  Biso   1.000  H
  H212     1.0000 0.91437  0.80643  0.58840  Biso   1.000  H
  H213     1.0000 0.82887  0.84282  0.67809  Biso   1.000  H
  H214     1.0000 0.85226  0.81002  0.73647  Biso   1.000  H
  H215     1.0000 0.95226  0.85512  0.68168  Biso   1.000  H
  H216     1.0000 0.97188  0.84751  0.62780  Biso   1.000  H
  C241     1.0000 0.59540  0.15243  0.32604  Biso   1.000  C
  C242     1.0000 0.55910  0.13499  0.32728  Biso   1.000  C
  H217     1.0000 0.59290  0.17741  0.30540  Biso   1.000  H
  C243     1.0000 0.63479  0.13318  0.35499  Biso   1.000  C
  C244     1.0000 0.56215  0.09774  0.35751  Biso   1.000  C
  H218     1.0000 0.53258  0.14839  0.30771  Biso   1.000  H
  C245     1.0000 0.63892  0.09578  0.38641  Biso   1.000  C
  H219     1.0000 0.65890  0.14509  0.35381  Biso   1.000  H
  C246     1.0000 0.52442  0.07979  0.35853  Biso   1.000  C
  C247     1.0000 0.60247  0.07849  0.38710  Biso   1.000  C
  C248     1.0000 0.68096  0.07498  0.42168  Biso   1.000  C
  C249     1.0000 0.49278  0.06503  0.35837  Biso   1.000  C
  H220     1.0000 0.60499  0.05350  0.40769  Biso   1.000  H
  H221     1.0000 0.68119  0.04931  0.43851  Biso   1.000  H
  N33      1.0000 0.71700  0.08983  0.43063  Biso   1.000  N
  C250     1.0000 0.45482  0.04706  0.35858  Biso   1.000  C
  C251     1.0000 0.75674  0.06717  0.47207  Biso   1.000  C
  C252     1.0000 0.41315  0.06271  0.31554  Biso   1.000  C
  C253     1.0000 0.45891  0.01429  0.40211  Biso   1.000  C
  H222     1.0000 0.74908  0.04100  0.48236  Biso   1.000  H
  H223     1.0000 0.77397  0.08051  0.51737  Biso   1.000  H
  C254     1.0000 0.78388  0.06283  0.43160  Biso   1.000  C
  C255     1.0000 0.37645  0.04640  0.31709  Biso   1.000  C
  H224     1.0000 0.41009  0.08419  0.28568  Biso   1.000  H
  C256     1.0000 0.42208  0.99792  0.40313  Biso   1.000  C
  H225     1.0000 0.48627  0.00339  0.43036  Biso   1.000  H
  H226     1.0000 0.78528  0.08829  0.41107  Biso   1.000  H
  H227     1.0000 0.81339  0.05528  0.46500  Biso   1.000  H
  N34      1.0000 0.76614  0.03336  0.37456  Biso   1.000  N
  C257     1.0000 0.33325  0.06432  0.27388  Biso   1.000  C
  C258     1.0000 0.38132  0.01364  0.36159  Biso   1.000  C
  H228     1.0000 0.42498  0.97612  0.43219  Biso   1.000  H
  C259     1.0000 0.77463  0.04385  0.31404  Biso   1.000  C
  C260     1.0000 0.78189  0.99302  0.40131  Biso   1.000  C
  N35      1.0000 0.29954  0.05285  0.27860  Biso   1.000  N
  H229     1.0000 0.33070  0.08469  0.24220  Biso   1.000  H
  H230     1.0000 0.35687  0.00250  0.36287  Biso   1.000  H
  C261     1.0000 0.74152  0.07284  0.26397  Biso   1.000  C
  H231     1.0000 0.77408  0.01990  0.28777  Biso   1.000  H
  H232     1.0000 0.80359  0.05540  0.33210  Biso   1.000  H
  C262     1.0000 0.74796  0.96174  0.36169  Biso   1.000  C
  H233     1.0000 0.78957  0.99162  0.45197  Biso   1.000  H
  H234     1.0000 0.80798  0.98761  0.39600  Biso   1.000  H
  C263     1.0000 0.25847  0.07284  0.23604  Biso   1.000  C
  N36      1.0000 0.70042  0.05285  0.22140  Biso   1.000  N
  H235     1.0000 0.73710  0.09399  0.29141  Biso   1.000  H
  H236     1.0000 0.75230  0.08449  0.23260  Biso   1.000  H
  N37      1.0000 0.71394  0.96307  0.38528  Biso   1.000  N
  H237     1.0000 0.73530  0.96661  0.31050  Biso   1.000  H
  H238     1.0000 0.76147  0.93571  0.37118  Biso   1.000  H
  C264     1.0000 0.22534  0.04385  0.18591  Biso   1.000  C
  H239     1.0000 0.26289  0.09399  0.20859  Biso   1.000  H
  H240     1.0000 0.24769  0.08449  0.26740  Biso   1.000  H
  C265     1.0000 0.66671  0.06432  0.22612  Biso   1.000  C
  C266     1.0000 0.67523  0.97032  0.33966  Biso   1.000  C
  H241     1.0000 0.22590  0.01990  0.21218  Biso   1.000  H
  H242     1.0000 0.19639  0.05540  0.16790  Biso   1.000  H
  N38      1.0000 0.23385  0.03336  0.12544  Biso   1.000  N
  C267     1.0000 0.62353  0.04640  0.18286  Biso   1.000  C
  H243     1.0000 0.66928  0.08469  0.25780  Biso   1.000  H
  C268     1.0000 0.63953  0.97243  0.36014  Biso   1.000  C
  H244     1.0000 0.66908  0.97442  0.29211  Biso   1.000  H
  C269     1.0000 0.21611  0.06283  0.06840  Biso   1.000  C
  C270     1.0000 0.21810  0.99302  0.09869  Biso   1.000  C
  C271     1.0000 0.58683  0.06271  0.18446  Biso   1.000  C
  C272     1.0000 0.61867  0.01364  0.13842  Biso   1.000  C
  C273     1.0000 0.59714  0.97822  0.30851  Biso   1.000  C
  C274     1.0000 0.64826  0.96821  0.43197  Biso   1.000  C
  C275     1.0000 0.24320  0.06717  0.02788  Biso   1.000  C
  H245     1.0000 0.21470  0.08829  0.08888  Biso   1.000  H
  H246     1.0000 0.18660  0.05528  0.03501  Biso   1.000  H
  H247     1.0000 0.21040  0.99162  0.04798  Biso   1.000  H
  H248     1.0000 0.19201  0.98761  0.10400  Biso   1.000  H
  C276     1.0000 0.25203  0.96174  0.13831  Biso   1.000  C
  C277     1.0000 0.54517  0.04706  0.14142  Biso   1.000  C
  H249     1.0000 0.58988  0.08419  0.21427  Biso   1.000  H
  C278     1.0000 0.57791  0.99792  0.09687  Biso   1.000  C
  H250     1.0000 0.64308  0.00250  0.13708  Biso   1.000  H
  C279     1.0000 0.56267  0.98022  0.32712  Biso   1.000  C
  H251     1.0000 0.59129  0.98081  0.26080  Biso   1.000  H
  C280     1.0000 0.61450  0.97014  0.45057  Biso   1.000  C
  H252     1.0000 0.67679  0.96411  0.46719  Biso   1.000  H
  H253     1.0000 0.25089  0.04100  0.01758  Biso   1.000  H
  N39      1.0000 0.28297  0.08983  0.06932  Biso   1.000  N
  H254     1.0000 0.22595  0.08051  0.98258  Biso   1.000  H
  H255     1.0000 0.26469  0.96661  0.18950  Biso   1.000  H
  H256     1.0000 0.23851  0.93571  0.12882  Biso   1.000  H
  N40      1.0000 0.28604  0.96307  0.11467  Biso   1.000  N
  C281     1.0000 0.50721  0.06503  0.14163  Biso   1.000  C
  C282     1.0000 0.54108  0.01429  0.09789  Biso   1.000  C
  H257     1.0000 0.57501  0.97612  0.06781  Biso   1.000  H
  C283     1.0000 0.51866  0.98446  0.27281  Biso   1.000  C
  C284     1.0000 0.57211  0.97641  0.39890  Biso   1.000  C
  H258     1.0000 0.62028  0.96720  0.49829  Biso   1.000  H
  C285     1.0000 0.31903  0.07498  0.07832  Biso   1.000  C
  C286     1.0000 0.32476  0.97032  0.16034  Biso   1.000  C
  C287     1.0000 0.47556  0.07979  0.14142  Biso   1.000  C
  H259     1.0000 0.51370  0.00339  0.06958  Biso   1.000  H
  C288     1.0000 0.48130  0.98446  0.22719  Biso   1.000  C
  H260     1.0000 0.54968  0.97811  0.41219  Biso   1.000  H
  C289     1.0000 0.36105  0.09578  0.11354  Biso   1.000  C
  H261     1.0000 0.31880  0.04931  0.06149  Biso   1.000  H
  H262     1.0000 0.33088  0.97442  0.20789  Biso   1.000  H
  C290     1.0000 0.36045  0.97243  0.13986  Biso   1.000  C
  C291     1.0000 0.43784  0.09774  0.14249  Biso   1.000  C
  C292     1.0000 0.43732  0.98022  0.17289  Biso   1.000  C
  C293     1.0000 0.36519  0.13318  0.14501  Biso   1.000  C
  C294     1.0000 0.39749  0.07849  0.11290  Biso   1.000  C
  C295     1.0000 0.40285  0.97822  0.19149  Biso   1.000  C
  C296     1.0000 0.35171  0.96821  0.06797  Biso   1.000  C
  C297     1.0000 0.44084  0.13499  0.17267  Biso   1.000  C
  C298     1.0000 0.42788  0.97641  0.10110  Biso   1.000  C
  C299     1.0000 0.40459  0.15243  0.17396  Biso   1.000  C
  H263     1.0000 0.34109  0.14509  0.14619  Biso   1.000  H
  H264     1.0000 0.39500  0.05350  0.09231  Biso   1.000  H
  H265     1.0000 0.40870  0.98081  0.23920  Biso   1.000  H
  C300     1.0000 0.38548  0.97014  0.04937  Biso   1.000  C
  H266     1.0000 0.32320  0.96411  0.03281  Biso   1.000  H
  H267     1.0000 0.46738  0.14839  0.19229  Biso   1.000  H
  H268     1.0000 0.45031  0.97811  0.08781  Biso   1.000  H
  H269     1.0000 0.40709  0.17741  0.19460  Biso   1.000  H
  H270     1.0000 0.37971  0.96720  0.00172  Biso   1.000  H
  C301     1.0000 0.59535  0.84754  0.82599  Biso   1.000  C
  C302     1.0000 0.63478  0.86679  0.85499  Biso   1.000  C
  C303     1.0000 0.55909  0.86498  0.82728  Biso   1.000  C
  H271     1.0000 0.59287  0.82259  0.80535  Biso   1.000  H
  C304     1.0000 0.63891  0.90419  0.88641  Biso   1.000  C
  H272     1.0000 0.65887  0.85488  0.85376  Biso   1.000  H
  C305     1.0000 0.56214  0.90223  0.85751  Biso   1.000  C
  H273     1.0000 0.53256  0.85158  0.80766  Biso   1.000  H
  C306     1.0000 0.68095  0.92502  0.92168  Biso   1.000  C
  C307     1.0000 0.60245  0.92148  0.88705  Biso   1.000  C
  C308     1.0000 0.52441  0.92021  0.85853  Biso   1.000  C
  N41      1.0000 0.71699  0.91017  0.93063  Biso   1.000  N
  H274     1.0000 0.68117  0.95069  0.93846  Biso   1.000  H
  H275     1.0000 0.60498  0.94650  0.90769  Biso   1.000  H
  C309     1.0000 0.49275  0.93494  0.85832  Biso   1.000  C
  C310     1.0000 0.75673  0.93280  0.97207  Biso   1.000  C
  C311     1.0000 0.45480  0.95291  0.85853  Biso   1.000  C
  C312     1.0000 0.78385  0.93717  0.93155  Biso   1.000  C
  H276     1.0000 0.74904  0.95897  0.98237  Biso   1.000  H
  H277     1.0000 0.77400  0.91949  0.01743  Biso   1.000  H
  C313     1.0000 0.41313  0.93726  0.81548  Biso   1.000  C
  C314     1.0000 0.45890  0.98571  0.90211  Biso   1.000  C
  N42      1.0000 0.76612  0.96664  0.87456  Biso   1.000  N
  H278     1.0000 0.78527  0.91168  0.91107  Biso   1.000  H
  H279     1.0000 0.81338  0.94469  0.96500  Biso   1.000  H
  C315     1.0000 0.37644  0.95357  0.81709  Biso   1.000  C
  H280     1.0000 0.41005  0.91578  0.78568  Biso   1.000  H
  C316     1.0000 0.42205  0.00208  0.90308  Biso   1.000  C
  H281     1.0000 0.48626  0.99658  0.93037  Biso   1.000  H
  C317     1.0000 0.77459  0.95615  0.81404  Biso   1.000  C
  C318     1.0000 0.78187  0.00698  0.90126  Biso   1.000  C
  C319     1.0000 0.33324  0.93565  0.77388  Biso   1.000  C
  C320     1.0000 0.38129  0.98633  0.86153  Biso   1.000  C
  H282     1.0000 0.42497  0.02388  0.93219  Biso   1.000  H
  C321     1.0000 0.74151  0.92716  0.76397  Biso   1.000  C
  H283     1.0000 0.77407  0.98010  0.78777  Biso   1.000  H
  H284     1.0000 0.80358  0.94460  0.83210  Biso   1.000  H
  H285     1.0000 0.78956  0.00838  0.95197  Biso   1.000  H
  H286     1.0000 0.80795  0.01236  0.89595  Biso   1.000  H
  C322     1.0000 0.74795  0.03826  0.86169  Biso   1.000  C
  N43      1.0000 0.29953  0.94712  0.77860  Biso   1.000  N
  H287     1.0000 0.33066  0.91528  0.74220  Biso   1.000  H
  H288     1.0000 0.35686  0.99747  0.86287  Biso   1.000  H
  N44      1.0000 0.70041  0.94712  0.72140  Biso   1.000  N
  H289     1.0000 0.73707  0.90598  0.79136  Biso   1.000  H
  H290     1.0000 0.75226  0.91548  0.73261  Biso   1.000  H
  H291     1.0000 0.73529  0.03336  0.81050  Biso   1.000  H
  H292     1.0000 0.76146  0.06426  0.87118  Biso   1.000  H
  N45      1.0000 0.71393  0.03690  0.88528  Biso   1.000  N
  C323     1.0000 0.25846  0.92716  0.73604  Biso   1.000  C
  C324     1.0000 0.66669  0.93565  0.72607  Biso   1.000  C
  C325     1.0000 0.67522  0.02965  0.83966  Biso   1.000  C
  C326     1.0000 0.22533  0.95615  0.68591  Biso   1.000  C
  H293     1.0000 0.26288  0.90598  0.70859  Biso   1.000  H
  H294     1.0000 0.24767  0.91548  0.76740  Biso   1.000  H
  C327     1.0000 0.62349  0.95357  0.68286  Biso   1.000  C
  H295     1.0000 0.66927  0.91528  0.75780  Biso   1.000  H
  H296     1.0000 0.66905  0.02558  0.79206  Biso   1.000  H
  C328     1.0000 0.63952  0.02754  0.86014  Biso   1.000  C
  N46      1.0000 0.23380  0.96664  0.62539  Biso   1.000  N
  H297     1.0000 0.22589  0.98010  0.71218  Biso   1.000  H
  H298     1.0000 0.19638  0.94460  0.66790  Biso   1.000  H
  C329     1.0000 0.58682  0.93726  0.68447  Biso   1.000  C
  C330     1.0000 0.61866  0.98633  0.63842  Biso   1.000  C
  C331     1.0000 0.59711  0.02178  0.80846  Biso   1.000  C
  C332     1.0000 0.64822  0.03176  0.93197  Biso   1.000  C
  C333     1.0000 0.21610  0.93717  0.56841  Biso   1.000  C
  C334     1.0000 0.21808  0.00698  0.59869  Biso   1.000  C
  C335     1.0000 0.54513  0.95291  0.64142  Biso   1.000  C
  H299     1.0000 0.58987  0.91578  0.71427  Biso   1.000  H
  C336     1.0000 0.57790  0.00208  0.59687  Biso   1.000  C
  H300     1.0000 0.64307  0.99747  0.63708  Biso   1.000  H
  C337     1.0000 0.56265  0.01976  0.82706  Biso   1.000  C
  H301     1.0000 0.59128  0.01916  0.76080  Biso   1.000  H
  C338     1.0000 0.61448  0.02986  0.95058  Biso   1.000  C
  H302     1.0000 0.67677  0.03586  0.96719  Biso   1.000  H
  C339     1.0000 0.24319  0.93280  0.52788  Biso   1.000  C
  H303     1.0000 0.21468  0.91168  0.58888  Biso   1.000  H
  H304     1.0000 0.18659  0.94469  0.53501  Biso   1.000  H
  H305     1.0000 0.21039  0.00838  0.54798  Biso   1.000  H
  H306     1.0000 0.19197  0.01236  0.60400  Biso   1.000  H
  C340     1.0000 0.25202  0.03826  0.63831  Biso   1.000  C
  C341     1.0000 0.50720  0.93494  0.64163  Biso   1.000  C
  C342     1.0000 0.54107  0.98571  0.59789  Biso   1.000  C
  H307     1.0000 0.57496  0.02388  0.56776  Biso   1.000  H
  C343     1.0000 0.51864  0.01551  0.77276  Biso   1.000  C
  C344     1.0000 0.57210  0.02356  0.89890  Biso   1.000  C
  H308     1.0000 0.62027  0.03277  0.99829  Biso   1.000  H
  N47      1.0000 0.28296  0.91017  0.56932  Biso   1.000  N
  H309     1.0000 0.25088  0.95897  0.51758  Biso   1.000  H
  H310     1.0000 0.22597  0.91949  0.48258  Biso   1.000  H
  H311     1.0000 0.26468  0.03336  0.68951  Biso   1.000  H
  H312     1.0000 0.23846  0.06426  0.62877  Biso   1.000  H
  N48      1.0000 0.28603  0.03690  0.61467  Biso   1.000  N
  C345     1.0000 0.47555  0.92021  0.64142  Biso   1.000  C
  H313     1.0000 0.51366  0.99658  0.56958  Biso   1.000  H
  C346     1.0000 0.48129  0.01551  0.72719  Biso   1.000  C
  H314     1.0000 0.54967  0.02186  0.91219  Biso   1.000  H
  C347     1.0000 0.31900  0.92502  0.57827  Biso   1.000  C
  C348     1.0000 0.32473  0.02965  0.66029  Biso   1.000  C
  C349     1.0000 0.43783  0.90223  0.64249  Biso   1.000  C
  C350     1.0000 0.43731  0.01976  0.67289  Biso   1.000  C
  C351     1.0000 0.36104  0.90419  0.61354  Biso   1.000  C
  H315     1.0000 0.31879  0.95069  0.56149  Biso   1.000  H
  H316     1.0000 0.33087  0.02558  0.70789  Biso   1.000  H
  C352     1.0000 0.36044  0.02754  0.63986  Biso   1.000  C
  C353     1.0000 0.44083  0.86498  0.67267  Biso   1.000  C
  C354     1.0000 0.39747  0.92148  0.61290  Biso   1.000  C
  C355     1.0000 0.40281  0.02178  0.69149  Biso   1.000  C
  C356     1.0000 0.42787  0.02356  0.60111  Biso   1.000  C
  C357     1.0000 0.36517  0.86679  0.64496  Biso   1.000  C
  C358     1.0000 0.35170  0.03176  0.56798  Biso   1.000  C
  C359     1.0000 0.40458  0.84754  0.67396  Biso   1.000  C
  H317     1.0000 0.46737  0.85158  0.69229  Biso   1.000  H
  H318     1.0000 0.39497  0.94650  0.59226  Biso   1.000  H
  H319     1.0000 0.40869  0.01916  0.73920  Biso   1.000  H
  C360     1.0000 0.38547  0.02986  0.54937  Biso   1.000  C
  H320     1.0000 0.45030  0.02186  0.58781  Biso   1.000  H
  H321     1.0000 0.34108  0.85488  0.64619  Biso   1.000  H
  H322     1.0000 0.32319  0.03586  0.53281  Biso   1.000  H
  H323     1.0000 0.40708  0.82259  0.69460  Biso   1.000  H
  H324     1.0000 0.37968  0.03277  0.50166  Biso   1.000  H
