data_image0
_cell_length_a       23.855
_cell_length_b       26.655
_cell_length_c       27.082
_cell_angle_alpha    90
_cell_angle_beta     90
_cell_angle_gamma    90

_symmetry_space_group_name_H-M    "P 1"
_symmetry_int_tables_number       1

loop_
  _symmetry_equiv_pos_as_xyz
  'x, y, z'

loop_
  _atom_site_label
  _atom_site_occupancy
  _atom_site_fract_x
  _atom_site_fract_y
  _atom_site_fract_z
  _atom_site_thermal_displace_type
  _atom_site_B_iso_or_equiv
  _atom_site_type_symbol
  N1       1.0000 0.54970  0.53461  0.48028  Biso   1.000  N
  C1       1.0000 0.56818  0.49469  0.44694  Biso   1.000  C
  C2       1.0000 0.58009  0.54189  0.51850  Biso   1.000  C
  C3       1.0000 0.52572  0.45282  0.45144  Biso   1.000  C
  C4       1.0000 0.56831  0.51551  0.39358  Biso   1.000  C
  H1       1.0000 0.60570  0.48280  0.45621  Biso   1.000  H
  C5       1.0000 0.55959  0.57711  0.55801  Biso   1.000  C
  H2       1.0000 0.61450  0.52572  0.52179  Biso   1.000  H
  C6       1.0000 0.53649  0.41092  0.41360  Biso   1.000  C
  N2       1.0000 0.52911  0.43189  0.50199  Biso   1.000  N
  H3       1.0000 0.48799  0.46652  0.44609  Biso   1.000  H
  C7       1.0000 0.58059  0.47361  0.35747  Biso   1.000  C
  H4       1.0000 0.53201  0.53018  0.38620  Biso   1.000  H
  H5       1.0000 0.59652  0.54159  0.39052  Biso   1.000  H
  C8       1.0000 0.50962  0.60139  0.55483  Biso   1.000  C
  C9       1.0000 0.59220  0.58312  0.60092  Biso   1.000  C
  C10      1.0000 0.53628  0.43140  0.36264  Biso   1.000  C
  H6       1.0000 0.57242  0.39531  0.42032  Biso   1.000  H
  H7       1.0000 0.50769  0.38541  0.41659  Biso   1.000  H
  C11      1.0000 0.48292  0.42701  0.52467  Biso   1.000  C
  H8       1.0000 0.61761  0.46010  0.36378  Biso   1.000  H
  H9       1.0000 0.58009  0.48659  0.32402  Biso   1.000  H
  C12      1.0000 0.48791  0.63020  0.59320  Biso   1.000  C
  H10      1.0000 0.48908  0.59880  0.52581  Biso   1.000  H
  H11      1.0000 0.62742  0.56811  0.60291  Biso   1.000  H
  C13      1.0000 0.57271  0.61069  0.63939  Biso   1.000  C
  H12      1.0000 0.49939  0.44468  0.35500  Biso   1.000  H
  H13      1.0000 0.54450  0.40480  0.33930  Biso   1.000  H
  C14      1.0000 0.47751  0.40822  0.57559  Biso   1.000  C
  H14      1.0000 0.45022  0.43590  0.50801  Biso   1.000  H
  C15      1.0000 0.52031  0.63249  0.63721  Biso   1.000  C
  H15      1.0000 0.45391  0.64708  0.59021  Biso   1.000  H
  H16      1.0000 0.59480  0.61501  0.66731  Biso   1.000  H
  C16      1.0000 0.52379  0.39396  0.60490  Biso   1.000  C
  C17      1.0000 0.42410  0.40270  0.59320  Biso   1.000  C
  C18      1.0000 0.49700  0.65931  0.68071  Biso   1.000  C
  C19      1.0000 0.51381  0.37636  0.65213  Biso   1.000  C
  H17      1.0000 0.56009  0.39629  0.59279  Biso   1.000  H
  H18      1.0000 0.39388  0.41129  0.57311  Biso   1.000  H
  C20      1.0000 0.41392  0.38451  0.64031  Biso   1.000  C
  N3       1.0000 0.53150  0.67154  0.71638  Biso   1.000  N
  N4       1.0000 0.44171  0.66828  0.68012  Biso   1.000  N
  C21      1.0000 0.45932  0.37137  0.67045  Biso   1.000  C
  H19      1.0000 0.54399  0.36770  0.67211  Biso   1.000  H
  H20      1.0000 0.37728  0.38109  0.65180  Biso   1.000  H
  C22      1.0000 0.50799  0.69567  0.75537  Biso   1.000  C
  C23      1.0000 0.42159  0.69405  0.71989  Biso   1.000  C
  C24      1.0000 0.44850  0.34834  0.71956  Biso   1.000  C
  N5       1.0000 0.45391  0.70733  0.75855  Biso   1.000  N
  C25      1.0000 0.54391  0.71150  0.79688  Biso   1.000  C
  C26      1.0000 0.36282  0.70790  0.72077  Biso   1.000  C
  N6       1.0000 0.49214  0.34256  0.74987  Biso   1.000  N
  N7       1.0000 0.39593  0.33363  0.72875  Biso   1.000  N
  C27      1.0000 0.60268  0.70328  0.79521  Biso   1.000  C
  C28      1.0000 0.52052  0.73802  0.83591  Biso   1.000  C
  C29      1.0000 0.34399  0.74099  0.75740  Biso   1.000  C
  C30      1.0000 0.32589  0.69162  0.68407  Biso   1.000  C
  C31      1.0000 0.48091  0.31953  0.79285  Biso   1.000  C
  C32      1.0000 0.38939  0.31007  0.77180  Biso   1.000  C
  H21      1.0000 0.61840  0.68501  0.76940  Biso   1.000  H
  C33      1.0000 0.63668  0.72253  0.83207  Biso   1.000  C
  C34      1.0000 0.55519  0.75682  0.87353  Biso   1.000  C
  H22      1.0000 0.48200  0.74339  0.83709  Biso   1.000  H
  H23      1.0000 0.36831  0.75220  0.78188  Biso   1.000  H
  C35      1.0000 0.29038  0.75652  0.75659  Biso   1.000  C
  C36      1.0000 0.27240  0.70891  0.68396  Biso   1.000  C
  H24      1.0000 0.33779  0.66911  0.66000  Biso   1.000  H
  N8       1.0000 0.42909  0.30325  0.80533  Biso   1.000  N
  C37      1.0000 0.52668  0.30959  0.82745  Biso   1.000  C
  C38      1.0000 0.33318  0.28861  0.78310  Biso   1.000  C
  H25      1.0000 0.67520  0.71701  0.83111  Biso   1.000  H
  C39      1.0000 0.61300  0.75063  0.87124  Biso   1.000  C
  H26      1.0000 0.53938  0.77351  0.90019  Biso   1.000  H
  H27      1.0000 0.27780  0.77719  0.78188  Biso   1.000  H
  C40      1.0000 0.25269  0.74301  0.71967  Biso   1.000  C
  H28      1.0000 0.24800  0.69781  0.65952  Biso   1.000  H
  C41      1.0000 0.51641  0.27950  0.86862  Biso   1.000  C
  C42      1.0000 0.57942  0.32722  0.81899  Biso   1.000  C
  C43      1.0000 0.28879  0.29199  0.74965  Biso   1.000  C
  C44      1.0000 0.32580  0.26171  0.82671  Biso   1.000  C
  C45      1.0000 0.64800  0.77674  0.90665  Biso   1.000  C
  C46      1.0000 0.19631  0.76278  0.71797  Biso   1.000  C
  H29      1.0000 0.48032  0.26839  0.87542  Biso   1.000  H
  C47      1.0000 0.56039  0.26640  0.89931  Biso   1.000  C
  C48      1.0000 0.62389  0.31439  0.85031  Biso   1.000  C
  H30      1.0000 0.58591  0.34811  0.79200  Biso   1.000  H
  H31      1.0000 0.29361  0.30989  0.72052  Biso   1.000  H
  C49      1.0000 0.23911  0.26963  0.75884  Biso   1.000  C
  C50      1.0000 0.27462  0.24101  0.83642  Biso   1.000  C
  H32      1.0000 0.35519  0.25800  0.84890  Biso   1.000  H
  N9       1.0000 0.70140  0.77854  0.90374  Biso   1.000  N
  H33      1.0000 0.63060  0.79298  0.93291  Biso   1.000  H
  N10      1.0000 0.18281  0.80263  0.74020  Biso   1.000  N
  H34      1.0000 0.16911  0.74579  0.69991  Biso   1.000  H
  H35      1.0000 0.55351  0.24600  0.92648  Biso   1.000  H
  C51      1.0000 0.61522  0.28321  0.89030  Biso   1.000  C
  H36      1.0000 0.65948  0.32699  0.84410  Biso   1.000  H
  H37      1.0000 0.20989  0.27248  0.73621  Biso   1.000  H
  C52      1.0000 0.23110  0.24187  0.80278  Biso   1.000  C
  H38      1.0000 0.26879  0.22559  0.86681  Biso   1.000  H
  C53      1.0000 0.73129  0.80762  0.94092  Biso   1.000  C
  C54      1.0000 0.12442  0.81928  0.73861  Biso   1.000  C
  C55      1.0000 0.66150  0.26468  0.91902  Biso   1.000  C
  C56      1.0000 0.17971  0.21478  0.81224  Biso   1.000  C
  H39      1.0000 0.70409  0.82709  0.96008  Biso   1.000  H
  C57      1.0000 0.77141  0.84318  0.91600  Biso   1.000  C
  C58      1.0000 0.76282  0.77239  0.97559  Biso   1.000  C
  C59      1.0000 0.10010  0.81838  0.79115  Biso   1.000  C
  C60      1.0000 0.12199  0.87301  0.71819  Biso   1.000  C
  H40      1.0000 0.10270  0.79681  0.71730  Biso   1.000  H
  N11      1.0000 0.65571  0.22547  0.94613  Biso   1.000  N
  H41      1.0000 0.69591  0.28111  0.91799  Biso   1.000  H
  N12      1.0000 0.14416  0.20289  0.77908  Biso   1.000  N
  H42      1.0000 0.17208  0.20540  0.84458  Biso   1.000  H
  H43      1.0000 0.75041  0.86610  0.89521  Biso   1.000  H
  H44      1.0000 0.79660  0.82420  0.89491  Biso   1.000  H
  C61      1.0000 0.80562  0.87319  0.95288  Biso   1.000  C
  H45      1.0000 0.78680  0.75022  0.95599  Biso   1.000  H
  N13      1.0000 0.72081  0.74151  0.00244  Biso   1.000  N
  C62      1.0000 0.79878  0.80120  0.01189  Biso   1.000  C
  N14      1.0000 0.10031  0.76530  0.80618  Biso   1.000  N
  H46      1.0000 0.12471  0.83752  0.81320  Biso   1.000  H
  C63      1.0000 0.04230  0.83999  0.79311  Biso   1.000  C
  C64      1.0000 0.06208  0.89469  0.72000  Biso   1.000  C
  H47      1.0000 0.13511  0.87301  0.68429  Biso   1.000  H
  H48      1.0000 0.14680  0.89420  0.73732  Biso   1.000  H
  C65      1.0000 0.70279  0.20762  0.97508  Biso   1.000  C
  C66      1.0000 0.09478  0.17460  0.79344  Biso   1.000  C
  H49      1.0000 0.78101  0.89432  0.97249  Biso   1.000  H
  H50      1.0000 0.83198  0.89469  0.93571  Biso   1.000  H
  C67      1.0000 0.83811  0.83560  0.98748  Biso   1.000  C
  C68      1.0000 0.72291  0.69672  0.99431  Biso   1.000  C
  H51      1.0000 0.77468  0.82030  0.03379  Biso   1.000  H
  H52      1.0000 0.81991  0.77760  0.03179  Biso   1.000  H
  C69      1.0000 0.13331  0.75190  0.84111  Biso   1.000  C
  H53      1.0000 0.03001  0.84172  0.82719  Biso   1.000  H
  H54      1.0000 0.01668  0.81831  0.77539  Biso   1.000  H
  C70      1.0000 0.04041  0.89192  0.77092  Biso   1.000  C
  H55      1.0000 0.06250  0.92939  0.70911  Biso   1.000  H
  H56      1.0000 0.03781  0.87590  0.69799  Biso   1.000  H
  H57      1.0000 0.73440  0.23091  0.97220  Biso   1.000  H
  C71      1.0000 0.71951  0.15622  0.95731  Biso   1.000  C
  C72      1.0000 0.68279  0.20491  0.02921  Biso   1.000  C
  C73      1.0000 0.04259  0.20630  0.78262  Biso   1.000  C
  C74      1.0000 0.09390  0.12512  0.76601  Biso   1.000  C
  H58      1.0000 0.09650  0.16789  0.82900  Biso   1.000  H
  H59      1.0000 0.86481  0.81639  0.96810  Biso   1.000  H
  H60      1.0000 0.85881  0.85421  0.01230  Biso   1.000  H
  H61      1.0000 0.75028  0.68400  0.97319  Biso   1.000  H
  C75      1.0000 0.68112  0.66111  0.01820  Biso   1.000  C
  C76      1.0000 0.13469  0.69859  0.85784  Biso   1.000  C
  H62      1.0000 0.15649  0.77550  0.85610  Biso   1.000  H
  H63      1.0000 0.00189  0.90351  0.77099  Biso   1.000  H
  H64      1.0000 0.06208  0.91439  0.79149  Biso   1.000  H
  H65      1.0000 0.68661  0.13491  0.95610  Biso   1.000  H
  H66      1.0000 0.73440  0.15881  0.92408  Biso   1.000  H
  C77      1.0000 0.76248  0.13251  0.98999  Biso   1.000  C
  N15      1.0000 0.67139  0.25579  0.04560  Biso   1.000  N
  C78      1.0000 0.72660  0.18049  0.06141  Biso   1.000  C
  H67      1.0000 0.64808  0.18522  0.03080  Biso   1.000  H
  N16      1.0000 0.04485  0.25065  0.81430  Biso   1.000  N
  H68      1.0000 0.04360  0.21699  0.74799  Biso   1.000  H
  C79      1.0000 0.98881  0.17730  0.79182  Biso   1.000  C
  C80      1.0000 0.03848  0.09630  0.77561  Biso   1.000  C
  H69      1.0000 0.12538  0.10478  0.77660  Biso   1.000  H
  H70      1.0000 0.09780  0.13131  0.73089  Biso   1.000  H
  C81      1.0000 0.63341  0.67751  0.04110  Biso   1.000  C
  C82      1.0000 0.68971  0.60882  0.00931  Biso   1.000  C
  C83      1.0000 0.11230  0.65939  0.83063  Biso   1.000  C
  C84      1.0000 0.15800  0.68839  0.90381  Biso   1.000  C
  H71      1.0000 0.79652  0.15250  0.98970  Biso   1.000  H
  H72      1.0000 0.77170  0.09931  0.97759  Biso   1.000  H
  C85      1.0000 0.74052  0.12849  0.04209  Biso   1.000  C
  C86      1.0000 0.62021  0.26959  0.04774  Biso   1.000  C
  H73      1.0000 0.71268  0.17802  0.09501  Biso   1.000  H
  H74      1.0000 0.76022  0.20090  0.06170  Biso   1.000  H
  C87      1.0000 0.06418  0.29139  0.79599  Biso   1.000  C
  H75      1.0000 0.95699  0.19719  0.78111  Biso   1.000  H
  H76      1.0000 0.98470  0.17111  0.82690  Biso   1.000  H
  C88      1.0000 0.98860  0.12692  0.76401  Biso   1.000  C
  H77      1.0000 0.03798  0.06610  0.75559  Biso   1.000  H
  H78      1.0000 0.03710  0.08621  0.80998  Biso   1.000  H
  C89      1.0000 0.59698  0.64232  0.06200  Biso   1.000  C
  H79      1.0000 0.62519  0.71161  0.04280  Biso   1.000  H
  H80      1.0000 0.71742  0.59790  0.98759  Biso   1.000  H
  C90      1.0000 0.65680  0.57580  0.03320  Biso   1.000  C
  C91      1.0000 0.11318  0.61080  0.84780  Biso   1.000  C
  H81      1.0000 0.09629  0.66599  0.80001  Biso   1.000  H
  H82      1.0000 0.17338  0.71401  0.92272  Biso   1.000  H
  C92      1.0000 0.15791  0.63969  0.92061  Biso   1.000  C
  H83      1.0000 0.76839  0.11300  0.06310  Biso   1.000  H
  H84      1.0000 0.70711  0.10771  0.04250  Biso   1.000  H
  C93      1.0000 0.60369  0.32002  0.06004  Biso   1.000  C
  H85      1.0000 0.59241  0.24611  0.04110  Biso   1.000  H
  C94      1.0000 0.07269  0.33618  0.82498  Biso   1.000  C
  H86      1.0000 0.07311  0.29229  0.76261  Biso   1.000  H
  H87      1.0000 0.95519  0.10820  0.77280  Biso   1.000  H
  H88      1.0000 0.98751  0.13318  0.72879  Biso   1.000  H
  C95      1.0000 0.60759  0.59081  0.05731  Biso   1.000  C
  H89      1.0000 0.56542  0.65309  0.07909  Biso   1.000  H
  H90      1.0000 0.66699  0.54211  0.03371  Biso   1.000  H
  C96      1.0000 0.13561  0.60124  0.89414  Biso   1.000  C
  H91      1.0000 0.09889  0.58481  0.82871  Biso   1.000  H
  H92      1.0000 0.17372  0.63279  0.95130  Biso   1.000  H
  C97      1.0000 0.64288  0.35701  0.06632  Biso   1.000  C
  C98      1.0000 0.54529  0.33150  0.06543  Biso   1.000  C
  C99      1.0000 0.06569  0.33720  0.87523  Biso   1.000  C
  C100     1.0000 0.09109  0.38042  0.80241  Biso   1.000  C
  C101     1.0000 0.57149  0.55269  0.08072  Biso   1.000  C
  C102     1.0000 0.13590  0.54932  0.91496  Biso   1.000  C
  C103     1.0000 0.62721  0.40709  0.07551  Biso   1.000  C
  H93      1.0000 0.68078  0.34902  0.06440  Biso   1.000  H
  H94      1.0000 0.51851  0.30651  0.06152  Biso   1.000  H
  C104     1.0000 0.52882  0.38042  0.07658  Biso   1.000  C
  C105     1.0000 0.07709  0.37959  0.90196  Biso   1.000  C
  H95      1.0000 0.05299  0.30861  0.89140  Biso   1.000  H
  H96      1.0000 0.09621  0.38072  0.76841  Biso   1.000  H
  C106     1.0000 0.10178  0.42228  0.82815  Biso   1.000  C
  N17      1.0000 0.58809  0.50493  0.07300  Biso   1.000  N
  N18      1.0000 0.52429  0.56691  0.10258  Biso   1.000  N
  N19      1.0000 0.11641  0.51105  0.88653  Biso   1.000  N
  N20      1.0000 0.15104  0.54451  0.96230  Biso   1.000  N
  C107     1.0000 0.56839  0.41790  0.08120  Biso   1.000  C
  H97      1.0000 0.65391  0.43241  0.07780  Biso   1.000  H
  H98      1.0000 0.49101  0.38769  0.08101  Biso   1.000  H
  C108     1.0000 0.09579  0.42319  0.87914  Biso   1.000  C
  H99      1.0000 0.07219  0.37922  0.93601  Biso   1.000  H
  H100     1.0000 0.11331  0.45110  0.81161  Biso   1.000  H
  C109     1.0000 0.55271  0.46982  0.08969  Biso   1.000  C
  C110     1.0000 0.49218  0.52819  0.11971  Biso   1.000  C
  C111     1.0000 0.11222  0.46730  0.90795  Biso   1.000  C
  C112     1.0000 0.14328  0.49852  0.98065  Biso   1.000  C
  N21      1.0000 0.50425  0.47965  0.11347  Biso   1.000  N
  C113     1.0000 0.44070  0.54050  0.14803  Biso   1.000  C
  N22      1.0000 0.12316  0.45793  0.95632  Biso   1.000  N
  C114     1.0000 0.15489  0.49071  0.03427  Biso   1.000  C
  C115     1.0000 0.41782  0.50418  0.17901  Biso   1.000  C
  C116     1.0000 0.41652  0.58638  0.14515  Biso   1.000  C
  C117     1.0000 0.18860  0.52579  0.05893  Biso   1.000  C
  C118     1.0000 0.13058  0.45260  0.06026  Biso   1.000  C
  H101     1.0000 0.43500  0.47301  0.18149  Biso   1.000  H
  C119     1.0000 0.37032  0.51390  0.20600  Biso   1.000  C
  C120     1.0000 0.36831  0.59730  0.17133  Biso   1.000  C
  H102     1.0000 0.43261  0.61099  0.12529  Biso   1.000  H
  H103     1.0000 0.20721  0.55082  0.04150  Biso   1.000  H
  C121     1.0000 0.19388  0.52249  0.11041  Biso   1.000  C
  C122     1.0000 0.13699  0.44903  0.11085  Biso   1.000  C
  H104     1.0000 0.10929  0.42870  0.04368  Biso   1.000  H
  H105     1.0000 0.35519  0.48940  0.22650  Biso   1.000  H
  C123     1.0000 0.34492  0.56091  0.20242  Biso   1.000  C
  H106     1.0000 0.35150  0.62859  0.16830  Biso   1.000  H
  H107     1.0000 0.21572  0.54590  0.12721  Biso   1.000  H
  C124     1.0000 0.16760  0.48542  0.13607  Biso   1.000  C
  H108     1.0000 0.12098  0.42240  0.12798  Biso   1.000  H
  C125     1.0000 0.29268  0.57359  0.23089  Biso   1.000  C
  C126     1.0000 0.16911  0.48449  0.19061  Biso   1.000  C
  N23      1.0000 0.27378  0.54380  0.26383  Biso   1.000  N
  H109     1.0000 0.27399  0.60360  0.22450  Biso   1.000  H
  N24      1.0000 0.17292  0.52530  0.21431  Biso   1.000  N
  H110     1.0000 0.16730  0.45410  0.20741  Biso   1.000  H
  C127     1.0000 0.22000  0.55888  0.28547  Biso   1.000  C
  C128     1.0000 0.17468  0.52332  0.26771  Biso   1.000  C
  C129     1.0000 0.22188  0.55791  0.34119  Biso   1.000  C
  H111     1.0000 0.21098  0.59298  0.27450  Biso   1.000  H
  H112     1.0000 0.18382  0.48910  0.27830  Biso   1.000  H
  C130     1.0000 0.11759  0.53859  0.28909  Biso   1.000  C
  C131     1.0000 0.16508  0.57250  0.36290  Biso   1.000  C
  H113     1.0000 0.25039  0.58109  0.35289  Biso   1.000  H
  H114     1.0000 0.23198  0.52452  0.35241  Biso   1.000  H
  H115     1.0000 0.10748  0.57171  0.27720  Biso   1.000  H
  H116     1.0000 0.08921  0.51510  0.27830  Biso   1.000  H
  C132     1.0000 0.12031  0.53900  0.34480  Biso   1.000  C
  H117     1.0000 0.16680  0.57059  0.39872  Biso   1.000  H
  H118     1.0000 0.15640  0.60679  0.35389  Biso   1.000  H
  H119     1.0000 0.08459  0.55010  0.35791  Biso   1.000  H
  H120     1.0000 0.12710  0.50520  0.35669  Biso   1.000  H
  N25      1.0000 0.37686  0.54207  0.45632  Biso   1.000  N
  C133     1.0000 0.35670  0.50148  0.48065  Biso   1.000  C
  C134     1.0000 0.38780  0.53270  0.40795  Biso   1.000  C
  N26      1.0000 0.34894  0.45549  0.46230  Biso   1.000  N
  C135     1.0000 0.34508  0.50929  0.53427  Biso   1.000  C
  N27      1.0000 0.38357  0.48895  0.38653  Biso   1.000  N
  C136     1.0000 0.40419  0.57681  0.37914  Biso   1.000  C
  C137     1.0000 0.36412  0.45068  0.41496  Biso   1.000  C
  C138     1.0000 0.31138  0.47421  0.55893  Biso   1.000  C
  C139     1.0000 0.36940  0.54740  0.56026  Biso   1.000  C
  C140     1.0000 0.42289  0.62041  0.40196  Biso   1.000  C
  C141     1.0000 0.39820  0.57772  0.32815  Biso   1.000  C
  C142     1.0000 0.36441  0.39876  0.39414  Biso   1.000  C
  H121     1.0000 0.29281  0.44918  0.54150  Biso   1.000  H
  C143     1.0000 0.30610  0.47751  0.61041  Biso   1.000  C
  C144     1.0000 0.36298  0.55097  0.61085  Biso   1.000  C
  H122     1.0000 0.39069  0.57130  0.54368  Biso   1.000  H
  H123     1.0000 0.42779  0.62078  0.43601  Biso   1.000  H
  C145     1.0000 0.43429  0.66280  0.37523  Biso   1.000  C
  C146     1.0000 0.40889  0.61958  0.30241  Biso   1.000  C
  H124     1.0000 0.38671  0.54890  0.31161  Biso   1.000  H
  C147     1.0000 0.38680  0.38920  0.34780  Biso   1.000  C
  C148     1.0000 0.34211  0.36031  0.42061  Biso   1.000  C
  H125     1.0000 0.28430  0.45410  0.62721  Biso   1.000  H
  C149     1.0000 0.33238  0.51458  0.63607  Biso   1.000  C
  H126     1.0000 0.37900  0.57760  0.62798  Biso   1.000  H
  H127     1.0000 0.44699  0.69139  0.39140  Biso   1.000  H
  C150     1.0000 0.42729  0.66382  0.32498  Biso   1.000  C
  H128     1.0000 0.40381  0.61928  0.26841  Biso   1.000  H
  C151     1.0000 0.38772  0.34061  0.33063  Biso   1.000  C
  H129     1.0000 0.40109  0.41519  0.32871  Biso   1.000  H
  C152     1.0000 0.34198  0.31161  0.40381  Biso   1.000  C
  H130     1.0000 0.32630  0.36721  0.45130  Biso   1.000  H
  C153     1.0000 0.33092  0.51551  0.69061  Biso   1.000  C
  C154     1.0000 0.43580  0.70861  0.29599  Biso   1.000  C
  C155     1.0000 0.36529  0.30141  0.35784  Biso   1.000  C
  H131     1.0000 0.40369  0.33401  0.30001  Biso   1.000  H
  H132     1.0000 0.32660  0.28599  0.42272  Biso   1.000  H
  N28      1.0000 0.32710  0.47470  0.71431  Biso   1.000  N
  H133     1.0000 0.33272  0.54590  0.70741  Biso   1.000  H
  N29      1.0000 0.45512  0.74935  0.31430  Biso   1.000  N
  H134     1.0000 0.42691  0.70771  0.26261  Biso   1.000  H
  C156     1.0000 0.36672  0.24810  0.34111  Biso   1.000  C
  C157     1.0000 0.32530  0.47668  0.76771  Biso   1.000  C
  C158     1.0000 0.45739  0.79370  0.28262  Biso   1.000  C
  N30      1.0000 0.39971  0.23470  0.30618  Biso   1.000  N
  H135     1.0000 0.34349  0.22450  0.35610  Biso   1.000  H
  H136     1.0000 0.31620  0.51090  0.77830  Biso   1.000  H
  C159     1.0000 0.38239  0.46141  0.78909  Biso   1.000  C
  C160     1.0000 0.27998  0.44112  0.78547  Biso   1.000  C
  H137     1.0000 0.45638  0.78301  0.24799  Biso   1.000  H
  C161     1.0000 0.51121  0.82270  0.29182  Biso   1.000  C
  C162     1.0000 0.40520  0.82540  0.29344  Biso   1.000  C
  C163     1.0000 0.39992  0.18162  0.29115  Biso   1.000  C
  H138     1.0000 0.39250  0.42829  0.77720  Biso   1.000  H
  H139     1.0000 0.41082  0.48490  0.77830  Biso   1.000  H
  C164     1.0000 0.37971  0.46100  0.84480  Biso   1.000  C
  N31      1.0000 0.22624  0.45620  0.76383  Biso   1.000  N
  C165     1.0000 0.27810  0.44209  0.84119  Biso   1.000  C
  H140     1.0000 0.28900  0.40702  0.77450  Biso   1.000  H
  H141     1.0000 0.54299  0.80281  0.28111  Biso   1.000  H
  H142     1.0000 0.51528  0.82889  0.32690  Biso   1.000  H
  C166     1.0000 0.51138  0.87308  0.26401  Biso   1.000  C
  N32      1.0000 0.35582  0.79711  0.27908  Biso   1.000  N
  C167     1.0000 0.40612  0.87488  0.26601  Biso   1.000  C
  H143     1.0000 0.40348  0.83211  0.32900  Biso   1.000  H
  C168     1.0000 0.37560  0.18072  0.23861  Biso   1.000  C
  H144     1.0000 0.37531  0.16248  0.31320  Biso   1.000  H
  C169     1.0000 0.45768  0.16001  0.29311  Biso   1.000  C
  H145     1.0000 0.41538  0.44990  0.85791  Biso   1.000  H
  H146     1.0000 0.37292  0.49480  0.85669  Biso   1.000  H
  C170     1.0000 0.33490  0.42750  0.86290  Biso   1.000  C
  C171     1.0000 0.20729  0.42641  0.73089  Biso   1.000  C
  H147     1.0000 0.24959  0.41891  0.85289  Biso   1.000  H
  H148     1.0000 0.26799  0.47548  0.85241  Biso   1.000  H
  H149     1.0000 0.54479  0.89180  0.27280  Biso   1.000  H
  H150     1.0000 0.51251  0.86682  0.22879  Biso   1.000  H
  C172     1.0000 0.46150  0.90370  0.27561  Biso   1.000  C
  C173     1.0000 0.32031  0.78522  0.31224  Biso   1.000  C
  H151     1.0000 0.37460  0.89522  0.27660  Biso   1.000  H
  H152     1.0000 0.40218  0.86869  0.23089  Biso   1.000  H
  N33      1.0000 0.31721  0.19737  0.24020  Biso   1.000  N
  C174     1.0000 0.37799  0.12699  0.21819  Biso   1.000  C
  H153     1.0000 0.39732  0.20319  0.21730  Biso   1.000  H
  H154     1.0000 0.47001  0.15828  0.32719  Biso   1.000  H
  H155     1.0000 0.48329  0.18169  0.27539  Biso   1.000  H
  C175     1.0000 0.45961  0.10808  0.27092  Biso   1.000  C
  H156     1.0000 0.33318  0.42941  0.89872  Biso   1.000  H
  H157     1.0000 0.34362  0.39321  0.85389  Biso   1.000  H
  C176     1.0000 0.15510  0.43909  0.70242  Biso   1.000  C
  H158     1.0000 0.22599  0.39640  0.72450  Biso   1.000  H
  H159     1.0000 0.46200  0.93390  0.25559  Biso   1.000  H
  H160     1.0000 0.46288  0.91379  0.30998  Biso   1.000  H
  C177     1.0000 0.26892  0.75813  0.30278  Biso   1.000  C
  H161     1.0000 0.32790  0.79460  0.34458  Biso   1.000  H
  C178     1.0000 0.30371  0.23722  0.21797  Biso   1.000  C
  C179     1.0000 0.43790  0.10531  0.22000  Biso   1.000  C
  H162     1.0000 0.36491  0.12699  0.18429  Biso   1.000  H
  H163     1.0000 0.35322  0.10580  0.23732  Biso   1.000  H
  H164     1.0000 0.49809  0.09649  0.27099  Biso   1.000  H
  H165     1.0000 0.43790  0.08561  0.29149  Biso   1.000  H
  C180     1.0000 0.12970  0.48610  0.70600  Biso   1.000  C
  C181     1.0000 0.13171  0.40270  0.67133  Biso   1.000  C
  C182     1.0000 0.26091  0.73037  0.25884  Biso   1.000  C
  C183     1.0000 0.22540  0.75899  0.33642  Biso   1.000  C
  C184     1.0000 0.24729  0.25699  0.21967  Biso   1.000  C
  H166     1.0000 0.33092  0.25421  0.19991  Biso   1.000  H
  H167     1.0000 0.43752  0.07061  0.20911  Biso   1.000  H
  H168     1.0000 0.46221  0.12410  0.19799  Biso   1.000  H
  C185     1.0000 0.08220  0.49582  0.67901  Biso   1.000  C
  H169     1.0000 0.14479  0.51060  0.72650  Biso   1.000  H
  C186     1.0000 0.08350  0.41362  0.64515  Biso   1.000  C
  H170     1.0000 0.14848  0.37141  0.66830  Biso   1.000  H
  C187     1.0000 0.21119  0.70801  0.24965  Biso   1.000  C
  H171     1.0000 0.29009  0.72752  0.23621  Biso   1.000  H
  C188     1.0000 0.17422  0.73829  0.32671  Biso   1.000  C
  H172     1.0000 0.23119  0.77441  0.36681  Biso   1.000  H
  C189     1.0000 0.20960  0.24348  0.25659  Biso   1.000  C
  C190     1.0000 0.22758  0.29109  0.18396  Biso   1.000  C
  C191     1.0000 0.05932  0.45950  0.64803  Biso   1.000  C
  H173     1.0000 0.06502  0.52699  0.68149  Biso   1.000  H
  H174     1.0000 0.06741  0.38901  0.62529  Biso   1.000  H
  C192     1.0000 0.16680  0.71139  0.28310  Biso   1.000  C
  H175     1.0000 0.20641  0.69011  0.22052  Biso   1.000  H
  H176     1.0000 0.14479  0.74200  0.34890  Biso   1.000  H
  C193     1.0000 0.15598  0.25901  0.25740  Biso   1.000  C
  H177     1.0000 0.22222  0.22281  0.28188  Biso   1.000  H
  H178     1.0000 0.25198  0.30219  0.15952  Biso   1.000  H
  C194     1.0000 0.17409  0.30838  0.18407  Biso   1.000  C
  C195     1.0000 0.00780  0.47181  0.61971  Biso   1.000  C
  C196     1.0000 0.11058  0.68993  0.27180  Biso   1.000  C
  C197     1.0000 0.13720  0.29210  0.22077  Biso   1.000  C
  H179     1.0000 0.13171  0.24780  0.28188  Biso   1.000  H
  H180     1.0000 0.16219  0.33089  0.16000  Biso   1.000  H
  N34      1.0000 0.97569  0.43309  0.60258  Biso   1.000  N
  N35      1.0000 0.99577  0.52035  0.61347  Biso   1.000  N
  N36      1.0000 0.10409  0.66637  0.22875  Biso   1.000  N
  N37      1.0000 0.07089  0.69675  0.30533  Biso   1.000  N
  C198     1.0000 0.07839  0.30595  0.21989  Biso   1.000  C
  C199     1.0000 0.92848  0.44731  0.58072  Biso   1.000  C
  C200     1.0000 0.94731  0.53018  0.58969  Biso   1.000  C
  C201     1.0000 0.05152  0.65166  0.21956  Biso   1.000  C
  C202     1.0000 0.01912  0.68047  0.29285  Biso   1.000  C
  N38      1.0000 0.05831  0.33172  0.18012  Biso   1.000  N
  N39      1.0000 0.04611  0.29267  0.25855  Biso   1.000  N
  C203     1.0000 0.89239  0.40919  0.55731  Biso   1.000  C
  N40      1.0000 0.91188  0.49507  0.57300  Biso   1.000  N
  C204     1.0000 0.93159  0.58210  0.58120  Biso   1.000  C
  C205     1.0000 0.04070  0.62863  0.17045  Biso   1.000  C
  N41      1.0000 0.00788  0.65744  0.24987  Biso   1.000  N
  C206     1.0000 0.97330  0.69041  0.32745  Biso   1.000  C
  C207     1.0000 0.00302  0.34069  0.18071  Biso   1.000  C
  C208     1.0000 0.99199  0.30433  0.25537  Biso   1.000  C
  C209     1.0000 0.90300  0.35768  0.56200  Biso   1.000  C
  C210     1.0000 0.84322  0.42420  0.53320  Biso   1.000  C
  C211     1.0000 0.87281  0.59291  0.57551  Biso   1.000  C
  C212     1.0000 0.97120  0.61958  0.57658  Biso   1.000  C
  C213     1.0000 0.08610  0.61549  0.14031  Biso   1.000  C
  C214     1.0000 0.98621  0.62364  0.15213  Biso   1.000  C
  C215     1.0000 0.98361  0.72050  0.36862  Biso   1.000  C
  C216     1.0000 0.92060  0.67278  0.31899  Biso   1.000  C
  N42      1.0000 0.96852  0.32846  0.21638  Biso   1.000  N
  C217     1.0000 0.97971  0.36751  0.13721  Biso   1.000  C
  C218     1.0000 0.95611  0.28850  0.29688  Biso   1.000  C
  C219     1.0000 0.86661  0.32249  0.54110  Biso   1.000  C
  H181     1.0000 0.93460  0.34691  0.57909  Biso   1.000  H
  C220     1.0000 0.81031  0.39118  0.50931  Biso   1.000  C
  H182     1.0000 0.83299  0.45789  0.53371  Biso   1.000  H
  H183     1.0000 0.84611  0.56759  0.57780  Biso   1.000  H
  C221     1.0000 0.85709  0.64299  0.56632  Biso   1.000  C
  H184     1.0000 0.00901  0.61231  0.58101  Biso   1.000  H
  C222     1.0000 0.95468  0.66850  0.56543  Biso   1.000  C
  C223     1.0000 0.07592  0.59730  0.09320  Biso   1.000  C
  H185     1.0000 0.12270  0.61891  0.15180  Biso   1.000  H
  C224     1.0000 0.97619  0.60604  0.10490  Biso   1.000  C
  H186     1.0000 0.95598  0.63230  0.17211  Biso   1.000  H
  H187     1.0000 0.01970  0.73161  0.37542  Biso   1.000  H
  C225     1.0000 0.93959  0.73360  0.39931  Biso   1.000  C
  C226     1.0000 0.87608  0.68561  0.35031  Biso   1.000  C
  H188     1.0000 0.91411  0.65189  0.29200  Biso   1.000  H
  C227     1.0000 0.01211  0.36980  0.09320  Biso   1.000  C
  C228     1.0000 0.92731  0.38931  0.13939  Biso   1.000  C
  C229     1.0000 0.89730  0.29672  0.29521  Biso   1.000  C
  C230     1.0000 0.97950  0.26198  0.33591  Biso   1.000  C
  C231     1.0000 0.81891  0.33889  0.51820  Biso   1.000  C
  H189     1.0000 0.87479  0.28839  0.54280  Biso   1.000  H
  H190     1.0000 0.78260  0.40210  0.48759  Biso   1.000  H
  H191     1.0000 0.81920  0.65098  0.56440  Biso   1.000  H
  C232     1.0000 0.89629  0.67998  0.56004  Biso   1.000  C
  H192     1.0000 0.98151  0.69349  0.56152  Biso   1.000  H
  C233     1.0000 0.02251  0.59178  0.07559  Biso   1.000  C
  H193     1.0000 0.10610  0.58871  0.07311  Biso   1.000  H
  H194     1.0000 0.93989  0.60371  0.09279  Biso   1.000  H
  H195     1.0000 0.94651  0.75400  0.42648  Biso   1.000  H
  C234     1.0000 0.88480  0.71679  0.39030  Biso   1.000  C
  H196     1.0000 0.84049  0.67301  0.34410  Biso   1.000  H
  H197     1.0000 0.04611  0.35292  0.09021  Biso   1.000  H
  C235     1.0000 0.99040  0.39861  0.05483  Biso   1.000  C
  C236     1.0000 0.90782  0.41688  0.10092  Biso   1.000  C
  H198     1.0000 0.90522  0.38499  0.16731  Biso   1.000  H
  H199     1.0000 0.88162  0.31499  0.26940  Biso   1.000  H
  C237     1.0000 0.86330  0.27747  0.33207  Biso   1.000  C
  H200     1.0000 0.01798  0.25661  0.33709  Biso   1.000  H
  C238     1.0000 0.94479  0.24318  0.37353  Biso   1.000  C
  C239     1.0000 0.77711  0.30328  0.49431  Biso   1.000  C
  C240     1.0000 0.87982  0.73041  0.54774  Biso   1.000  C
  C241     1.0000 0.01710  0.57299  0.02467  Biso   1.000  C
  C242     1.0000 0.83848  0.73532  0.41902  Biso   1.000  C
  H201     1.0000 0.01090  0.40120  0.02581  Biso   1.000  H
  C243     1.0000 0.94039  0.42289  0.05801  Biso   1.000  C
  H202     1.0000 0.87261  0.43189  0.10291  Biso   1.000  H
  H203     1.0000 0.82482  0.28299  0.33111  Biso   1.000  H
  C244     1.0000 0.88698  0.24937  0.37124  Biso   1.000  C
  H204     1.0000 0.96060  0.22649  0.40019  Biso   1.000  H
  N43      1.0000 0.77917  0.25849  0.50244  Biso   1.000  N
  H205     1.0000 0.74970  0.31600  0.47319  Biso   1.000  H
  N44      1.0000 0.82859  0.74421  0.54560  Biso   1.000  N
  H206     1.0000 0.90761  0.75389  0.54110  Biso   1.000  H
  N45      1.0000 0.97091  0.56811  0.00199  Biso   1.000  N
  H207     1.0000 0.04980  0.56410  0.00801  Biso   1.000  H
  N46      1.0000 0.84427  0.77453  0.44613  Biso   1.000  N
  H208     1.0000 0.80411  0.71889  0.41799  Biso   1.000  H
  C245     1.0000 0.91989  0.45811  0.01850  Biso   1.000  C
  C246     1.0000 0.85198  0.22326  0.40665  Biso   1.000  C
  C247     1.0000 0.73720  0.22761  0.47559  Biso   1.000  C
  C248     1.0000 0.81719  0.79509  0.52921  Biso   1.000  C
  C249     1.0000 0.97430  0.54718  0.95144  Biso   1.000  C
  C250     1.0000 0.79719  0.79238  0.47508  Biso   1.000  C
  N47      1.0000 0.95028  0.46539  0.98028  Biso   1.000  N
  H209     1.0000 0.88552  0.47428  0.02179  Biso   1.000  H
  N48      1.0000 0.79862  0.22146  0.40374  Biso   1.000  N
  H210     1.0000 0.86942  0.20702  0.43291  Biso   1.000  H
  C251     1.0000 0.76869  0.19238  0.44092  Biso   1.000  C
  C252     1.0000 0.70119  0.19880  0.51189  Biso   1.000  C
  H211     1.0000 0.71318  0.24978  0.45599  Biso   1.000  H
  C253     1.0000 0.77338  0.81951  0.56141  Biso   1.000  C
  H212     1.0000 0.85190  0.81478  0.53080  Biso   1.000  H
  C254     1.0000 0.93180  0.50531  0.94694  Biso   1.000  C
  C255     1.0000 0.96349  0.58908  0.91360  Biso   1.000  C
  H213     1.0000 0.01199  0.53348  0.94609  Biso   1.000  H
  H214     1.0000 0.76558  0.76909  0.47220  Biso   1.000  H
  C256     1.0000 0.78051  0.84378  0.45731  Biso   1.000  C
  H215     1.0000 0.79589  0.17291  0.46008  Biso   1.000  H
  C257     1.0000 0.72861  0.15682  0.41600  Biso   1.000  C
  C258     1.0000 0.66192  0.16440  0.48748  Biso   1.000  C
  H216     1.0000 0.72530  0.17970  0.53379  Biso   1.000  H
  H217     1.0000 0.68011  0.22240  0.53179  Biso   1.000  H
  C259     1.0000 0.75951  0.87151  0.54209  Biso   1.000  C
  H218     1.0000 0.78730  0.82198  0.59501  Biso   1.000  H
  H219     1.0000 0.73980  0.79910  0.56170  Biso   1.000  H
  C260     1.0000 0.93171  0.48449  0.89358  Biso   1.000  C
  H220     1.0000 0.89432  0.51720  0.95621  Biso   1.000  H
  H221     1.0000 0.92760  0.60469  0.92032  Biso   1.000  H
  H222     1.0000 0.99229  0.61459  0.91659  Biso   1.000  H
  C261     1.0000 0.96370  0.56860  0.86264  Biso   1.000  C
  H223     1.0000 0.81341  0.86509  0.45610  Biso   1.000  H
  H224     1.0000 0.76558  0.84119  0.42408  Biso   1.000  H
  C262     1.0000 0.73750  0.86749  0.48999  Biso   1.000  C
  H225     1.0000 0.74961  0.13390  0.39521  Biso   1.000  H
  H226     1.0000 0.70342  0.17580  0.39491  Biso   1.000  H
  C263     1.0000 0.69440  0.12681  0.45288  Biso   1.000  C
  H227     1.0000 0.63521  0.18361  0.46810  Biso   1.000  H
  H228     1.0000 0.64121  0.14579  0.51230  Biso   1.000  H
  H229     1.0000 0.73159  0.88700  0.56310  Biso   1.000  H
  H230     1.0000 0.79292  0.89229  0.54250  Biso   1.000  H
  C264     1.0000 0.91939  0.52639  0.85747  Biso   1.000  C
  H231     1.0000 0.96802  0.46982  0.88620  Biso   1.000  H
  H232     1.0000 0.90350  0.45841  0.89052  Biso   1.000  H
  H233     1.0000 0.95548  0.59520  0.83930  Biso   1.000  H
  H234     1.0000 0.00059  0.55532  0.85500  Biso   1.000  H
  H235     1.0000 0.70350  0.84750  0.48970  Biso   1.000  H
  H236     1.0000 0.72832  0.90069  0.47759  Biso   1.000  H
  H237     1.0000 0.71901  0.10568  0.47249  Biso   1.000  H
  H238     1.0000 0.66799  0.10531  0.43571  Biso   1.000  H
  H239     1.0000 0.88241  0.53990  0.86378  Biso   1.000  H
  H240     1.0000 0.91989  0.51341  0.82402  Biso   1.000  H
  C265     1.0000 0.56210  0.60529  0.28000  Biso   1.000  C
  C266     1.0000 0.54039  0.60810  0.22908  Biso   1.000  C
  H241     1.0000 0.56248  0.57059  0.29089  Biso   1.000  H
  H242     1.0000 0.53779  0.62409  0.30201  Biso   1.000  H
  C267     1.0000 0.62201  0.62701  0.28181  Biso   1.000  C
  C268     1.0000 0.54232  0.65999  0.20689  Biso   1.000  C
  H243     1.0000 0.50191  0.59651  0.22901  Biso   1.000  H
  H244     1.0000 0.56210  0.58559  0.20851  Biso   1.000  H
  C269     1.0000 0.62440  0.68070  0.26139  Biso   1.000  C
  H245     1.0000 0.63509  0.62701  0.31571  Biso   1.000  H
  H246     1.0000 0.64678  0.60582  0.26268  Biso   1.000  H
  C270     1.0000 0.60008  0.68160  0.20885  Biso   1.000  C
  H247     1.0000 0.52999  0.65830  0.17281  Biso   1.000  H
  H248     1.0000 0.51671  0.68171  0.22461  Biso   1.000  H
  N49      1.0000 0.68279  0.69736  0.25980  Biso   1.000  N
  H249     1.0000 0.60268  0.70321  0.28270  Biso   1.000  H
  N50      1.0000 0.60029  0.73468  0.19382  Biso   1.000  N
  H250     1.0000 0.62469  0.66250  0.18680  Biso   1.000  H
  C271     1.0000 0.69629  0.73720  0.28203  Biso   1.000  C
  C272     1.0000 0.63328  0.74811  0.15889  Biso   1.000  C
  C273     1.0000 0.75271  0.75701  0.28033  Biso   1.000  C
  H251     1.0000 0.66908  0.75419  0.30009  Biso   1.000  H
  C274     1.0000 0.63471  0.80139  0.14216  Biso   1.000  C
  H252     1.0000 0.65651  0.72452  0.14390  Biso   1.000  H
  C275     1.0000 0.79040  0.74350  0.24341  Biso   1.000  C
  C276     1.0000 0.77242  0.79111  0.31604  Biso   1.000  C
  C277     1.0000 0.61228  0.84059  0.16937  Biso   1.000  C
  C278     1.0000 0.65802  0.81159  0.09619  Biso   1.000  C
  C279     1.0000 0.84402  0.75899  0.24260  Biso   1.000  C
  H253     1.0000 0.77778  0.72279  0.21812  Biso   1.000  H
  H254     1.0000 0.74802  0.80221  0.34048  Biso   1.000  H
  C280     1.0000 0.82591  0.80840  0.31593  Biso   1.000  C
  C281     1.0000 0.61320  0.88921  0.15220  Biso   1.000  C
  H255     1.0000 0.59631  0.83399  0.19999  Biso   1.000  H
  H256     1.0000 0.67340  0.78601  0.07728  Biso   1.000  H
  C282     1.0000 0.65789  0.86029  0.07939  Biso   1.000  C
  C283     1.0000 0.86280  0.79208  0.27923  Biso   1.000  C
  H257     1.0000 0.86829  0.74781  0.21812  Biso   1.000  H
  H258     1.0000 0.83781  0.83091  0.34000  Biso   1.000  H
  C284     1.0000 0.63559  0.89878  0.10586  Biso   1.000  C
  H259     1.0000 0.59891  0.91521  0.17129  Biso   1.000  H
  H260     1.0000 0.67370  0.86719  0.04870  Biso   1.000  H
  C285     1.0000 0.92161  0.80593  0.28011  Biso   1.000  C
  C286     1.0000 0.63588  0.95070  0.08504  Biso   1.000  C
  N51      1.0000 0.94169  0.83174  0.31988  Biso   1.000  N
  N52      1.0000 0.95389  0.79265  0.24145  Biso   1.000  N
  N53      1.0000 0.65106  0.95547  0.03770  Biso   1.000  N
  N54      1.0000 0.61643  0.98893  0.11347  Biso   1.000  N
  C287     1.0000 0.99698  0.84071  0.31929  Biso   1.000  C
  C288     1.0000 0.00801  0.80435  0.24463  Biso   1.000  C
  C289     1.0000 0.64330  0.00150  0.01935  Biso   1.000  C
  C290     1.0000 0.61220  0.03271  0.09205  Biso   1.000  C
  N55      1.0000 0.03148  0.82844  0.28362  Biso   1.000  N
  C291     1.0000 0.02029  0.86749  0.36279  Biso   1.000  C
  C292     1.0000 0.04389  0.78848  0.20312  Biso   1.000  C
  C293     1.0000 0.65492  0.00930  0.96573  Biso   1.000  C
  N56      1.0000 0.62314  0.04206  0.04368  Biso   1.000  N
  C294     1.0000 0.59581  0.07680  0.12086  Biso   1.000  C
  C295     1.0000 0.98789  0.86982  0.40680  Biso   1.000  C
  C296     1.0000 0.07269  0.88929  0.36061  Biso   1.000  C
  C297     1.0000 0.10270  0.79674  0.20479  Biso   1.000  C
  C298     1.0000 0.02050  0.76196  0.16409  Biso   1.000  C
  C299     1.0000 0.68862  0.97419  0.94107  Biso   1.000  C
  C300     1.0000 0.63060  0.04738  0.93974  Biso   1.000  C
  C301     1.0000 0.57711  0.12039  0.09804  Biso   1.000  C
  C302     1.0000 0.60180  0.07770  0.17185  Biso   1.000  C
  H261     1.0000 0.95389  0.85290  0.40979  Biso   1.000  H
  C303     1.0000 0.00960  0.89859  0.44517  Biso   1.000  C
  C304     1.0000 0.09218  0.91690  0.39908  Biso   1.000  C
  H262     1.0000 0.09478  0.88501  0.33269  Biso   1.000  H
  H263     1.0000 0.11838  0.81501  0.23060  Biso   1.000  H
  C305     1.0000 0.13670  0.77745  0.16793  Biso   1.000  C
  H264     1.0000 0.98202  0.75659  0.16291  Biso   1.000  H
  C306     1.0000 0.05521  0.74320  0.12647  Biso   1.000  C
  H265     1.0000 0.70719  0.94920  0.95850  Biso   1.000  H
  C307     1.0000 0.69390  0.97749  0.88959  Biso   1.000  C
  C308     1.0000 0.63702  0.05095  0.88915  Biso   1.000  C
  H266     1.0000 0.60931  0.07132  0.95632  Biso   1.000  H
  H267     1.0000 0.57221  0.12080  0.06399  Biso   1.000  H
  C309     1.0000 0.56571  0.16278  0.12477  Biso   1.000  C
  C310     1.0000 0.59111  0.11960  0.19759  Biso   1.000  C
  H268     1.0000 0.61329  0.04888  0.18839  Biso   1.000  H
  H269     1.0000 0.98910  0.90118  0.47419  Biso   1.000  H
  C311     1.0000 0.05961  0.92290  0.44199  Biso   1.000  C
  H270     1.0000 0.12739  0.93191  0.39709  Biso   1.000  H
  H271     1.0000 0.17518  0.78301  0.16889  Biso   1.000  H
  C312     1.0000 0.11302  0.74939  0.12876  Biso   1.000  C
  H272     1.0000 0.03940  0.72651  0.09981  Biso   1.000  H
  H273     1.0000 0.71570  0.95412  0.87279  Biso   1.000  H
  C313     1.0000 0.66762  0.01459  0.86393  Biso   1.000  C
  H274     1.0000 0.62100  0.07758  0.87202  Biso   1.000  H
  H275     1.0000 0.55301  0.19141  0.10860  Biso   1.000  H
  C314     1.0000 0.57271  0.16380  0.17502  Biso   1.000  C
  H276     1.0000 0.59619  0.11930  0.23159  Biso   1.000  H
  C315     1.0000 0.08011  0.95809  0.48150  Biso   1.000  C
  C316     1.0000 0.14802  0.72328  0.09335  Biso   1.000  C
  C317     1.0000 0.66908  0.01553  0.80939  Biso   1.000  C
  C318     1.0000 0.56420  0.20859  0.20401  Biso   1.000  C
  N57      1.0000 0.04972  0.96537  0.51972  Biso   1.000  N
  H277     1.0000 0.11448  0.97430  0.47821  Biso   1.000  H
  N58      1.0000 0.20138  0.72144  0.09626  Biso   1.000  N
  H278     1.0000 0.13058  0.70700  0.06709  Biso   1.000  H
  N59      1.0000 0.67290  0.97471  0.78569  Biso   1.000  N
  H279     1.0000 0.66728  0.04588  0.79259  Biso   1.000  H
  N60      1.0000 0.54488  0.24933  0.18570  Biso   1.000  N
  H280     1.0000 0.57309  0.20769  0.23739  Biso   1.000  H
  C319     1.0000 0.06820  0.00533  0.55306  Biso   1.000  C
  C320     1.0000 0.23131  0.69240  0.05908  Biso   1.000  C
  C321     1.0000 0.67470  0.97670  0.73229  Biso   1.000  C
  C322     1.0000 0.54261  0.29372  0.21738  Biso   1.000  C
  C323     1.0000 0.06829  0.98451  0.60642  Biso   1.000  C
  C324     1.0000 0.02570  0.04720  0.54856  Biso   1.000  C
  H281     1.0000 0.10568  0.01718  0.54379  Biso   1.000  H
  H282     1.0000 0.20411  0.67289  0.03992  Biso   1.000  H
  C325     1.0000 0.27139  0.65680  0.08400  Biso   1.000  C
  C326     1.0000 0.26280  0.72759  0.02441  Biso   1.000  C
  C327     1.0000 0.61761  0.96140  0.71091  Biso   1.000  C
  C328     1.0000 0.72002  0.94110  0.71453  Biso   1.000  C
  H283     1.0000 0.68380  0.01092  0.72170  Biso   1.000  H
  H284     1.0000 0.54362  0.28299  0.25201  Biso   1.000  H
  C329     1.0000 0.48879  0.32272  0.20818  Biso   1.000  C
  C330     1.0000 0.59480  0.32542  0.20656  Biso   1.000  C
  H285     1.0000 0.03198  0.96980  0.61380  Biso   1.000  H
  H286     1.0000 0.09650  0.95839  0.60948  Biso   1.000  H
  C331     1.0000 0.08061  0.02641  0.64253  Biso   1.000  C
  H287     1.0000 0.98801  0.03350  0.55391  Biso   1.000  H
  N61      1.0000 0.02909  0.06809  0.49801  Biso   1.000  N
  C332     1.0000 0.03651  0.08910  0.58640  Biso   1.000  C
  H288     1.0000 0.25039  0.63391  0.10479  Biso   1.000  H
  H289     1.0000 0.29658  0.67578  0.10509  Biso   1.000  H
  C333     1.0000 0.30560  0.62679  0.04712  Biso   1.000  C
  N62      1.0000 0.22083  0.75851  0.99756  Biso   1.000  N
  C334     1.0000 0.29881  0.69882  0.98811  Biso   1.000  C
  H290     1.0000 0.28682  0.74980  0.04401  Biso   1.000  H
  H291     1.0000 0.60750  0.92831  0.72280  Biso   1.000  H
  H292     1.0000 0.58918  0.98492  0.72170  Biso   1.000  H
  C335     1.0000 0.62029  0.96098  0.65520  Biso   1.000  C
  N63      1.0000 0.77376  0.95618  0.73617  Biso   1.000  N
  C336     1.0000 0.72190  0.94211  0.65881  Biso   1.000  C
  H293     1.0000 0.71100  0.90700  0.72550  Biso   1.000  H
  H294     1.0000 0.45701  0.30279  0.21889  Biso   1.000  H
  H295     1.0000 0.48472  0.32891  0.17310  Biso   1.000  H
  C337     1.0000 0.48862  0.37310  0.23599  Biso   1.000  C
  N64      1.0000 0.64418  0.29713  0.22092  Biso   1.000  N
  C338     1.0000 0.59388  0.37490  0.23399  Biso   1.000  C
  H296     1.0000 0.59652  0.33210  0.17100  Biso   1.000  H
  C339     1.0000 0.03630  0.06862  0.63736  Biso   1.000  C
  H297     1.0000 0.11759  0.03992  0.63622  Biso   1.000  H
  H298     1.0000 0.08011  0.01339  0.67598  Biso   1.000  H
  C340     1.0000 0.98290  0.07297  0.47533  Biso   1.000  C
  H299     1.0000 0.07240  0.10471  0.57968  Biso   1.000  H
  H300     1.0000 0.00771  0.11461  0.58341  Biso   1.000  H
  H301     1.0000 0.28099  0.60570  0.02751  Biso   1.000  H
  H302     1.0000 0.33201  0.60529  0.06429  Biso   1.000  H
  C341     1.0000 0.33808  0.66442  0.01252  Biso   1.000  C
  C342     1.0000 0.22289  0.80330  0.00569  Biso   1.000  C
  H303     1.0000 0.27470  0.67968  0.96621  Biso   1.000  H
  H304     1.0000 0.31989  0.72242  0.96821  Biso   1.000  H
  H305     1.0000 0.58462  0.94992  0.64209  Biso   1.000  H
  H306     1.0000 0.62708  0.99479  0.64331  Biso   1.000  H
  C343     1.0000 0.66510  0.92752  0.63710  Biso   1.000  C
  C344     1.0000 0.79271  0.92639  0.76911  Biso   1.000  C
  H307     1.0000 0.75041  0.91889  0.64711  Biso   1.000  H
  H308     1.0000 0.73201  0.97550  0.64759  Biso   1.000  H
  H309     1.0000 0.45521  0.39178  0.22720  Biso   1.000  H
  H310     1.0000 0.48749  0.36680  0.27121  Biso   1.000  H
  C345     1.0000 0.53850  0.40371  0.22439  Biso   1.000  C
  C346     1.0000 0.67969  0.28520  0.18776  Biso   1.000  C
  H311     1.0000 0.62540  0.39520  0.22340  Biso   1.000  H
  H312     1.0000 0.59782  0.36871  0.26911  Biso   1.000  H
  H313     1.0000 0.99941  0.05530  0.64500  Biso   1.000  H
  H314     1.0000 0.04452  0.09522  0.66070  Biso   1.000  H
  C347     1.0000 0.97749  0.09180  0.42441  Biso   1.000  C
  H315     1.0000 0.95020  0.06412  0.49199  Biso   1.000  H
  H316     1.0000 0.35879  0.64581  0.98770  Biso   1.000  H
  H317     1.0000 0.36479  0.68359  0.03190  Biso   1.000  H
  C348     1.0000 0.18109  0.83890  0.98180  Biso   1.000  C
  H318     1.0000 0.25030  0.81598  0.02681  Biso   1.000  H
  H319     1.0000 0.66682  0.92939  0.60128  Biso   1.000  H
  H320     1.0000 0.65638  0.89319  0.64611  Biso   1.000  H
  C349     1.0000 0.84490  0.93911  0.79758  Biso   1.000  C
  H321     1.0000 0.77401  0.89642  0.77550  Biso   1.000  H
  H322     1.0000 0.53800  0.43391  0.24441  Biso   1.000  H
  H323     1.0000 0.53712  0.41381  0.19002  Biso   1.000  H
  C350     1.0000 0.73108  0.25815  0.19722  Biso   1.000  C
  H324     1.0000 0.67210  0.29462  0.15542  Biso   1.000  H
  C351     1.0000 0.92408  0.09732  0.40680  Biso   1.000  C
  C352     1.0000 0.02381  0.10606  0.39510  Biso   1.000  C
  C353     1.0000 0.13339  0.82251  0.95890  Biso   1.000  C
  C354     1.0000 0.18969  0.89120  0.99069  Biso   1.000  C
  C355     1.0000 0.87030  0.98608  0.79400  Biso   1.000  C
  C356     1.0000 0.86829  0.90268  0.82867  Biso   1.000  C
  C357     1.0000 0.73909  0.23039  0.24116  Biso   1.000  C
  C358     1.0000 0.77460  0.25901  0.16358  Biso   1.000  C
  H325     1.0000 0.89390  0.08869  0.42689  Biso   1.000  H
  C359     1.0000 0.91390  0.11551  0.35969  Biso   1.000  C
  C360     1.0000 0.01379  0.12365  0.34787  Biso   1.000  C
  H326     1.0000 0.06011  0.10370  0.40721  Biso   1.000  H
  C361     1.0000 0.09700  0.85770  0.93800  Biso   1.000  C
  H327     1.0000 0.12521  0.78841  0.95720  Biso   1.000  H
  C362     1.0000 0.15678  0.92422  0.96680  Biso   1.000  C
  H328     1.0000 0.21740  0.90208  0.01241  Biso   1.000  H
  C363     1.0000 0.91780  0.99580  0.82099  Biso   1.000  C
  H329     1.0000 0.85521  0.01062  0.77350  Biso   1.000  H
  H330     1.0000 0.85152  0.87139  0.83170  Biso   1.000  H
  C364     1.0000 0.91650  0.91360  0.85485  Biso   1.000  C
  C365     1.0000 0.78881  0.20803  0.25035  Biso   1.000  C
  H331     1.0000 0.70991  0.22750  0.26379  Biso   1.000  H
  H332     1.0000 0.76881  0.27440  0.13319  Biso   1.000  H
  C366     1.0000 0.82578  0.23830  0.17329  Biso   1.000  C
  C367     1.0000 0.95930  0.12864  0.32955  Biso   1.000  C
  H333     1.0000 0.87730  0.11889  0.34820  Biso   1.000  H
  H334     1.0000 0.04402  0.13228  0.32789  Biso   1.000  H
  C368     1.0000 0.10761  0.90921  0.94269  Biso   1.000  C
  H335     1.0000 0.06540  0.84690  0.92091  Biso   1.000  H
  H336     1.0000 0.16701  0.95791  0.96629  Biso   1.000  H
  C369     1.0000 0.94068  0.95948  0.85197  Biso   1.000  C
  H337     1.0000 0.93498  0.02701  0.81851  Biso   1.000  H
  H338     1.0000 0.93259  0.88899  0.87471  Biso   1.000  H
  C370     1.0000 0.83320  0.21140  0.21690  Biso   1.000  C
  H339     1.0000 0.79359  0.19010  0.27948  Biso   1.000  H
  H340     1.0000 0.85521  0.24202  0.15110  Biso   1.000  H
  C371     1.0000 0.94848  0.15164  0.28044  Biso   1.000  C
  C372     1.0000 0.07152  0.94729  0.91928  Biso   1.000  C
  C373     1.0000 0.99220  0.97179  0.88029  Biso   1.000  C
  C374     1.0000 0.88942  0.18995  0.22820  Biso   1.000  C
  N65      1.0000 0.89591  0.16639  0.27125  Biso   1.000  N
  N66      1.0000 0.99212  0.15742  0.25013  Biso   1.000  N
  N67      1.0000 0.02431  0.93311  0.89742  Biso   1.000  N
  N68      1.0000 0.08812  0.99509  0.92700  Biso   1.000  N
  N69      1.0000 0.00423  0.02037  0.88653  Biso   1.000  N
  N70      1.0000 0.92911  0.19677  0.19467  Biso   1.000  N
  C375     1.0000 0.98088  0.18049  0.20715  Biso   1.000  C
  C376     1.0000 0.05269  0.03020  0.91031  Biso   1.000  C
  C377     1.0000 0.02670  0.19043  0.17255  Biso   1.000  C
  C378     1.0000 0.06841  0.08209  0.91880  Biso   1.000  C
  C379     1.0000 0.01639  0.22048  0.13138  Biso   1.000  C
  C380     1.0000 0.07940  0.17280  0.18101  Biso   1.000  C
  C381     1.0000 0.12719  0.09289  0.92449  Biso   1.000  C
  C382     1.0000 0.02880  0.11960  0.92342  Biso   1.000  C
  H341     1.0000 0.98030  0.23159  0.12458  Biso   1.000  H
  C383     1.0000 0.06041  0.23361  0.10069  Biso   1.000  C
  C384     1.0000 0.12392  0.18559  0.14969  Biso   1.000  C
  H342     1.0000 0.08589  0.15190  0.20800  Biso   1.000  H
  H343     1.0000 0.15389  0.06760  0.92220  Biso   1.000  H
  C385     1.0000 0.14291  0.14301  0.93368  Biso   1.000  C
  H344     1.0000 0.99099  0.11229  0.91899  Biso   1.000  H
  C386     1.0000 0.04532  0.16849  0.93457  Biso   1.000  C
  H345     1.0000 0.05349  0.25399  0.07352  Biso   1.000  H
  C387     1.0000 0.11520  0.21677  0.10970  Biso   1.000  C
  H346     1.0000 0.15951  0.17299  0.15590  Biso   1.000  H
  H347     1.0000 0.18080  0.15100  0.93560  Biso   1.000  H
  C388     1.0000 0.10371  0.18000  0.93996  Biso   1.000  C
  H348     1.0000 0.01849  0.19351  0.93848  Biso   1.000  H
  C389     1.0000 0.16152  0.23534  0.08098  Biso   1.000  C
  C390     1.0000 0.12018  0.23039  0.95226  Biso   1.000  C
  N71      1.0000 0.15573  0.27451  0.05387  Biso   1.000  N
  H349     1.0000 0.19589  0.21891  0.08201  Biso   1.000  H
  N72      1.0000 0.17141  0.24419  0.95440  Biso   1.000  N
  H350     1.0000 0.09239  0.25391  0.95890  Biso   1.000  H
  C391     1.0000 0.20281  0.29240  0.02492  Biso   1.000  C
  C392     1.0000 0.18281  0.29510  0.97079  Biso   1.000  C
  H351     1.0000 0.23442  0.26911  0.02780  Biso   1.000  H
  C393     1.0000 0.21949  0.34380  0.04269  Biso   1.000  C
  C394     1.0000 0.22662  0.31949  0.93859  Biso   1.000  C
  H352     1.0000 0.14810  0.31480  0.96920  Biso   1.000  H
  H353     1.0000 0.18659  0.36511  0.04390  Biso   1.000  H
  H354     1.0000 0.23442  0.34121  0.07592  Biso   1.000  H
  C395     1.0000 0.26250  0.36751  0.01001  Biso   1.000  C
  C396     1.0000 0.24049  0.37149  0.95791  Biso   1.000  C
  H355     1.0000 0.21270  0.32200  0.90499  Biso   1.000  H
  H356     1.0000 0.26020  0.29912  0.93830  Biso   1.000  H
  H357     1.0000 0.29650  0.34751  0.01030  Biso   1.000  H
  H358     1.0000 0.27168  0.40071  0.02241  Biso   1.000  H
  H359     1.0000 0.26841  0.38698  0.93690  Biso   1.000  H
  H360     1.0000 0.20708  0.39231  0.95750  Biso   1.000  H
  C397     1.0000 0.35200  0.27672  0.59335  Biso   1.000  C
  N73      1.0000 0.29860  0.27856  0.59626  Biso   1.000  N
  C398     1.0000 0.38700  0.25061  0.62876  Biso   1.000  C
  H361     1.0000 0.36940  0.29300  0.56709  Biso   1.000  H
  C399     1.0000 0.26871  0.30760  0.55908  Biso   1.000  C
  C400     1.0000 0.36332  0.22255  0.66793  Biso   1.000  C
  C401     1.0000 0.44481  0.25680  0.62647  Biso   1.000  C
  C402     1.0000 0.23718  0.27241  0.52441  Biso   1.000  C
  H362     1.0000 0.29591  0.32711  0.53992  Biso   1.000  H
  C403     1.0000 0.22859  0.34320  0.58400  Biso   1.000  C
  C404     1.0000 0.39732  0.20326  0.70479  Biso   1.000  C
  H363     1.0000 0.32480  0.21699  0.66889  Biso   1.000  H
  H364     1.0000 0.46062  0.27349  0.59981  Biso   1.000  H
  C405     1.0000 0.47948  0.23804  0.66409  Biso   1.000  C
  N74      1.0000 0.27919  0.24149  0.49756  Biso   1.000  N
  C406     1.0000 0.20122  0.30118  0.48811  Biso   1.000  C
  H365     1.0000 0.21320  0.25020  0.54401  Biso   1.000  H
  H366     1.0000 0.24959  0.36609  0.60479  Biso   1.000  H
  H367     1.0000 0.20340  0.32422  0.60509  Biso   1.000  H
  C407     1.0000 0.19438  0.37321  0.54712  Biso   1.000  C
  C408     1.0000 0.45609  0.21152  0.70312  Biso   1.000  C
  H368     1.0000 0.38160  0.18499  0.73060  Biso   1.000  H
  H369     1.0000 0.51800  0.24341  0.66291  Biso   1.000  H
  C409     1.0000 0.27709  0.19670  0.50569  Biso   1.000  C
  C410     1.0000 0.16189  0.33558  0.51252  Biso   1.000  C
  H370     1.0000 0.22532  0.32032  0.46621  Biso   1.000  H
  H371     1.0000 0.18009  0.27758  0.46821  Biso   1.000  H
  H372     1.0000 0.21899  0.39430  0.52751  Biso   1.000  H
  H373     1.0000 0.16802  0.39471  0.56429  Biso   1.000  H
  C411     1.0000 0.49201  0.19565  0.74463  Biso   1.000  C
  C412     1.0000 0.31888  0.16110  0.48180  Biso   1.000  C
  H374     1.0000 0.24972  0.18402  0.52681  Biso   1.000  H
  H375     1.0000 0.13519  0.31641  0.53190  Biso   1.000  H
  H376     1.0000 0.14119  0.35419  0.48770  Biso   1.000  H
  N75      1.0000 0.46850  0.17156  0.78362  Biso   1.000  N
  N76      1.0000 0.54609  0.20735  0.74145  Biso   1.000  N
  C413     1.0000 0.36659  0.17749  0.45890  Biso   1.000  C
  C414     1.0000 0.31029  0.10880  0.49069  Biso   1.000  C
  C415     1.0000 0.50300  0.15929  0.81929  Biso   1.000  C
  C416     1.0000 0.57841  0.19407  0.78011  Biso   1.000  C
  C417     1.0000 0.40302  0.14230  0.43800  Biso   1.000  C
  H377     1.0000 0.37481  0.21159  0.45720  Biso   1.000  H
  C418     1.0000 0.34320  0.07578  0.46680  Biso   1.000  C
  H378     1.0000 0.28258  0.09792  0.51241  Biso   1.000  H
  N77      1.0000 0.55829  0.16826  0.81988  Biso   1.000  N
  C419     1.0000 0.47969  0.13251  0.86279  Biso   1.000  C
  C420     1.0000 0.63718  0.20792  0.77923  Biso   1.000  C
  C421     1.0000 0.39241  0.09079  0.44269  Biso   1.000  C
  H379     1.0000 0.43458  0.15310  0.42091  Biso   1.000  H
  H380     1.0000 0.33301  0.04209  0.46629  Biso   1.000  H
  C422     1.0000 0.51209  0.13018  0.90680  Biso   1.000  C
  C423     1.0000 0.42729  0.11071  0.86061  Biso   1.000  C
  C424     1.0000 0.65601  0.24101  0.74260  Biso   1.000  C
  C425     1.0000 0.67411  0.19160  0.81593  Biso   1.000  C
  C426     1.0000 0.42851  0.05271  0.41928  Biso   1.000  C
  H381     1.0000 0.54609  0.14710  0.90979  Biso   1.000  H
  C427     1.0000 0.49038  0.10141  0.94517  Biso   1.000  C
  C428     1.0000 0.40780  0.08310  0.89908  Biso   1.000  C
  H382     1.0000 0.40520  0.11499  0.83269  Biso   1.000  H
  H383     1.0000 0.63169  0.25219  0.71812  Biso   1.000  H
  C429     1.0000 0.70962  0.25650  0.74341  Biso   1.000  C
  C430     1.0000 0.72760  0.20889  0.81604  Biso   1.000  C
  H384     1.0000 0.66221  0.16909  0.84000  Biso   1.000  H
  N78      1.0000 0.41191  0.00491  0.42700  Biso   1.000  N
  N79      1.0000 0.47571  0.06689  0.39742  Biso   1.000  N
  H385     1.0000 0.51092  0.09882  0.97419  Biso   1.000  H
  C431     1.0000 0.44041  0.07710  0.94199  Biso   1.000  C
  H386     1.0000 0.37258  0.06809  0.89709  Biso   1.000  H
  H387     1.0000 0.72220  0.27721  0.71812  Biso   1.000  H
  C432     1.0000 0.74731  0.24299  0.78033  Biso   1.000  C
  H388     1.0000 0.75200  0.19779  0.84048  Biso   1.000  H
  C433     1.0000 0.44729  0.96980  0.41031  Biso   1.000  C
  C434     1.0000 0.50782  0.02821  0.38029  Biso   1.000  C
  C435     1.0000 0.41991  0.04191  0.98150  Biso   1.000  C
  C436     1.0000 0.80369  0.26280  0.78203  Biso   1.000  C
  N80      1.0000 0.49575  0.97963  0.38653  Biso   1.000  N
  C437     1.0000 0.43161  0.91791  0.41880  Biso   1.000  C
  C438     1.0000 0.55930  0.04052  0.35197  Biso   1.000  C
  H389     1.0000 0.38550  0.02570  0.97821  Biso   1.000  H
  N81      1.0000 0.45030  0.03463  0.01972  Biso   1.000  N
  N82      1.0000 0.81719  0.30264  0.75980  Biso   1.000  N
  H390     1.0000 0.83089  0.24581  0.80009  Biso   1.000  H
  C439     1.0000 0.37279  0.90711  0.42449  Biso   1.000  C
  C440     1.0000 0.47118  0.88040  0.42342  Biso   1.000  C
  C441     1.0000 0.58218  0.00420  0.32099  Biso   1.000  C
  C442     1.0000 0.58348  0.08640  0.35485  Biso   1.000  C
  C443     1.0000 0.43182  0.99467  0.05306  Biso   1.000  C
  C444     1.0000 0.87558  0.31930  0.76139  Biso   1.000  C
  H391     1.0000 0.34609  0.93240  0.42220  Biso   1.000  H
  C445     1.0000 0.35712  0.85699  0.43368  Biso   1.000  C
  C446     1.0000 0.45471  0.83151  0.43457  Biso   1.000  C
  H392     1.0000 0.50899  0.88771  0.41899  Biso   1.000  H
  C447     1.0000 0.62968  0.01392  0.29400  Biso   1.000  C
  H393     1.0000 0.56500  0.97299  0.31851  Biso   1.000  H
  C448     1.0000 0.63169  0.09732  0.32867  Biso   1.000  C
  H394     1.0000 0.56739  0.11101  0.37471  Biso   1.000  H
  C449     1.0000 0.47428  0.95280  0.04856  Biso   1.000  C
  H395     1.0000 0.39430  0.98282  0.04379  Biso   1.000  H
  C450     1.0000 0.43169  0.01549  0.10642  Biso   1.000  C
  C451     1.0000 0.89990  0.31840  0.70885  Biso   1.000  C
  C452     1.0000 0.87801  0.37299  0.78181  Biso   1.000  C
  H396     1.0000 0.89730  0.29679  0.78270  Biso   1.000  H
  H397     1.0000 0.31922  0.84900  0.43560  Biso   1.000  H
  C453     1.0000 0.39631  0.82000  0.43996  Biso   1.000  C
  H398     1.0000 0.48149  0.80649  0.43848  Biso   1.000  H
  C454     1.0000 0.65508  0.06089  0.29758  Biso   1.000  C
  H399     1.0000 0.64481  0.98938  0.27350  Biso   1.000  H
  H400     1.0000 0.64850  0.12861  0.33170  Biso   1.000  H
  N83      1.0000 0.47089  0.93191  0.99801  Biso   1.000  N
  H401     1.0000 0.51201  0.96650  0.05391  Biso   1.000  H
  C455     1.0000 0.46351  0.91090  0.08640  Biso   1.000  C
  C456     1.0000 0.41941  0.97359  0.14253  Biso   1.000  C
  H402     1.0000 0.46799  0.03020  0.11380  Biso   1.000  H
  H403     1.0000 0.40348  0.04161  0.10948  Biso   1.000  H
  N84      1.0000 0.89969  0.26532  0.69382  Biso   1.000  N
  H404     1.0000 0.87529  0.33750  0.68680  Biso   1.000  H
  C457     1.0000 0.95770  0.34001  0.70689  Biso   1.000  C
  C458     1.0000 0.93792  0.39471  0.78000  Biso   1.000  C
  H405     1.0000 0.86489  0.37299  0.81571  Biso   1.000  H
  H406     1.0000 0.85320  0.39418  0.76268  Biso   1.000  H
  C459     1.0000 0.37979  0.76961  0.45226  Biso   1.000  C
  C460     1.0000 0.70732  0.07361  0.26911  Biso   1.000  C
  C461     1.0000 0.51708  0.92703  0.97533  Biso   1.000  C
  H407     1.0000 0.42758  0.89529  0.07968  Biso   1.000  H
  H408     1.0000 0.49231  0.88539  0.08341  Biso   1.000  H
  C462     1.0000 0.46372  0.93138  0.13736  Biso   1.000  C
  H409     1.0000 0.38239  0.96008  0.13622  Biso   1.000  H
  H410     1.0000 0.41991  0.98661  0.17598  Biso   1.000  H
  C463     1.0000 0.86669  0.25189  0.65889  Biso   1.000  C
  H411     1.0000 0.96999  0.34170  0.67281  Biso   1.000  H
  H412     1.0000 0.98332  0.31829  0.72461  Biso   1.000  H
  C464     1.0000 0.95959  0.39190  0.72908  Biso   1.000  C
  H413     1.0000 0.93750  0.42941  0.79089  Biso   1.000  H
  H414     1.0000 0.96219  0.37591  0.80201  Biso   1.000  H
  N85      1.0000 0.32861  0.75581  0.45440  Biso   1.000  N
  H415     1.0000 0.40759  0.74609  0.45890  Biso   1.000  H
  N86      1.0000 0.72622  0.04382  0.23617  Biso   1.000  N
  H416     1.0000 0.72601  0.10358  0.27550  Biso   1.000  H
  C465     1.0000 0.52249  0.90820  0.92441  Biso   1.000  C
  H417     1.0000 0.54978  0.93588  0.99199  Biso   1.000  H
  H418     1.0000 0.50061  0.94470  0.14500  Biso   1.000  H
  H419     1.0000 0.45550  0.90478  0.16070  Biso   1.000  H
  C466     1.0000 0.86531  0.19861  0.64216  Biso   1.000  C
  H420     1.0000 0.84351  0.27548  0.64390  Biso   1.000  H
  H421     1.0000 0.99811  0.40349  0.72901  Biso   1.000  H
  H422     1.0000 0.93792  0.41441  0.70851  Biso   1.000  H
  C467     1.0000 0.31721  0.70490  0.47079  Biso   1.000  C
  C468     1.0000 0.78000  0.05890  0.21453  Biso   1.000  C
  C469     1.0000 0.47621  0.89394  0.89510  Biso   1.000  C
  C470     1.0000 0.57590  0.90268  0.90680  Biso   1.000  C
  C471     1.0000 0.88770  0.15941  0.66937  Biso   1.000  C
  C472     1.0000 0.84200  0.18841  0.59619  Biso   1.000  C
  C473     1.0000 0.29721  0.70760  0.52492  Biso   1.000  C
  C474     1.0000 0.27340  0.68051  0.43859  Biso   1.000  C
  H423     1.0000 0.35192  0.68520  0.46920  Biso   1.000  H
  C475     1.0000 0.82532  0.02330  0.23229  Biso   1.000  C
  C476     1.0000 0.77812  0.05789  0.15881  Biso   1.000  C
  H424     1.0000 0.78902  0.09300  0.22550  Biso   1.000  H
  C477     1.0000 0.48619  0.87635  0.84787  Biso   1.000  C
  H425     1.0000 0.43991  0.89630  0.90721  Biso   1.000  H
  C478     1.0000 0.58608  0.88449  0.85969  Biso   1.000  C
  H426     1.0000 0.60612  0.91131  0.92689  Biso   1.000  H
  C479     1.0000 0.88682  0.11079  0.65220  Biso   1.000  C
  H427     1.0000 0.90371  0.16601  0.69999  Biso   1.000  H
  C480     1.0000 0.84209  0.13971  0.57939  Biso   1.000  C
  H428     1.0000 0.82662  0.21399  0.57728  Biso   1.000  H
  N87      1.0000 0.34429  0.72549  0.55387  Biso   1.000  N
  H429     1.0000 0.26560  0.73089  0.52780  Biso   1.000  H
  C481     1.0000 0.28049  0.65620  0.54269  Biso   1.000  C
  C482     1.0000 0.25948  0.62851  0.45791  Biso   1.000  C
  H430     1.0000 0.28732  0.67800  0.40499  Biso   1.000  H
  H431     1.0000 0.23978  0.70088  0.43830  Biso   1.000  H
  N88      1.0000 0.82708  0.02529  0.28569  Biso   1.000  N
  C483     1.0000 0.88241  0.03860  0.21091  Biso   1.000  C
  H432     1.0000 0.81618  0.98908  0.22170  Biso   1.000  H
  C484     1.0000 0.83492  0.07248  0.13710  Biso   1.000  C
  H433     1.0000 0.74961  0.08111  0.14711  Biso   1.000  H
  H434     1.0000 0.76802  0.02450  0.14759  Biso   1.000  H
  C485     1.0000 0.54068  0.87136  0.82955  Biso   1.000  C
  H435     1.0000 0.45601  0.86772  0.82789  Biso   1.000  H
  H436     1.0000 0.62272  0.88111  0.84820  Biso   1.000  H
  C486     1.0000 0.86439  0.10122  0.60586  Biso   1.000  C
  H437     1.0000 0.90111  0.08479  0.67129  Biso   1.000  H
  H438     1.0000 0.82628  0.13281  0.54870  Biso   1.000  H
  C487     1.0000 0.33850  0.76466  0.58098  Biso   1.000  C
  H439     1.0000 0.31339  0.63489  0.54390  Biso   1.000  H
  H440     1.0000 0.26560  0.65879  0.57592  Biso   1.000  H
  C488     1.0000 0.23752  0.63249  0.51001  Biso   1.000  C
  H441     1.0000 0.23161  0.61302  0.43690  Biso   1.000  H
  H442     1.0000 0.29289  0.60769  0.45750  Biso   1.000  H
  C489     1.0000 0.83089  0.98447  0.30939  Biso   1.000  C
  H443     1.0000 0.89252  0.07169  0.22280  Biso   1.000  H
  H444     1.0000 0.91079  0.01508  0.22170  Biso   1.000  H
  C490     1.0000 0.87969  0.03902  0.15520  Biso   1.000  C
  H445     1.0000 0.83320  0.07061  0.10128  Biso   1.000  H
  H446     1.0000 0.84360  0.10681  0.14611  Biso   1.000  H
  C491     1.0000 0.55150  0.84836  0.78044  Biso   1.000  C
  C492     1.0000 0.86410  0.04930  0.58504  Biso   1.000  C
  C493     1.0000 0.38478  0.78323  0.60970  Biso   1.000  C
  H447     1.0000 0.30409  0.78109  0.58201  Biso   1.000  H
  H448     1.0000 0.20348  0.65249  0.51030  Biso   1.000  H
  H449     1.0000 0.22830  0.59929  0.52241  Biso   1.000  H
  C494     1.0000 0.83240  0.98541  0.36393  Biso   1.000  C
  H450     1.0000 0.83270  0.95412  0.29259  Biso   1.000  H
  H451     1.0000 0.91541  0.05008  0.14209  Biso   1.000  H
  H452     1.0000 0.87290  0.00521  0.14331  Biso   1.000  H
  N89      1.0000 0.50786  0.84258  0.75013  Biso   1.000  N
  N90      1.0000 0.60407  0.83361  0.77125  Biso   1.000  N
  N91      1.0000 0.84896  0.04453  0.53770  Biso   1.000  N
  N92      1.0000 0.88359  0.01107  0.61347  Biso   1.000  N
  C495     1.0000 0.43961  0.76639  0.60069  Biso   1.000  C
  C496     1.0000 0.37611  0.81441  0.64969  Biso   1.000  C
  C497     1.0000 0.80612  0.02251  0.38959  Biso   1.000  C
  C498     1.0000 0.86301  0.94905  0.38915  Biso   1.000  C
  C499     1.0000 0.51909  0.81951  0.70715  Biso   1.000  C
  C500     1.0000 0.61061  0.81005  0.72820  Biso   1.000  C
  C501     1.0000 0.85672  0.99850  0.51935  Biso   1.000  C
  C502     1.0000 0.88778  0.96729  0.59205  Biso   1.000  C
  C503     1.0000 0.48359  0.77952  0.63138  Biso   1.000  C
  H453     1.0000 0.44649  0.74601  0.57352  Biso   1.000  H
  H454     1.0000 0.34052  0.82701  0.65590  Biso   1.000  H
  C504     1.0000 0.42058  0.82720  0.68101  Biso   1.000  C
  C505     1.0000 0.81140  0.02581  0.44107  Biso   1.000  C
  H455     1.0000 0.78428  0.04588  0.37279  Biso   1.000  H
  H456     1.0000 0.87902  0.92242  0.37202  Biso   1.000  H
  C506     1.0000 0.86942  0.95262  0.43974  Biso   1.000  C
  C507     1.0000 0.47332  0.80957  0.67255  Biso   1.000  C
  N93      1.0000 0.57091  0.80323  0.69467  Biso   1.000  N
  C508     1.0000 0.66682  0.78860  0.71690  Biso   1.000  C
  C509     1.0000 0.84511  0.99070  0.46573  Biso   1.000  C
  N94      1.0000 0.87684  0.95794  0.54368  Biso   1.000  N
  C510     1.0000 0.90421  0.92320  0.62086  Biso   1.000  C
  H457     1.0000 0.51968  0.76841  0.62458  Biso   1.000  H
  H458     1.0000 0.41409  0.84810  0.70800  Biso   1.000  H
  H459     1.0000 0.79279  0.05080  0.45850  Biso   1.000  H
  H460     1.0000 0.89071  0.92868  0.45632  Biso   1.000  H
  C511     1.0000 0.71121  0.79197  0.75035  Biso   1.000  C
  C512     1.0000 0.67420  0.76170  0.67329  Biso   1.000  C
  C513     1.0000 0.92291  0.87961  0.59804  Biso   1.000  C
  C514     1.0000 0.89822  0.92230  0.67185  Biso   1.000  C
  H461     1.0000 0.70639  0.80990  0.77948  Biso   1.000  H
  C515     1.0000 0.76089  0.76961  0.74116  Biso   1.000  C
  C516     1.0000 0.72538  0.74099  0.66358  Biso   1.000  C
  H462     1.0000 0.64481  0.75798  0.65110  Biso   1.000  H
  H463     1.0000 0.92781  0.87920  0.56399  Biso   1.000  H
  C517     1.0000 0.93431  0.83722  0.62477  Biso   1.000  C
  C518     1.0000 0.90891  0.88040  0.69759  Biso   1.000  C
  H464     1.0000 0.88669  0.95112  0.68839  Biso   1.000  H
  H465     1.0000 0.79011  0.77250  0.76379  Biso   1.000  H
  C519     1.0000 0.76890  0.74185  0.69722  Biso   1.000  C
  H466     1.0000 0.73121  0.72560  0.63319  Biso   1.000  H
  H467     1.0000 0.94701  0.80859  0.60860  Biso   1.000  H
  C520     1.0000 0.92731  0.83620  0.67502  Biso   1.000  C
  H468     1.0000 0.90379  0.88070  0.73159  Biso   1.000  H
  C521     1.0000 0.82029  0.71480  0.68776  Biso   1.000  C
  C522     1.0000 0.93582  0.79141  0.70401  Biso   1.000  C
  N95      1.0000 0.85584  0.70287  0.72092  Biso   1.000  N
  H469     1.0000 0.82792  0.70538  0.65542  Biso   1.000  H
  N96      1.0000 0.95515  0.75067  0.68570  Biso   1.000  N
  H470     1.0000 0.92689  0.79231  0.73739  Biso   1.000  H
  C523     1.0000 0.90522  0.67458  0.70656  Biso   1.000  C
  C524     1.0000 0.95741  0.70628  0.71738  Biso   1.000  C
  C525     1.0000 0.90610  0.62510  0.73399  Biso   1.000  C
  H471     1.0000 0.90350  0.66790  0.67100  Biso   1.000  H
  H472     1.0000 0.95640  0.71701  0.75201  Biso   1.000  H
  C526     1.0000 0.01119  0.67728  0.70818  Biso   1.000  C
  C527     1.0000 0.96152  0.59629  0.72439  Biso   1.000  C
  H473     1.0000 0.87462  0.60480  0.72340  Biso   1.000  H
  H474     1.0000 0.90220  0.63129  0.76911  Biso   1.000  H
  H475     1.0000 0.04301  0.69721  0.71889  Biso   1.000  H
  H476     1.0000 0.01530  0.67109  0.67310  Biso   1.000  H
  C528     1.0000 0.01140  0.62690  0.73599  Biso   1.000  C
  H477     1.0000 0.96202  0.56609  0.74441  Biso   1.000  H
  H478     1.0000 0.96290  0.58619  0.69002  Biso   1.000  H
  H479     1.0000 0.04481  0.60822  0.72720  Biso   1.000  H
  H480     1.0000 0.01249  0.63320  0.77121  Biso   1.000  H
  Ne1      1.0000 0.10495  0.49489  0.37531  Biso   1.000  Ne
  He1      1.0000 0.16969  0.61841  0.48221  Biso   1.000  He
  He2      1.0000 0.12486  0.34026  0.46491  Biso   1.000  He
  He3      1.0000 0.85457  0.48516  0.34214  Biso   1.000  He
  He4      1.0000 0.24662  0.49429  0.20404  Biso   1.000  He
  Ar1      1.0000 0.09772  0.47531  0.39679  Biso   1.000  Ar
  Ne2      1.0000 0.60496  0.00511  0.62469  Biso   1.000  Ne
  He5      1.0000 0.73997  0.00574  0.78745  Biso   1.000  He
  He6      1.0000 0.35114  0.01458  0.65904  Biso   1.000  He
  He7      1.0000 0.62973  0.18146  0.52693  Biso   1.000  He
  He8      1.0000 0.66974  0.88148  0.51771  Biso   1.000  He
  Ar2      1.0000 0.59702  0.02479  0.60338  Biso   1.000  Ar
  Ne3      1.0000 0.39504  0.50511  0.87531  Biso   1.000  Ne
  He9      1.0000 0.32863  0.37833  0.98464  Biso   1.000  He
  He10     1.0000 0.37411  0.66438  0.96663  Biso   1.000  He
  He11     1.0000 0.60250  0.51787  0.85587  Biso   1.000  He
  He12     1.0000 0.25830  0.50574  0.71033  Biso   1.000  He
  Ar3      1.0000 0.40264  0.52503  0.89678  Biso   1.000  Ar
  Ne4      1.0000 0.89505  0.99489  0.12469  Biso   1.000  Ne
  He13     1.0000 0.75907  0.99427  0.28867  Biso   1.000  He
  He14     1.0000 0.11822  0.98321  0.14844  Biso   1.000  He
  He15     1.0000 0.86917  0.81285  0.02471  Biso   1.000  He
  He16     1.0000 0.82961  0.11979  0.01679  Biso   1.000  He
  Ar4      1.0000 0.90226  0.97524  0.10353  Biso   1.000  Ar
