data_image0
_cell_length_a       22.91
_cell_length_b       34.896
_cell_length_c       20.44
_cell_angle_alpha    90
_cell_angle_beta     90
_cell_angle_gamma    90

_symmetry_space_group_name_H-M    "P 1"
_symmetry_int_tables_number       1

loop_
  _symmetry_equiv_pos_as_xyz
  'x, y, z'

loop_
  _atom_site_label
  _atom_site_occupancy
  _atom_site_fract_x
  _atom_site_fract_y
  _atom_site_fract_z
  _atom_site_thermal_displace_type
  _atom_site_B_iso_or_equiv
  _atom_site_type_symbol
  C1       1.0000 0.55701  0.28499  0.48048  Biso   1.000  C
  C2       1.0000 0.55181  0.29889  0.41101  Biso   1.000  C
  H1       1.0000 0.59289  0.29490  0.49912  Biso   1.000  H
  H2       1.0000 0.52479  0.29539  0.50582  Biso   1.000  H
  C3       1.0000 0.55670  0.24180  0.48689  Biso   1.000  C
  C4       1.0000 0.55238  0.34239  0.40328  Biso   1.000  C
  H3       1.0000 0.51571  0.28900  0.39261  Biso   1.000  H
  H4       1.0000 0.58381  0.28820  0.38581  Biso   1.000  H
  C5       1.0000 0.50380  0.22240  0.49159  Biso   1.000  C
  C6       1.0000 0.60882  0.22140  0.48752  Biso   1.000  C
  C7       1.0000 0.53121  0.35560  0.33571  Biso   1.000  C
  C8       1.0000 0.61091  0.36199  0.41908  Biso   1.000  C
  H5       1.0000 0.52418  0.35239  0.43498  Biso   1.000  H
  H6       1.0000 0.46888  0.23610  0.49129  Biso   1.000  H
  C9       1.0000 0.50310  0.18269  0.49692  Biso   1.000  C
  C10      1.0000 0.60812  0.18171  0.49271  Biso   1.000  C
  H7       1.0000 0.64422  0.23441  0.48430  Biso   1.000  H
  C11      1.0000 0.54339  0.33431  0.27989  Biso   1.000  C
  C12      1.0000 0.49882  0.38910  0.33092  Biso   1.000  C
  C13      1.0000 0.66390  0.34520  0.40259  Biso   1.000  C
  C14      1.0000 0.60952  0.39901  0.44442  Biso   1.000  C
  H8       1.0000 0.46770  0.16979  0.50000  Biso   1.000  H
  C15      1.0000 0.55522  0.16240  0.49741  Biso   1.000  C
  H9       1.0000 0.64299  0.16810  0.49310  Biso   1.000  H
  C16      1.0000 0.52322  0.34649  0.21928  Biso   1.000  C
  H10      1.0000 0.56508  0.31181  0.28322  Biso   1.000  H
  C17      1.0000 0.47848  0.40139  0.27030  Biso   1.000  C
  O1       1.0000 0.48328  0.41079  0.38518  Biso   1.000  O
  C18      1.0000 0.71558  0.36540  0.41140  Biso   1.000  C
  H11      1.0000 0.66482  0.32050  0.38571  Biso   1.000  H
  O2       1.0000 0.55871  0.41721  0.46272  Biso   1.000  O
  C19      1.0000 0.66120  0.41910  0.45318  Biso   1.000  C
  H12      1.0000 0.55478  0.13580  0.50088  Biso   1.000  H
  C20      1.0000 0.53780  0.32330  0.15739  Biso   1.000  C
  C21      1.0000 0.49070  0.37999  0.21448  Biso   1.000  C
  O3       1.0000 0.44972  0.43601  0.26389  Biso   1.000  O
  C22      1.0000 0.52601  0.43541  0.41341  Biso   1.000  C
  C23      1.0000 0.71432  0.40240  0.43679  Biso   1.000  C
  C24      1.0000 0.77481  0.34981  0.39119  Biso   1.000  C
  O4       1.0000 0.65919  0.45730  0.47118  Biso   1.000  O
  C25      1.0000 0.53749  0.27920  0.16830  Biso   1.000  C
  C26      1.0000 0.59459  0.34010  0.13072  Biso   1.000  C
  H13      1.0000 0.50729  0.32889  0.12520  Biso   1.000  H
  O5       1.0000 0.46831  0.39311  0.15440  Biso   1.000  O
  C27      1.0000 0.38730  0.42939  0.26668  Biso   1.000  C
  H14      1.0000 0.55229  0.44421  0.37931  Biso   1.000  H
  H15      1.0000 0.50681  0.45770  0.43170  Biso   1.000  H
  O6       1.0000 0.76622  0.42340  0.44809  Biso   1.000  O
  C28      1.0000 0.78599  0.36239  0.32089  Biso   1.000  C
  H16      1.0000 0.80410  0.36239  0.41869  Biso   1.000  H
  C29      1.0000 0.78119  0.30579  0.40240  Biso   1.000  C
  C30      1.0000 0.67451  0.46561  0.53870  Biso   1.000  C
  C31      1.0000 0.47591  0.26510  0.18508  Biso   1.000  C
  H17      1.0000 0.55111  0.26639  0.12911  Biso   1.000  H
  H18      1.0000 0.56390  0.27281  0.20382  Biso   1.000  H
  C32      1.0000 0.59171  0.37259  0.09139  Biso   1.000  C
  C33      1.0000 0.64849  0.32451  0.14702  Biso   1.000  C
  C34      1.0000 0.51030  0.41260  0.11272  Biso   1.000  C
  H19      1.0000 0.37669  0.41839  0.30861  Biso   1.000  H
  H20      1.0000 0.37551  0.41180  0.23239  Biso   1.000  H
  C35      1.0000 0.35818  0.46630  0.25812  Biso   1.000  C
  C36      1.0000 0.78821  0.44240  0.39242  Biso   1.000  C
  C37      1.0000 0.76940  0.33909  0.26898  Biso   1.000  C
  C38      1.0000 0.81209  0.39770  0.30871  Biso   1.000  C
  H21      1.0000 0.75622  0.29190  0.37231  Biso   1.000  H
  H22      1.0000 0.76979  0.29929  0.44672  Biso   1.000  H
  C39      1.0000 0.84732  0.29459  0.39041  Biso   1.000  C
  H23      1.0000 0.71100  0.45329  0.55039  Biso   1.000  H
  H24      1.0000 0.64422  0.45679  0.56820  Biso   1.000  H
  C40      1.0000 0.68062  0.51040  0.54198  Biso   1.000  C
  C41      1.0000 0.47220  0.22659  0.21169  Biso   1.000  C
  H25      1.0000 0.45880  0.28270  0.21639  Biso   1.000  H
  H26      1.0000 0.45229  0.26619  0.14569  Biso   1.000  H
  O7       1.0000 0.53942  0.38749  0.07099  Biso   1.000  O
  C42      1.0000 0.64260  0.38941  0.06849  Biso   1.000  C
  H27      1.0000 0.65041  0.30281  0.17329  Biso   1.000  H
  C43      1.0000 0.69939  0.34139  0.12412  Biso   1.000  C
  H28      1.0000 0.49009  0.43171  0.08679  Biso   1.000  H
  H29      1.0000 0.53859  0.42569  0.14002  Biso   1.000  H
  C44      1.0000 0.29481  0.46570  0.25660  Biso   1.000  C
  C45      1.0000 0.38581  0.50000  0.25000  Biso   1.000  C
  O8       1.0000 0.83130  0.42059  0.35988  Biso   1.000  O
  H30      1.0000 0.75639  0.44759  0.36238  Biso   1.000  H
  H31      1.0000 0.80480  0.46679  0.40548  Biso   1.000  H
  C46      1.0000 0.77879  0.35099  0.20499  Biso   1.000  C
  H32      1.0000 0.75190  0.31551  0.27720  Biso   1.000  H
  C47      1.0000 0.82161  0.40959  0.24472  Biso   1.000  C
  H33      1.0000 0.85880  0.30339  0.34731  Biso   1.000  H
  H34      1.0000 0.87141  0.30789  0.42221  Biso   1.000  H
  C48      1.0000 0.85871  0.25261  0.39530  Biso   1.000  C
  H35      1.0000 0.70092  0.51760  0.58180  Biso   1.000  H
  H36      1.0000 0.70332  0.51940  0.50499  Biso   1.000  H
  C49      1.0000 0.62519  0.52760  0.54100  Biso   1.000  C
  C50      1.0000 0.44749  0.19739  0.17480  Biso   1.000  C
  C51      1.0000 0.49241  0.21919  0.27461  Biso   1.000  C
  O9       1.0000 0.64051  0.42561  0.04080  Biso   1.000  O
  C52      1.0000 0.69660  0.37391  0.08478  Biso   1.000  C
  C53      1.0000 0.75910  0.32709  0.14462  Biso   1.000  C
  H37      1.0000 0.27468  0.44260  0.26018  Biso   1.000  H
  C54      1.0000 0.26430  0.50000  0.25000  Biso   1.000  C
  C55      1.0000 0.35818  0.53370  0.24188  Biso   1.000  C
  H38      1.0000 0.42641  0.50000  0.25000  Biso   1.000  H
  C56      1.0000 0.80489  0.38629  0.19281  Biso   1.000  C
  O10      1.0000 0.84199  0.44650  0.23390  Biso   1.000  O
  C57      1.0000 0.87189  0.23080  0.34031  Biso   1.000  C
  C58      1.0000 0.85980  0.23579  0.45700  Biso   1.000  C
  H39      1.0000 0.60650  0.52390  0.58312  Biso   1.000  H
  H40      1.0000 0.60131  0.51519  0.50802  Biso   1.000  H
  C59      1.0000 0.62811  0.57121  0.52598  Biso   1.000  C
  H41      1.0000 0.43409  0.20229  0.13268  Biso   1.000  H
  C60      1.0000 0.44299  0.16071  0.20078  Biso   1.000  C
  C61      1.0000 0.48778  0.18260  0.30059  Biso   1.000  C
  H42      1.0000 0.50890  0.23891  0.29922  Biso   1.000  H
  C62      1.0000 0.62811  0.42879  0.97402  Biso   1.000  C
  O11      1.0000 0.74579  0.39010  0.05548  Biso   1.000  O
  H43      1.0000 0.78629  0.33259  0.10881  Biso   1.000  H
  C63      1.0000 0.76290  0.28390  0.15939  Biso   1.000  C
  C64      1.0000 0.29481  0.53430  0.24340  Biso   1.000  C
  H44      1.0000 0.22370  0.50000  0.25000  Biso   1.000  H
  C65      1.0000 0.38730  0.57061  0.23332  Biso   1.000  C
  O12      1.0000 0.82121  0.39861  0.13121  Biso   1.000  O
  C66      1.0000 0.90511  0.44859  0.22060  Biso   1.000  C
  H45      1.0000 0.87119  0.24200  0.29902  Biso   1.000  H
  C67      1.0000 0.88612  0.19231  0.34702  Biso   1.000  C
  C68      1.0000 0.87390  0.19730  0.46370  Biso   1.000  C
  H46      1.0000 0.85098  0.25029  0.49379  Biso   1.000  H
  H47      1.0000 0.59110  0.58339  0.53611  Biso   1.000  H
  H48      1.0000 0.65849  0.58339  0.55181  Biso   1.000  H
  O13      1.0000 0.64051  0.57439  0.45920  Biso   1.000  O
  H49      1.0000 0.42649  0.14110  0.17622  Biso   1.000  H
  C69      1.0000 0.46312  0.15331  0.26370  Biso   1.000  C
  H50      1.0000 0.50131  0.17761  0.34271  Biso   1.000  H
  C70      1.0000 0.62519  0.47240  0.95900  Biso   1.000  C
  H51      1.0000 0.59110  0.41661  0.96389  Biso   1.000  H
  H52      1.0000 0.65849  0.41661  0.94819  Biso   1.000  H
  C71      1.0000 0.77460  0.41670  0.09452  Biso   1.000  C
  H53      1.0000 0.80039  0.27860  0.17950  Biso   1.000  H
  H54      1.0000 0.73291  0.27740  0.19090  Biso   1.000  H
  C72      1.0000 0.75661  0.26049  0.10499  Biso   1.000  C
  H55      1.0000 0.27468  0.55740  0.23982  Biso   1.000  H
  O14      1.0000 0.44972  0.56399  0.23611  Biso   1.000  O
  H56      1.0000 0.37669  0.58161  0.19139  Biso   1.000  H
  H57      1.0000 0.37551  0.58820  0.26761  Biso   1.000  H
  H58      1.0000 0.91449  0.43621  0.17940  Biso   1.000  H
  H59      1.0000 0.92719  0.43650  0.25528  Biso   1.000  H
  C73      1.0000 0.91829  0.49140  0.21742  Biso   1.000  C
  H60      1.0000 0.89489  0.17770  0.31008  Biso   1.000  H
  C74      1.0000 0.88708  0.17549  0.40861  Biso   1.000  C
  H61      1.0000 0.87460  0.18601  0.50489  Biso   1.000  H
  C75      1.0000 0.64260  0.61059  0.43151  Biso   1.000  C
  H62      1.0000 0.46010  0.12870  0.28112  Biso   1.000  H
  C76      1.0000 0.68062  0.48960  0.95802  Biso   1.000  C
  H63      1.0000 0.60650  0.47610  0.91688  Biso   1.000  H
  H64      1.0000 0.60131  0.48481  0.99198  Biso   1.000  H
  H65      1.0000 0.74710  0.42830  0.12461  Biso   1.000  H
  H66      1.0000 0.79070  0.43681  0.06722  Biso   1.000  H
  H67      1.0000 0.77490  0.27101  0.06619  Biso   1.000  H
  H68      1.0000 0.71619  0.25401  0.09609  Biso   1.000  H
  C77      1.0000 0.47848  0.59861  0.22970  Biso   1.000  C
  C78      1.0000 0.91829  0.50860  0.28258  Biso   1.000  C
  H69      1.0000 0.95609  0.49530  0.19711  Biso   1.000  H
  H70      1.0000 0.88909  0.50401  0.19051  Biso   1.000  H
  H71      1.0000 0.89660  0.14970  0.41311  Biso   1.000  H
  C79      1.0000 0.59171  0.62741  0.40861  Biso   1.000  C
  C80      1.0000 0.69660  0.62609  0.41522  Biso   1.000  C
  C81      1.0000 0.67451  0.53439  0.96130  Biso   1.000  C
  H72      1.0000 0.70092  0.48240  0.91820  Biso   1.000  H
  H73      1.0000 0.70332  0.48060  0.99501  Biso   1.000  H
  C82      1.0000 0.49882  0.61090  0.16908  Biso   1.000  C
  C83      1.0000 0.49070  0.62001  0.28552  Biso   1.000  C
  C84      1.0000 0.90511  0.55141  0.27940  Biso   1.000  C
  H74      1.0000 0.95609  0.50470  0.30289  Biso   1.000  H
  H75      1.0000 0.88909  0.49599  0.30949  Biso   1.000  H
  C85      1.0000 0.59459  0.65990  0.36928  Biso   1.000  C
  O15      1.0000 0.53942  0.61251  0.42901  Biso   1.000  O
  C86      1.0000 0.69939  0.65861  0.37588  Biso   1.000  C
  O16      1.0000 0.74579  0.60990  0.44452  Biso   1.000  O
  O17      1.0000 0.65919  0.54270  0.02882  Biso   1.000  O
  H76      1.0000 0.71100  0.54671  0.94961  Biso   1.000  H
  H77      1.0000 0.64422  0.54321  0.93180  Biso   1.000  H
  O18      1.0000 0.48328  0.58921  0.11482  Biso   1.000  O
  C87      1.0000 0.53121  0.64440  0.16429  Biso   1.000  C
  C88      1.0000 0.52322  0.65351  0.28072  Biso   1.000  C
  O19      1.0000 0.46831  0.60689  0.34560  Biso   1.000  O
  O20      1.0000 0.84199  0.55350  0.26610  Biso   1.000  O
  H78      1.0000 0.91449  0.56379  0.32060  Biso   1.000  H
  H79      1.0000 0.92719  0.56350  0.24472  Biso   1.000  H
  C89      1.0000 0.53780  0.67670  0.34261  Biso   1.000  C
  C90      1.0000 0.64849  0.67549  0.35298  Biso   1.000  C
  C91      1.0000 0.51030  0.58740  0.38728  Biso   1.000  C
  C92      1.0000 0.75910  0.67291  0.35538  Biso   1.000  C
  C93      1.0000 0.77460  0.58330  0.40548  Biso   1.000  C
  C94      1.0000 0.66120  0.58090  0.04682  Biso   1.000  C
  C95      1.0000 0.52601  0.56459  0.08659  Biso   1.000  C
  C96      1.0000 0.55238  0.65761  0.09672  Biso   1.000  C
  C97      1.0000 0.54339  0.66569  0.22011  Biso   1.000  C
  C98      1.0000 0.82161  0.59041  0.25528  Biso   1.000  C
  H80      1.0000 0.50729  0.67111  0.37480  Biso   1.000  H
  C99      1.0000 0.53749  0.72080  0.33170  Biso   1.000  C
  H81      1.0000 0.65041  0.69719  0.32671  Biso   1.000  H
  H82      1.0000 0.49009  0.56829  0.41321  Biso   1.000  H
  H83      1.0000 0.53859  0.57431  0.35998  Biso   1.000  H
  C100     1.0000 0.77879  0.64901  0.29501  Biso   1.000  C
  H84      1.0000 0.78629  0.66741  0.39119  Biso   1.000  H
  C101     1.0000 0.76290  0.71610  0.34061  Biso   1.000  C
  O21      1.0000 0.82121  0.60139  0.36879  Biso   1.000  O
  H85      1.0000 0.74710  0.57170  0.37539  Biso   1.000  H
  H86      1.0000 0.79070  0.56319  0.43278  Biso   1.000  H
  C102     1.0000 0.71432  0.59760  0.06321  Biso   1.000  C
  C103     1.0000 0.60952  0.60099  0.05558  Biso   1.000  C
  O22      1.0000 0.55871  0.58279  0.03728  Biso   1.000  O
  H87      1.0000 0.55229  0.55579  0.12069  Biso   1.000  H
  H88      1.0000 0.50681  0.54230  0.06830  Biso   1.000  H
  C104     1.0000 0.61091  0.63801  0.08092  Biso   1.000  C
  H89      1.0000 0.52418  0.64761  0.06502  Biso   1.000  H
  C105     1.0000 0.55181  0.70111  0.08899  Biso   1.000  C
  H90      1.0000 0.56508  0.68819  0.21678  Biso   1.000  H
  C106     1.0000 0.81209  0.60230  0.19129  Biso   1.000  C
  C107     1.0000 0.80489  0.61371  0.30719  Biso   1.000  C
  H91      1.0000 0.55111  0.73361  0.37089  Biso   1.000  H
  H92      1.0000 0.56390  0.72719  0.29618  Biso   1.000  H
  C108     1.0000 0.47591  0.73490  0.31492  Biso   1.000  C
  C109     1.0000 0.76940  0.66091  0.23102  Biso   1.000  C
  H93      1.0000 0.80039  0.72140  0.32050  Biso   1.000  H
  H94      1.0000 0.73291  0.72260  0.30910  Biso   1.000  H
  C110     1.0000 0.75661  0.73951  0.39501  Biso   1.000  C
  O23      1.0000 0.76622  0.57660  0.05191  Biso   1.000  O
  C111     1.0000 0.71558  0.63460  0.08860  Biso   1.000  C
  C112     1.0000 0.66390  0.65480  0.09741  Biso   1.000  C
  H95      1.0000 0.51571  0.71100  0.10739  Biso   1.000  H
  H96      1.0000 0.58381  0.71180  0.11419  Biso   1.000  H
  C113     1.0000 0.55701  0.71501  0.01952  Biso   1.000  C
  O24      1.0000 0.83130  0.57941  0.14012  Biso   1.000  O
  C114     1.0000 0.78599  0.63761  0.17911  Biso   1.000  C
  H97      1.0000 0.45880  0.71730  0.28361  Biso   1.000  H
  H98      1.0000 0.45229  0.73381  0.35431  Biso   1.000  H
  C115     1.0000 0.47220  0.77341  0.28831  Biso   1.000  C
  H99      1.0000 0.75190  0.68449  0.22280  Biso   1.000  H
  H100     1.0000 0.77490  0.72899  0.43381  Biso   1.000  H
  H101     1.0000 0.71619  0.74599  0.40391  Biso   1.000  H
  C116     1.0000 0.78821  0.55760  0.10758  Biso   1.000  C
  C117     1.0000 0.77481  0.65019  0.10881  Biso   1.000  C
  H102     1.0000 0.66482  0.67950  0.11429  Biso   1.000  H
  H103     1.0000 0.59289  0.70510  0.00088  Biso   1.000  H
  C118     1.0000 0.55670  0.75820  0.01311  Biso   1.000  C
  H104     1.0000 0.52479  0.70461  0.99418  Biso   1.000  H
  C119     1.0000 0.44749  0.80261  0.32520  Biso   1.000  C
  C120     1.0000 0.49241  0.78081  0.22539  Biso   1.000  C
  H105     1.0000 0.75639  0.55241  0.13762  Biso   1.000  H
  H106     1.0000 0.80480  0.53321  0.09452  Biso   1.000  H
  H107     1.0000 0.80410  0.63761  0.08131  Biso   1.000  H
  C121     1.0000 0.78119  0.69421  0.09760  Biso   1.000  C
  C122     1.0000 0.50380  0.77760  0.00841  Biso   1.000  C
  C123     1.0000 0.60882  0.77860  0.01248  Biso   1.000  C
  H108     1.0000 0.43409  0.79771  0.36732  Biso   1.000  H
  C124     1.0000 0.44299  0.83929  0.29922  Biso   1.000  C
  C125     1.0000 0.48778  0.81740  0.19941  Biso   1.000  C
  H109     1.0000 0.50890  0.76109  0.20078  Biso   1.000  H
  H110     1.0000 0.75622  0.70810  0.12769  Biso   1.000  H
  H111     1.0000 0.76979  0.70071  0.05328  Biso   1.000  H
  C126     1.0000 0.84732  0.70541  0.10959  Biso   1.000  C
  H112     1.0000 0.46888  0.76390  0.00871  Biso   1.000  H
  C127     1.0000 0.50310  0.81731  0.00308  Biso   1.000  C
  C128     1.0000 0.60812  0.81829  0.00729  Biso   1.000  C
  H113     1.0000 0.64422  0.76559  0.01570  Biso   1.000  H
  H114     1.0000 0.42649  0.85890  0.32378  Biso   1.000  H
  C129     1.0000 0.46312  0.84669  0.23630  Biso   1.000  C
  H115     1.0000 0.50131  0.82239  0.15729  Biso   1.000  H
  H116     1.0000 0.85880  0.69661  0.15269  Biso   1.000  H
  H117     1.0000 0.87141  0.69211  0.07779  Biso   1.000  H
  C130     1.0000 0.85871  0.74739  0.10470  Biso   1.000  C
  H118     1.0000 0.46770  0.83021  0.00000  Biso   1.000  H
  C131     1.0000 0.55522  0.83760  0.00259  Biso   1.000  C
  H119     1.0000 0.64299  0.83190  0.00690  Biso   1.000  H
  H120     1.0000 0.46010  0.87130  0.21888  Biso   1.000  H
  C132     1.0000 0.87189  0.76920  0.15969  Biso   1.000  C
  C133     1.0000 0.85980  0.76421  0.04300  Biso   1.000  C
  H121     1.0000 0.55478  0.86420  0.99912  Biso   1.000  H
  H122     1.0000 0.87119  0.75800  0.20098  Biso   1.000  H
  C134     1.0000 0.88612  0.80769  0.15298  Biso   1.000  C
  C135     1.0000 0.87390  0.80270  0.03630  Biso   1.000  C
  H123     1.0000 0.85098  0.74971  0.00621  Biso   1.000  H
  H124     1.0000 0.89489  0.82230  0.18992  Biso   1.000  H
  C136     1.0000 0.88708  0.82451  0.09139  Biso   1.000  C
  H125     1.0000 0.87460  0.81399  0.99511  Biso   1.000  H
  H126     1.0000 0.89660  0.85030  0.08689  Biso   1.000  H
  C137     1.0000 0.37390  0.30270  0.46370  Biso   1.000  C
  C138     1.0000 0.35980  0.26421  0.45700  Biso   1.000  C
  C139     1.0000 0.38708  0.32451  0.40861  Biso   1.000  C
  H127     1.0000 0.37460  0.31399  0.50489  Biso   1.000  H
  C140     1.0000 0.35871  0.24739  0.39530  Biso   1.000  C
  H128     1.0000 0.35098  0.24971  0.49379  Biso   1.000  H
  C141     1.0000 0.38612  0.30769  0.34702  Biso   1.000  C
  H129     1.0000 0.39660  0.35030  0.41311  Biso   1.000  H
  C142     1.0000 0.34732  0.20541  0.39041  Biso   1.000  C
  C143     1.0000 0.37189  0.26920  0.34031  Biso   1.000  C
  H130     1.0000 0.39489  0.32230  0.31008  Biso   1.000  H
  C144     1.0000 0.28119  0.19421  0.40240  Biso   1.000  C
  H131     1.0000 0.35880  0.19661  0.34731  Biso   1.000  H
  H132     1.0000 0.37141  0.19211  0.42221  Biso   1.000  H
  H133     1.0000 0.37119  0.25800  0.29902  Biso   1.000  H
  C145     1.0000 0.27481  0.15019  0.39119  Biso   1.000  C
  H134     1.0000 0.25622  0.20810  0.37231  Biso   1.000  H
  H135     1.0000 0.26979  0.20071  0.44672  Biso   1.000  H
  C146     1.0000 0.28599  0.13761  0.32089  Biso   1.000  C
  C147     1.0000 0.21558  0.13460  0.41140  Biso   1.000  C
  H136     1.0000 0.30410  0.13761  0.41869  Biso   1.000  H
  C148     1.0000 0.26940  0.16091  0.26898  Biso   1.000  C
  C149     1.0000 0.31209  0.10230  0.30871  Biso   1.000  C
  C150     1.0000 0.21432  0.09760  0.43679  Biso   1.000  C
  C151     1.0000 0.16390  0.15480  0.40259  Biso   1.000  C
  C152     1.0000 0.27879  0.14901  0.20499  Biso   1.000  C
  H137     1.0000 0.25190  0.18449  0.27720  Biso   1.000  H
  C153     1.0000 0.32161  0.09041  0.24472  Biso   1.000  C
  O25      1.0000 0.33130  0.07941  0.35988  Biso   1.000  O
  O26      1.0000 0.26622  0.07660  0.44809  Biso   1.000  O
  C154     1.0000 0.16120  0.08090  0.45318  Biso   1.000  C
  H138     1.0000 0.16482  0.17950  0.38571  Biso   1.000  H
  C155     1.0000 0.11091  0.13801  0.41908  Biso   1.000  C
  C156     1.0000 0.25910  0.17291  0.14462  Biso   1.000  C
  C157     1.0000 0.30489  0.11371  0.19281  Biso   1.000  C
  O27      1.0000 0.34199  0.05350  0.23390  Biso   1.000  O
  C158     1.0000 0.28821  0.05760  0.39242  Biso   1.000  C
  C159     1.0000 0.10952  0.10099  0.44442  Biso   1.000  C
  O28      1.0000 0.15919  0.04270  0.47118  Biso   1.000  O
  C160     1.0000 0.05238  0.15761  0.40328  Biso   1.000  C
  C161     1.0000 0.26290  0.21610  0.15939  Biso   1.000  C
  C162     1.0000 0.19939  0.15861  0.12412  Biso   1.000  C
  H139     1.0000 0.28629  0.16741  0.10881  Biso   1.000  H
  O29      1.0000 0.32121  0.10139  0.13121  Biso   1.000  O
  C163     1.0000 0.40511  0.05141  0.22060  Biso   1.000  C
  H140     1.0000 0.25639  0.05241  0.36238  Biso   1.000  H
  H141     1.0000 0.30480  0.03321  0.40548  Biso   1.000  H
  O30      1.0000 0.05871  0.08279  0.46272  Biso   1.000  O
  C164     1.0000 0.17451  0.03439  0.53870  Biso   1.000  C
  C165     1.0000 0.03121  0.14440  0.33571  Biso   1.000  C
  H142     1.0000 0.02418  0.14761  0.43498  Biso   1.000  H
  C166     1.0000 0.05181  0.20111  0.41101  Biso   1.000  C
  H143     1.0000 0.30039  0.22140  0.17950  Biso   1.000  H
  H144     1.0000 0.23291  0.22260  0.19090  Biso   1.000  H
  C167     1.0000 0.25661  0.23951  0.10499  Biso   1.000  C
  C168     1.0000 0.14849  0.17549  0.14702  Biso   1.000  C
  C169     1.0000 0.19660  0.12609  0.08478  Biso   1.000  C
  C170     1.0000 0.27460  0.08330  0.09452  Biso   1.000  C
  H145     1.0000 0.41449  0.06379  0.17940  Biso   1.000  H
  H146     1.0000 0.42719  0.06350  0.25528  Biso   1.000  H
  C171     1.0000 0.41829  0.00860  0.21742  Biso   1.000  C
  C172     1.0000 0.02601  0.06459  0.41341  Biso   1.000  C
  H147     1.0000 0.21100  0.04671  0.55039  Biso   1.000  H
  H148     1.0000 0.14422  0.04321  0.56820  Biso   1.000  H
  C173     1.0000 0.18062  0.98960  0.54198  Biso   1.000  C
  C174     1.0000 0.04339  0.16569  0.27989  Biso   1.000  C
  C175     1.0000 0.99882  0.11090  0.33092  Biso   1.000  C
  H149     1.0000 0.01571  0.21100  0.39261  Biso   1.000  H
  H150     1.0000 0.08381  0.21180  0.38581  Biso   1.000  H
  C176     1.0000 0.05701  0.21501  0.48048  Biso   1.000  C
  H151     1.0000 0.27490  0.22899  0.06619  Biso   1.000  H
  H152     1.0000 0.21619  0.24599  0.09609  Biso   1.000  H
  C177     1.0000 0.09459  0.15990  0.13072  Biso   1.000  C
  H153     1.0000 0.15041  0.19719  0.17329  Biso   1.000  H
  C178     1.0000 0.14260  0.11059  0.06849  Biso   1.000  C
  O31      1.0000 0.24579  0.10990  0.05548  Biso   1.000  O
  H154     1.0000 0.24710  0.07170  0.12461  Biso   1.000  H
  H155     1.0000 0.29070  0.06319  0.06722  Biso   1.000  H
  H156     1.0000 0.45609  0.00470  0.19711  Biso   1.000  H
  C179     1.0000 0.41829  0.99140  0.28258  Biso   1.000  C
  H157     1.0000 0.38909  0.99599  0.19051  Biso   1.000  H
  O32      1.0000 0.98328  0.08921  0.38518  Biso   1.000  O
  H158     1.0000 0.05229  0.05579  0.37931  Biso   1.000  H
  H159     1.0000 0.00681  0.04230  0.43170  Biso   1.000  H
  H160     1.0000 0.20092  0.98240  0.58180  Biso   1.000  H
  H161     1.0000 0.20332  0.98060  0.50499  Biso   1.000  H
  C180     1.0000 0.12519  0.97240  0.54100  Biso   1.000  C
  C181     1.0000 0.02322  0.15351  0.21928  Biso   1.000  C
  H162     1.0000 0.06508  0.18819  0.28322  Biso   1.000  H
  C182     1.0000 0.97848  0.09861  0.27030  Biso   1.000  C
  H163     1.0000 0.09289  0.20510  0.49912  Biso   1.000  H
  H164     1.0000 0.02479  0.20461  0.50582  Biso   1.000  H
  C183     1.0000 0.05670  0.25820  0.48689  Biso   1.000  C
  C184     1.0000 0.09171  0.12741  0.09139  Biso   1.000  C
  C185     1.0000 0.03780  0.17670  0.15739  Biso   1.000  C
  O33      1.0000 0.14051  0.07439  0.04080  Biso   1.000  O
  H165     1.0000 0.38909  0.00401  0.30949  Biso   1.000  H
  C186     1.0000 0.40511  0.94859  0.27940  Biso   1.000  C
  H166     1.0000 0.45609  0.99530  0.30289  Biso   1.000  H
  H167     1.0000 0.10650  0.97610  0.58312  Biso   1.000  H
  H168     1.0000 0.10131  0.98481  0.50802  Biso   1.000  H
  C187     1.0000 0.12811  0.92879  0.52598  Biso   1.000  C
  C188     1.0000 0.99070  0.12001  0.21448  Biso   1.000  C
  O34      1.0000 0.94972  0.06399  0.26389  Biso   1.000  O
  C189     1.0000 0.00380  0.27760  0.49159  Biso   1.000  C
  C190     1.0000 0.10882  0.27860  0.48752  Biso   1.000  C
  O35      1.0000 0.03942  0.11251  0.07099  Biso   1.000  O
  H169     1.0000 0.00729  0.17111  0.12520  Biso   1.000  H
  C191     1.0000 0.03749  0.22080  0.16830  Biso   1.000  C
  C192     1.0000 0.12811  0.07121  0.97402  Biso   1.000  C
  O36      1.0000 0.34199  0.94650  0.26610  Biso   1.000  O
  H170     1.0000 0.41449  0.93621  0.32060  Biso   1.000  H
  H171     1.0000 0.42719  0.93650  0.24472  Biso   1.000  H
  H172     1.0000 0.09110  0.91661  0.53611  Biso   1.000  H
  H173     1.0000 0.15849  0.91661  0.55181  Biso   1.000  H
  O37      1.0000 0.14051  0.92561  0.45920  Biso   1.000  O
  O38      1.0000 0.96831  0.10689  0.15440  Biso   1.000  O
  C193     1.0000 0.88730  0.07061  0.26668  Biso   1.000  C
  C194     1.0000 0.00310  0.31731  0.49692  Biso   1.000  C
  H174     1.0000 0.96888  0.26390  0.49129  Biso   1.000  H
  C195     1.0000 0.10812  0.31829  0.49271  Biso   1.000  C
  H175     1.0000 0.14422  0.26559  0.48430  Biso   1.000  H
  C196     1.0000 0.01030  0.08740  0.11272  Biso   1.000  C
  H176     1.0000 0.05111  0.23361  0.12911  Biso   1.000  H
  H177     1.0000 0.06390  0.22719  0.20382  Biso   1.000  H
  C197     1.0000 0.97591  0.23490  0.18508  Biso   1.000  C
  C198     1.0000 0.12519  0.02760  0.95900  Biso   1.000  C
  H178     1.0000 0.09110  0.08339  0.96389  Biso   1.000  H
  H179     1.0000 0.15849  0.08339  0.94819  Biso   1.000  H
  C199     1.0000 0.32161  0.90959  0.25528  Biso   1.000  C
  C200     1.0000 0.14260  0.88941  0.43151  Biso   1.000  C
  H180     1.0000 0.87669  0.08161  0.30861  Biso   1.000  H
  H181     1.0000 0.87551  0.08820  0.23239  Biso   1.000  H
  C201     1.0000 0.85818  0.03370  0.25812  Biso   1.000  C
  C202     1.0000 0.05522  0.33760  0.49741  Biso   1.000  C
  H182     1.0000 0.96770  0.33021  0.50000  Biso   1.000  H
  H183     1.0000 0.14299  0.33190  0.49310  Biso   1.000  H
  H184     1.0000 0.03859  0.07431  0.14002  Biso   1.000  H
  H185     1.0000 0.99009  0.06829  0.08679  Biso   1.000  H
  H186     1.0000 0.95880  0.21730  0.21639  Biso   1.000  H
  H187     1.0000 0.95229  0.23381  0.14569  Biso   1.000  H
  C203     1.0000 0.97220  0.27341  0.21169  Biso   1.000  C
  C204     1.0000 0.18062  0.01040  0.95802  Biso   1.000  C
  H188     1.0000 0.10650  0.02390  0.91688  Biso   1.000  H
  H189     1.0000 0.10131  0.01519  0.99198  Biso   1.000  H
  C205     1.0000 0.30489  0.88629  0.30719  Biso   1.000  C
  C206     1.0000 0.31209  0.89770  0.19129  Biso   1.000  C
  C207     1.0000 0.19660  0.87391  0.41522  Biso   1.000  C
  C208     1.0000 0.09171  0.87259  0.40861  Biso   1.000  C
  C209     1.0000 0.79481  0.03430  0.25660  Biso   1.000  C
  C210     1.0000 0.88581  0.00000  0.25000  Biso   1.000  C
  H190     1.0000 0.05478  0.36420  0.50088  Biso   1.000  H
  C211     1.0000 0.94749  0.30261  0.17480  Biso   1.000  C
  C212     1.0000 0.99241  0.28081  0.27461  Biso   1.000  C
  C213     1.0000 0.17451  0.96561  0.96130  Biso   1.000  C
  H191     1.0000 0.20092  0.01760  0.91820  Biso   1.000  H
  H192     1.0000 0.20332  0.01940  0.99501  Biso   1.000  H
  O39      1.0000 0.32121  0.89861  0.36879  Biso   1.000  O
  C214     1.0000 0.27879  0.85099  0.29501  Biso   1.000  C
  O40      1.0000 0.33130  0.92059  0.14012  Biso   1.000  O
  C215     1.0000 0.28599  0.86239  0.17911  Biso   1.000  C
  O41      1.0000 0.24579  0.89010  0.44452  Biso   1.000  O
  C216     1.0000 0.19939  0.84139  0.37588  Biso   1.000  C
  C217     1.0000 0.09459  0.84010  0.36928  Biso   1.000  C
  O42      1.0000 0.03942  0.88749  0.42901  Biso   1.000  O
  H193     1.0000 0.77468  0.05740  0.26018  Biso   1.000  H
  C218     1.0000 0.76430  0.00000  0.25000  Biso   1.000  C
  C219     1.0000 0.85818  0.96630  0.24188  Biso   1.000  C
  H194     1.0000 0.92641  0.00000  0.25000  Biso   1.000  H
  H195     1.0000 0.93409  0.29771  0.13268  Biso   1.000  H
  C220     1.0000 0.94299  0.33929  0.20078  Biso   1.000  C
  H196     1.0000 0.00890  0.26109  0.29922  Biso   1.000  H
  C221     1.0000 0.98778  0.31740  0.30059  Biso   1.000  C
  H197     1.0000 0.21100  0.95329  0.94961  Biso   1.000  H
  H198     1.0000 0.14422  0.95679  0.93180  Biso   1.000  H
  O43      1.0000 0.15919  0.95730  0.02882  Biso   1.000  O
  C222     1.0000 0.27460  0.91670  0.40548  Biso   1.000  C
  C223     1.0000 0.26940  0.83909  0.23102  Biso   1.000  C
  C224     1.0000 0.25910  0.82709  0.35538  Biso   1.000  C
  C225     1.0000 0.28821  0.94240  0.10758  Biso   1.000  C
  C226     1.0000 0.27481  0.84981  0.10881  Biso   1.000  C
  C227     1.0000 0.14849  0.82451  0.35298  Biso   1.000  C
  C228     1.0000 0.03780  0.82330  0.34261  Biso   1.000  C
  C229     1.0000 0.01030  0.91260  0.38728  Biso   1.000  C
  C230     1.0000 0.79481  0.96570  0.24340  Biso   1.000  C
  H199     1.0000 0.72370  0.00000  0.25000  Biso   1.000  H
  C231     1.0000 0.88730  0.92939  0.23332  Biso   1.000  C
  H200     1.0000 0.92649  0.35890  0.17622  Biso   1.000  H
  C232     1.0000 0.96312  0.34669  0.26370  Biso   1.000  C
  H201     1.0000 0.00131  0.32239  0.34271  Biso   1.000  H
  C233     1.0000 0.16120  0.91910  0.04682  Biso   1.000  C
  H202     1.0000 0.24710  0.92830  0.37539  Biso   1.000  H
  H203     1.0000 0.29070  0.93681  0.43278  Biso   1.000  H
  H204     1.0000 0.25190  0.81551  0.22280  Biso   1.000  H
  H205     1.0000 0.28629  0.83259  0.39119  Biso   1.000  H
  C234     1.0000 0.26290  0.78390  0.34061  Biso   1.000  C
  O44      1.0000 0.26622  0.92340  0.05191  Biso   1.000  O
  H206     1.0000 0.25639  0.94759  0.13762  Biso   1.000  H
  H207     1.0000 0.30480  0.96679  0.09452  Biso   1.000  H
  C235     1.0000 0.21558  0.86540  0.08860  Biso   1.000  C
  H208     1.0000 0.30410  0.86239  0.08131  Biso   1.000  H
  C236     1.0000 0.28119  0.80579  0.09760  Biso   1.000  C
  H209     1.0000 0.15041  0.80281  0.32671  Biso   1.000  H
  C237     1.0000 0.02322  0.84649  0.28072  Biso   1.000  C
  H210     1.0000 0.00729  0.82889  0.37480  Biso   1.000  H
  C238     1.0000 0.03749  0.77920  0.33170  Biso   1.000  C
  O45      1.0000 0.96831  0.89311  0.34560  Biso   1.000  O
  H211     1.0000 0.99009  0.93171  0.41321  Biso   1.000  H
  H212     1.0000 0.03859  0.92569  0.35998  Biso   1.000  H
  H213     1.0000 0.77468  0.94260  0.23982  Biso   1.000  H
  O46      1.0000 0.94972  0.93601  0.23611  Biso   1.000  O
  H214     1.0000 0.87669  0.91839  0.19139  Biso   1.000  H
  H215     1.0000 0.87551  0.91180  0.26761  Biso   1.000  H
  H216     1.0000 0.96010  0.37130  0.28112  Biso   1.000  H
  C239     1.0000 0.21432  0.90240  0.06321  Biso   1.000  C
  C240     1.0000 0.10952  0.89901  0.05558  Biso   1.000  C
  H217     1.0000 0.30039  0.77860  0.32050  Biso   1.000  H
  H218     1.0000 0.23291  0.77740  0.30910  Biso   1.000  H
  C241     1.0000 0.25661  0.76049  0.39501  Biso   1.000  C
  C242     1.0000 0.16390  0.84520  0.09741  Biso   1.000  C
  H219     1.0000 0.25622  0.79190  0.12769  Biso   1.000  H
  H220     1.0000 0.26979  0.79929  0.05328  Biso   1.000  H
  C243     1.0000 0.34732  0.79459  0.10959  Biso   1.000  C
  C244     1.0000 0.04339  0.83431  0.22011  Biso   1.000  C
  C245     1.0000 0.99070  0.87999  0.28552  Biso   1.000  C
  C246     1.0000 0.97591  0.76510  0.31492  Biso   1.000  C
  H221     1.0000 0.05111  0.76639  0.37089  Biso   1.000  H
  H222     1.0000 0.06390  0.77281  0.29618  Biso   1.000  H
  C247     1.0000 0.97848  0.90139  0.22970  Biso   1.000  C
  C248     1.0000 0.11091  0.86199  0.08092  Biso   1.000  C
  O47      1.0000 0.05871  0.91721  0.03728  Biso   1.000  O
  H223     1.0000 0.27490  0.77101  0.43381  Biso   1.000  H
  H224     1.0000 0.21619  0.75401  0.40391  Biso   1.000  H
  H225     1.0000 0.16482  0.82050  0.11429  Biso   1.000  H
  H226     1.0000 0.35880  0.80339  0.15269  Biso   1.000  H
  H227     1.0000 0.37141  0.80789  0.07779  Biso   1.000  H
  C249     1.0000 0.35871  0.75261  0.10470  Biso   1.000  C
  C250     1.0000 0.03121  0.85560  0.16429  Biso   1.000  C
  H228     1.0000 0.06508  0.81181  0.21678  Biso   1.000  H
  H229     1.0000 0.95880  0.78270  0.28361  Biso   1.000  H
  H230     1.0000 0.95229  0.76619  0.35431  Biso   1.000  H
  C251     1.0000 0.97220  0.72659  0.28831  Biso   1.000  C
  C252     1.0000 0.99882  0.88910  0.16908  Biso   1.000  C
  C253     1.0000 0.05238  0.84239  0.09672  Biso   1.000  C
  C254     1.0000 0.02601  0.93541  0.08659  Biso   1.000  C
  C255     1.0000 0.37189  0.73080  0.15969  Biso   1.000  C
  C256     1.0000 0.35980  0.73579  0.04300  Biso   1.000  C
  C257     1.0000 0.94749  0.69739  0.32520  Biso   1.000  C
  C258     1.0000 0.99241  0.71919  0.22539  Biso   1.000  C
  O48      1.0000 0.98328  0.91079  0.11482  Biso   1.000  O
  H231     1.0000 0.02418  0.85239  0.06502  Biso   1.000  H
  C259     1.0000 0.05181  0.79889  0.08899  Biso   1.000  C
  H232     1.0000 0.05229  0.94421  0.12069  Biso   1.000  H
  H233     1.0000 0.00681  0.95770  0.06830  Biso   1.000  H
  H234     1.0000 0.37119  0.74200  0.20098  Biso   1.000  H
  C260     1.0000 0.38612  0.69231  0.15298  Biso   1.000  C
  C261     1.0000 0.37390  0.69730  0.03630  Biso   1.000  C
  H235     1.0000 0.35098  0.75029  0.00621  Biso   1.000  H
  H236     1.0000 0.93409  0.70229  0.36732  Biso   1.000  H
  C262     1.0000 0.94299  0.66071  0.29922  Biso   1.000  C
  C263     1.0000 0.98778  0.68260  0.19941  Biso   1.000  C
  H237     1.0000 0.00890  0.73891  0.20078  Biso   1.000  H
  H238     1.0000 0.01571  0.78900  0.10739  Biso   1.000  H
  H239     1.0000 0.08381  0.78820  0.11419  Biso   1.000  H
  C264     1.0000 0.05701  0.78499  0.01952  Biso   1.000  C
  H240     1.0000 0.39489  0.67770  0.18992  Biso   1.000  H
  C265     1.0000 0.38708  0.67549  0.09139  Biso   1.000  C
  H241     1.0000 0.37460  0.68601  0.99511  Biso   1.000  H
  H242     1.0000 0.92649  0.64110  0.32378  Biso   1.000  H
  C266     1.0000 0.96312  0.65331  0.23630  Biso   1.000  C
  H243     1.0000 0.00131  0.67761  0.15729  Biso   1.000  H
  H244     1.0000 0.02479  0.79539  0.99418  Biso   1.000  H
  H245     1.0000 0.09289  0.79490  0.00088  Biso   1.000  H
  C267     1.0000 0.05670  0.74180  0.01311  Biso   1.000  C
  H246     1.0000 0.39660  0.64970  0.08689  Biso   1.000  H
  H247     1.0000 0.96010  0.62870  0.21888  Biso   1.000  H
  C268     1.0000 0.00380  0.72240  0.00841  Biso   1.000  C
  C269     1.0000 0.10882  0.72140  0.01248  Biso   1.000  C
  H248     1.0000 0.96888  0.73610  0.00871  Biso   1.000  H
  C270     1.0000 0.00310  0.68269  0.00308  Biso   1.000  C
  C271     1.0000 0.10812  0.68171  0.00729  Biso   1.000  C
  H249     1.0000 0.14422  0.73441  0.01570  Biso   1.000  H
  H250     1.0000 0.96770  0.66979  0.00000  Biso   1.000  H
  C272     1.0000 0.05522  0.66240  0.00259  Biso   1.000  C
  H251     1.0000 0.14299  0.66810  0.00690  Biso   1.000  H
  H252     1.0000 0.05478  0.63580  0.99912  Biso   1.000  H
  O49      1.0000 0.46058  0.38749  0.57099  Biso   1.000  O
  C273     1.0000 0.40829  0.37259  0.59139  Biso   1.000  C
  C274     1.0000 0.48970  0.41260  0.61272  Biso   1.000  C
  C275     1.0000 0.40541  0.34010  0.63072  Biso   1.000  C
  C276     1.0000 0.35740  0.38941  0.56849  Biso   1.000  C
  O50      1.0000 0.53169  0.39311  0.65440  Biso   1.000  O
  H253     1.0000 0.50991  0.43171  0.58679  Biso   1.000  H
  H254     1.0000 0.46141  0.42569  0.64002  Biso   1.000  H
  C277     1.0000 0.35151  0.32451  0.64702  Biso   1.000  C
  C278     1.0000 0.46220  0.32330  0.65739  Biso   1.000  C
  C279     1.0000 0.30340  0.37391  0.58478  Biso   1.000  C
  O51      1.0000 0.35949  0.42561  0.54080  Biso   1.000  O
  C280     1.0000 0.50930  0.37999  0.71448  Biso   1.000  C
  C281     1.0000 0.30061  0.34139  0.62412  Biso   1.000  C
  H255     1.0000 0.34959  0.30281  0.67329  Biso   1.000  H
  C282     1.0000 0.47678  0.34649  0.71928  Biso   1.000  C
  H256     1.0000 0.49271  0.32889  0.62520  Biso   1.000  H
  C283     1.0000 0.46251  0.27920  0.66830  Biso   1.000  C
  O52      1.0000 0.25421  0.39010  0.55548  Biso   1.000  O
  C284     1.0000 0.37189  0.42879  0.47402  Biso   1.000  C
  C285     1.0000 0.52152  0.40139  0.77030  Biso   1.000  C
  C286     1.0000 0.24090  0.32709  0.64462  Biso   1.000  C
  C287     1.0000 0.45661  0.33431  0.77989  Biso   1.000  C
  H257     1.0000 0.44889  0.26639  0.62911  Biso   1.000  H
  H258     1.0000 0.43610  0.27281  0.70382  Biso   1.000  H
  C288     1.0000 0.52409  0.26510  0.68508  Biso   1.000  C
  C289     1.0000 0.22540  0.41670  0.59452  Biso   1.000  C
  C290     1.0000 0.37481  0.47240  0.45900  Biso   1.000  C
  H259     1.0000 0.40890  0.41661  0.46389  Biso   1.000  H
  H260     1.0000 0.34151  0.41661  0.44819  Biso   1.000  H
  C291     1.0000 0.50118  0.38910  0.83092  Biso   1.000  C
  O53      1.0000 0.55028  0.43601  0.76389  Biso   1.000  O
  C292     1.0000 0.23710  0.28390  0.65939  Biso   1.000  C
  C293     1.0000 0.22121  0.35099  0.70499  Biso   1.000  C
  H261     1.0000 0.21371  0.33259  0.60881  Biso   1.000  H
  C294     1.0000 0.46879  0.35560  0.83571  Biso   1.000  C
  H262     1.0000 0.43492  0.31181  0.78322  Biso   1.000  H
  H263     1.0000 0.54120  0.28270  0.71639  Biso   1.000  H
  H264     1.0000 0.54771  0.26619  0.64569  Biso   1.000  H
  C295     1.0000 0.52780  0.22659  0.71169  Biso   1.000  C
  O54      1.0000 0.17879  0.39861  0.63121  Biso   1.000  O
  H265     1.0000 0.25290  0.42830  0.62461  Biso   1.000  H
  H266     1.0000 0.20930  0.43681  0.56722  Biso   1.000  H
  C296     1.0000 0.31938  0.48960  0.45802  Biso   1.000  C
  H267     1.0000 0.39350  0.47610  0.41688  Biso   1.000  H
  H268     1.0000 0.39869  0.48481  0.49198  Biso   1.000  H
  O55      1.0000 0.51672  0.41079  0.88518  Biso   1.000  O
  C297     1.0000 0.61270  0.42939  0.76668  Biso   1.000  C
  C298     1.0000 0.24339  0.26049  0.60499  Biso   1.000  C
  H269     1.0000 0.19961  0.27860  0.67950  Biso   1.000  H
  H270     1.0000 0.26709  0.27740  0.69090  Biso   1.000  H
  C299     1.0000 0.19511  0.38629  0.69281  Biso   1.000  C
  C300     1.0000 0.23060  0.33909  0.76898  Biso   1.000  C
  C301     1.0000 0.44762  0.34239  0.90328  Biso   1.000  C
  C302     1.0000 0.55251  0.19739  0.67480  Biso   1.000  C
  C303     1.0000 0.50759  0.21919  0.77461  Biso   1.000  C
  C304     1.0000 0.32549  0.53439  0.46130  Biso   1.000  C
  H271     1.0000 0.29908  0.48240  0.41820  Biso   1.000  H
  H272     1.0000 0.29668  0.48060  0.49501  Biso   1.000  H
  C305     1.0000 0.47399  0.43541  0.91341  Biso   1.000  C
  H273     1.0000 0.62331  0.41839  0.80861  Biso   1.000  H
  H274     1.0000 0.62449  0.41180  0.73239  Biso   1.000  H
  C306     1.0000 0.64182  0.46630  0.75812  Biso   1.000  C
  H275     1.0000 0.22510  0.27101  0.56619  Biso   1.000  H
  H276     1.0000 0.28381  0.25401  0.59609  Biso   1.000  H
  C307     1.0000 0.17839  0.40959  0.74472  Biso   1.000  C
  H277     1.0000 0.24810  0.31551  0.77720  Biso   1.000  H
  C308     1.0000 0.21401  0.36239  0.82089  Biso   1.000  C
  C309     1.0000 0.38909  0.36199  0.91908  Biso   1.000  C
  H278     1.0000 0.47582  0.35239  0.93498  Biso   1.000  H
  C310     1.0000 0.44819  0.29889  0.91101  Biso   1.000  C
  H279     1.0000 0.56591  0.20229  0.63268  Biso   1.000  H
  C311     1.0000 0.55701  0.16071  0.70078  Biso   1.000  C
  C312     1.0000 0.51222  0.18260  0.80059  Biso   1.000  C
  H280     1.0000 0.49110  0.23891  0.79922  Biso   1.000  H
  O56      1.0000 0.34081  0.54270  0.52882  Biso   1.000  O
  H281     1.0000 0.28900  0.54671  0.44961  Biso   1.000  H
  H282     1.0000 0.35578  0.54321  0.43180  Biso   1.000  H
  O57      1.0000 0.44129  0.41721  0.96272  Biso   1.000  O
  H283     1.0000 0.44771  0.44421  0.87931  Biso   1.000  H
  H284     1.0000 0.49319  0.45770  0.93170  Biso   1.000  H
  C313     1.0000 0.70519  0.46570  0.75660  Biso   1.000  C
  C314     1.0000 0.61419  0.50000  0.75000  Biso   1.000  C
  C315     1.0000 0.18791  0.39770  0.80871  Biso   1.000  C
  O58      1.0000 0.15801  0.44650  0.73390  Biso   1.000  O
  C316     1.0000 0.22519  0.34981  0.89119  Biso   1.000  C
  C317     1.0000 0.33610  0.34520  0.90259  Biso   1.000  C
  C318     1.0000 0.39048  0.39901  0.94442  Biso   1.000  C
  H285     1.0000 0.48429  0.28900  0.89261  Biso   1.000  H
  H286     1.0000 0.41619  0.28820  0.88581  Biso   1.000  H
  C319     1.0000 0.44299  0.28499  0.98048  Biso   1.000  C
  H287     1.0000 0.57351  0.14110  0.67622  Biso   1.000  H
  C320     1.0000 0.53688  0.15331  0.76370  Biso   1.000  C
  H288     1.0000 0.49869  0.17761  0.84271  Biso   1.000  H
  C321     1.0000 0.33880  0.58090  0.54682  Biso   1.000  C
  H289     1.0000 0.72532  0.44260  0.76018  Biso   1.000  H
  C322     1.0000 0.73570  0.50000  0.75000  Biso   1.000  C
  C323     1.0000 0.64182  0.53370  0.74188  Biso   1.000  C
  H290     1.0000 0.57359  0.50000  0.75000  Biso   1.000  H
  O59      1.0000 0.16870  0.42059  0.85988  Biso   1.000  O
  C324     1.0000 0.09489  0.44859  0.72060  Biso   1.000  C
  C325     1.0000 0.28442  0.36540  0.91140  Biso   1.000  C
  H291     1.0000 0.19590  0.36239  0.91869  Biso   1.000  H
  C326     1.0000 0.21881  0.30579  0.90240  Biso   1.000  C
  H292     1.0000 0.33518  0.32050  0.88571  Biso   1.000  H
  C327     1.0000 0.33880  0.41910  0.95318  Biso   1.000  C
  H293     1.0000 0.40711  0.29490  0.99912  Biso   1.000  H
  C328     1.0000 0.44330  0.24180  0.98689  Biso   1.000  C
  H294     1.0000 0.47521  0.29539  0.00582  Biso   1.000  H
  H295     1.0000 0.53990  0.12870  0.78112  Biso   1.000  H
  C329     1.0000 0.28568  0.59760  0.56321  Biso   1.000  C
  C330     1.0000 0.39048  0.60099  0.55558  Biso   1.000  C
  C331     1.0000 0.70519  0.53430  0.74340  Biso   1.000  C
  H296     1.0000 0.77630  0.50000  0.75000  Biso   1.000  H
  C332     1.0000 0.61270  0.57061  0.73332  Biso   1.000  C
  C333     1.0000 0.21179  0.44240  0.89242  Biso   1.000  C
  H297     1.0000 0.08551  0.43621  0.67940  Biso   1.000  H
  H298     1.0000 0.07281  0.43650  0.75528  Biso   1.000  H
  C334     1.0000 0.08171  0.49140  0.71742  Biso   1.000  C
  C335     1.0000 0.28568  0.40240  0.93679  Biso   1.000  C
  H299     1.0000 0.24378  0.29190  0.87231  Biso   1.000  H
  H300     1.0000 0.23021  0.29929  0.94672  Biso   1.000  H
  C336     1.0000 0.15268  0.29459  0.89041  Biso   1.000  C
  O60      1.0000 0.34081  0.45730  0.97118  Biso   1.000  O
  C337     1.0000 0.49620  0.22240  0.99159  Biso   1.000  C
  C338     1.0000 0.39118  0.22140  0.98752  Biso   1.000  C
  O61      1.0000 0.23378  0.57660  0.55191  Biso   1.000  O
  C339     1.0000 0.28442  0.63460  0.58860  Biso   1.000  C
  C340     1.0000 0.38909  0.63801  0.58092  Biso   1.000  C
  O62      1.0000 0.44129  0.58279  0.53728  Biso   1.000  O
  H301     1.0000 0.72532  0.55740  0.73982  Biso   1.000  H
  O63      1.0000 0.55028  0.56399  0.73611  Biso   1.000  O
  H302     1.0000 0.62331  0.58161  0.69139  Biso   1.000  H
  H303     1.0000 0.62449  0.58820  0.76761  Biso   1.000  H
  H304     1.0000 0.24361  0.44759  0.86238  Biso   1.000  H
  H305     1.0000 0.19520  0.46679  0.90548  Biso   1.000  H
  O64      1.0000 0.23378  0.42340  0.94809  Biso   1.000  O
  C341     1.0000 0.08171  0.50860  0.78258  Biso   1.000  C
  H306     1.0000 0.04391  0.49530  0.69711  Biso   1.000  H
  H307     1.0000 0.11091  0.50401  0.69051  Biso   1.000  H
  H308     1.0000 0.14120  0.30339  0.84731  Biso   1.000  H
  H309     1.0000 0.12859  0.30789  0.92221  Biso   1.000  H
  C342     1.0000 0.14129  0.25261  0.89530  Biso   1.000  C
  C343     1.0000 0.32549  0.46561  0.03870  Biso   1.000  C
  H310     1.0000 0.53112  0.23610  0.99129  Biso   1.000  H
  C344     1.0000 0.49690  0.18269  0.99692  Biso   1.000  C
  C345     1.0000 0.39188  0.18171  0.99271  Biso   1.000  C
  H311     1.0000 0.35578  0.23441  0.98430  Biso   1.000  H
  C346     1.0000 0.21179  0.55760  0.60758  Biso   1.000  C
  C347     1.0000 0.33610  0.65480  0.59741  Biso   1.000  C
  C348     1.0000 0.22519  0.65019  0.60881  Biso   1.000  C
  C349     1.0000 0.44762  0.65761  0.59672  Biso   1.000  C
  C350     1.0000 0.47399  0.56459  0.58659  Biso   1.000  C
  C351     1.0000 0.52152  0.59861  0.72970  Biso   1.000  C
  C352     1.0000 0.09489  0.55141  0.77940  Biso   1.000  C
  H312     1.0000 0.04391  0.50470  0.80289  Biso   1.000  H
  H313     1.0000 0.11091  0.49599  0.80949  Biso   1.000  H
  C353     1.0000 0.12811  0.23080  0.84031  Biso   1.000  C
  C354     1.0000 0.14020  0.23579  0.95700  Biso   1.000  C
  H314     1.0000 0.28900  0.45329  0.05039  Biso   1.000  H
  H315     1.0000 0.35578  0.45679  0.06820  Biso   1.000  H
  C355     1.0000 0.31938  0.51040  0.04198  Biso   1.000  C
  C356     1.0000 0.44478  0.16240  0.99741  Biso   1.000  C
  H316     1.0000 0.53230  0.16979  0.00000  Biso   1.000  H
  H317     1.0000 0.35701  0.16810  0.99310  Biso   1.000  H
  O65      1.0000 0.16870  0.57941  0.64012  Biso   1.000  O
  H318     1.0000 0.24361  0.55241  0.63762  Biso   1.000  H
  H319     1.0000 0.19520  0.53321  0.59452  Biso   1.000  H
  H320     1.0000 0.33518  0.67950  0.61429  Biso   1.000  H
  C357     1.0000 0.21401  0.63761  0.67911  Biso   1.000  C
  H321     1.0000 0.19590  0.63761  0.58131  Biso   1.000  H
  C358     1.0000 0.21881  0.69421  0.59760  Biso   1.000  C
  C359     1.0000 0.46879  0.64440  0.66429  Biso   1.000  C
  H322     1.0000 0.47582  0.64761  0.56502  Biso   1.000  H
  C360     1.0000 0.44819  0.70111  0.58899  Biso   1.000  C
  H323     1.0000 0.44771  0.55579  0.62069  Biso   1.000  H
  H324     1.0000 0.49319  0.54230  0.56830  Biso   1.000  H
  O66      1.0000 0.51672  0.58921  0.61482  Biso   1.000  O
  C361     1.0000 0.50118  0.61090  0.66908  Biso   1.000  C
  C362     1.0000 0.50930  0.62001  0.78552  Biso   1.000  C
  O67      1.0000 0.15801  0.55350  0.76610  Biso   1.000  O
  H325     1.0000 0.08551  0.56379  0.82060  Biso   1.000  H
  H326     1.0000 0.07281  0.56350  0.74472  Biso   1.000  H
  H327     1.0000 0.12881  0.24200  0.79902  Biso   1.000  H
  C363     1.0000 0.11388  0.19231  0.84702  Biso   1.000  C
  C364     1.0000 0.12610  0.19730  0.96370  Biso   1.000  C
  H328     1.0000 0.14902  0.25029  0.99379  Biso   1.000  H
  H329     1.0000 0.29908  0.51760  0.08180  Biso   1.000  H
  H330     1.0000 0.29668  0.51940  0.00499  Biso   1.000  H
  C365     1.0000 0.37481  0.52760  0.04100  Biso   1.000  C
  H331     1.0000 0.44522  0.13580  0.00088  Biso   1.000  H
  C366     1.0000 0.18791  0.60230  0.69129  Biso   1.000  C
  C367     1.0000 0.23060  0.66091  0.73102  Biso   1.000  C
  H332     1.0000 0.24378  0.70810  0.62769  Biso   1.000  H
  H333     1.0000 0.23021  0.70071  0.55328  Biso   1.000  H
  C368     1.0000 0.15268  0.70541  0.60959  Biso   1.000  C
  C369     1.0000 0.45661  0.66569  0.72011  Biso   1.000  C
  H334     1.0000 0.48429  0.71100  0.60739  Biso   1.000  H
  H335     1.0000 0.41619  0.71180  0.61419  Biso   1.000  H
  C370     1.0000 0.44299  0.71501  0.51952  Biso   1.000  C
  C371     1.0000 0.47678  0.65351  0.78072  Biso   1.000  C
  O68      1.0000 0.53169  0.60689  0.84560  Biso   1.000  O
  C372     1.0000 0.17839  0.59041  0.75528  Biso   1.000  C
  H336     1.0000 0.10511  0.17770  0.81008  Biso   1.000  H
  C373     1.0000 0.11292  0.17549  0.90861  Biso   1.000  C
  H337     1.0000 0.12540  0.18601  0.00489  Biso   1.000  H
  H338     1.0000 0.39350  0.52390  0.08312  Biso   1.000  H
  H339     1.0000 0.39869  0.51519  0.00802  Biso   1.000  H
  C374     1.0000 0.37189  0.57121  0.02598  Biso   1.000  C
  C375     1.0000 0.22121  0.64901  0.79501  Biso   1.000  C
  H340     1.0000 0.24810  0.68449  0.72280  Biso   1.000  H
  H341     1.0000 0.14120  0.69661  0.65269  Biso   1.000  H
  H342     1.0000 0.12859  0.69211  0.57779  Biso   1.000  H
  C376     1.0000 0.14129  0.74739  0.60470  Biso   1.000  C
  H343     1.0000 0.43492  0.68819  0.71678  Biso   1.000  H
  H344     1.0000 0.40711  0.70510  0.50088  Biso   1.000  H
  H345     1.0000 0.47521  0.70461  0.49418  Biso   1.000  H
  C377     1.0000 0.44330  0.75820  0.51311  Biso   1.000  C
  C378     1.0000 0.46220  0.67670  0.84261  Biso   1.000  C
  C379     1.0000 0.48970  0.58740  0.88728  Biso   1.000  C
  C380     1.0000 0.19511  0.61371  0.80719  Biso   1.000  C
  H346     1.0000 0.10340  0.14970  0.91311  Biso   1.000  H
  O69      1.0000 0.35949  0.57439  0.95920  Biso   1.000  O
  H347     1.0000 0.40890  0.58339  0.03611  Biso   1.000  H
  H348     1.0000 0.34151  0.58339  0.05181  Biso   1.000  H
  C381     1.0000 0.24090  0.67291  0.85538  Biso   1.000  C
  C382     1.0000 0.12811  0.76920  0.65969  Biso   1.000  C
  C383     1.0000 0.14020  0.76421  0.54300  Biso   1.000  C
  C384     1.0000 0.49620  0.77760  0.50841  Biso   1.000  C
  C385     1.0000 0.39118  0.77860  0.51252  Biso   1.000  C
  C386     1.0000 0.40541  0.65990  0.86928  Biso   1.000  C
  H349     1.0000 0.49271  0.67111  0.87480  Biso   1.000  H
  C387     1.0000 0.46251  0.72080  0.83170  Biso   1.000  C
  O70      1.0000 0.46058  0.61251  0.92901  Biso   1.000  O
  H350     1.0000 0.50991  0.56829  0.91321  Biso   1.000  H
  H351     1.0000 0.46141  0.57431  0.85998  Biso   1.000  H
  O71      1.0000 0.17879  0.60139  0.86879  Biso   1.000  O
  C388     1.0000 0.35740  0.61059  0.93151  Biso   1.000  C
  C389     1.0000 0.30061  0.65861  0.87588  Biso   1.000  C
  H352     1.0000 0.21371  0.66741  0.89119  Biso   1.000  H
  C390     1.0000 0.23710  0.71610  0.84061  Biso   1.000  C
  H353     1.0000 0.12881  0.75800  0.70098  Biso   1.000  H
  C391     1.0000 0.11388  0.80769  0.65298  Biso   1.000  C
  C392     1.0000 0.12610  0.80270  0.53630  Biso   1.000  C
  H354     1.0000 0.14902  0.74971  0.50621  Biso   1.000  H
  H355     1.0000 0.53112  0.76390  0.50871  Biso   1.000  H
  C393     1.0000 0.49690  0.81731  0.50308  Biso   1.000  C
  C394     1.0000 0.39188  0.81829  0.50729  Biso   1.000  C
  H356     1.0000 0.35578  0.76559  0.51570  Biso   1.000  H
  C395     1.0000 0.35151  0.67549  0.85298  Biso   1.000  C
  C396     1.0000 0.40829  0.62741  0.90861  Biso   1.000  C
  H357     1.0000 0.44889  0.73361  0.87089  Biso   1.000  H
  H358     1.0000 0.43610  0.72719  0.79618  Biso   1.000  H
  C397     1.0000 0.52409  0.73490  0.81492  Biso   1.000  C
  C398     1.0000 0.22540  0.58330  0.90548  Biso   1.000  C
  C399     1.0000 0.30340  0.62609  0.91522  Biso   1.000  C
  H359     1.0000 0.19961  0.72140  0.82050  Biso   1.000  H
  H360     1.0000 0.26709  0.72260  0.80910  Biso   1.000  H
  C400     1.0000 0.24339  0.73951  0.89501  Biso   1.000  C
  H361     1.0000 0.10511  0.82230  0.68992  Biso   1.000  H
  C401     1.0000 0.11292  0.82451  0.59139  Biso   1.000  C
  H362     1.0000 0.12540  0.81399  0.49511  Biso   1.000  H
  H363     1.0000 0.53230  0.83021  0.50000  Biso   1.000  H
  C402     1.0000 0.44478  0.83760  0.50259  Biso   1.000  C
  H364     1.0000 0.35701  0.83190  0.50690  Biso   1.000  H
  H365     1.0000 0.34959  0.69719  0.82671  Biso   1.000  H
  H366     1.0000 0.54120  0.71730  0.78361  Biso   1.000  H
  H367     1.0000 0.54771  0.73381  0.85431  Biso   1.000  H
  C403     1.0000 0.52780  0.77341  0.78831  Biso   1.000  C
  O72      1.0000 0.25421  0.60990  0.94452  Biso   1.000  O
  H368     1.0000 0.25290  0.57170  0.87539  Biso   1.000  H
  H369     1.0000 0.20930  0.56319  0.93278  Biso   1.000  H
  H370     1.0000 0.22510  0.72899  0.93381  Biso   1.000  H
  H371     1.0000 0.28381  0.74599  0.90391  Biso   1.000  H
  H372     1.0000 0.10340  0.85030  0.58689  Biso   1.000  H
  H373     1.0000 0.44522  0.86420  0.49912  Biso   1.000  H
  C404     1.0000 0.55251  0.80261  0.82520  Biso   1.000  C
  C405     1.0000 0.50759  0.78081  0.72539  Biso   1.000  C
  H374     1.0000 0.56591  0.79771  0.86732  Biso   1.000  H
  C406     1.0000 0.55701  0.83929  0.79922  Biso   1.000  C
  C407     1.0000 0.51222  0.81740  0.69941  Biso   1.000  C
  H375     1.0000 0.49110  0.76109  0.70078  Biso   1.000  H
  H376     1.0000 0.57351  0.85890  0.82378  Biso   1.000  H
  C408     1.0000 0.53688  0.84669  0.73630  Biso   1.000  C
  H377     1.0000 0.49869  0.82239  0.65729  Biso   1.000  H
  H378     1.0000 0.53990  0.87130  0.71888  Biso   1.000  H
  C409     1.0000 0.74339  0.23951  0.60499  Biso   1.000  C
  C410     1.0000 0.73710  0.21610  0.65939  Biso   1.000  C
  H379     1.0000 0.72510  0.22899  0.56619  Biso   1.000  H
  H380     1.0000 0.78381  0.24599  0.59609  Biso   1.000  H
  C411     1.0000 0.74090  0.17291  0.64462  Biso   1.000  C
  H381     1.0000 0.69961  0.22140  0.67950  Biso   1.000  H
  H382     1.0000 0.76709  0.22260  0.69090  Biso   1.000  H
  C412     1.0000 0.80061  0.15861  0.62412  Biso   1.000  C
  C413     1.0000 0.72121  0.14901  0.70499  Biso   1.000  C
  H383     1.0000 0.71371  0.16741  0.60881  Biso   1.000  H
  C414     1.0000 0.85151  0.17549  0.64702  Biso   1.000  C
  C415     1.0000 0.80340  0.12609  0.58478  Biso   1.000  C
  C416     1.0000 0.69511  0.11371  0.69281  Biso   1.000  C
  C417     1.0000 0.73060  0.16091  0.76898  Biso   1.000  C
  C418     1.0000 0.90541  0.15990  0.63072  Biso   1.000  C
  H384     1.0000 0.84959  0.19719  0.67329  Biso   1.000  H
  C419     1.0000 0.85740  0.11059  0.56849  Biso   1.000  C
  O73      1.0000 0.75421  0.10990  0.55548  Biso   1.000  O
  O74      1.0000 0.67879  0.10139  0.63121  Biso   1.000  O
  C420     1.0000 0.67839  0.09041  0.74472  Biso   1.000  C
  H385     1.0000 0.74810  0.18449  0.77720  Biso   1.000  H
  C421     1.0000 0.71401  0.13761  0.82089  Biso   1.000  C
  C422     1.0000 0.90829  0.12741  0.59139  Biso   1.000  C
  C423     1.0000 0.96220  0.17670  0.65739  Biso   1.000  C
  O75      1.0000 0.85949  0.07439  0.54080  Biso   1.000  O
  C424     1.0000 0.72540  0.08330  0.59452  Biso   1.000  C
  C425     1.0000 0.68791  0.10230  0.80871  Biso   1.000  C
  O76      1.0000 0.65801  0.05350  0.73390  Biso   1.000  O
  C426     1.0000 0.72519  0.15019  0.89119  Biso   1.000  C
  O77      1.0000 0.96058  0.11251  0.57099  Biso   1.000  O
  C427     1.0000 0.97678  0.15351  0.71928  Biso   1.000  C
  H386     1.0000 0.99271  0.17111  0.62520  Biso   1.000  H
  C428     1.0000 0.96251  0.22080  0.66830  Biso   1.000  C
  C429     1.0000 0.87189  0.07121  0.47402  Biso   1.000  C
  H387     1.0000 0.75290  0.07170  0.62461  Biso   1.000  H
  H388     1.0000 0.70930  0.06319  0.56722  Biso   1.000  H
  O78      1.0000 0.66870  0.07941  0.85988  Biso   1.000  O
  C430     1.0000 0.59489  0.05141  0.72060  Biso   1.000  C
  C431     1.0000 0.78442  0.13460  0.91140  Biso   1.000  C
  H389     1.0000 0.69590  0.13761  0.91869  Biso   1.000  H
  C432     1.0000 0.71881  0.19421  0.90240  Biso   1.000  C
  C433     1.0000 0.98970  0.08740  0.61272  Biso   1.000  C
  C434     1.0000 0.95661  0.16569  0.77989  Biso   1.000  C
  C435     1.0000 0.00930  0.12001  0.71448  Biso   1.000  C
  H390     1.0000 0.94889  0.23361  0.62911  Biso   1.000  H
  H391     1.0000 0.93610  0.22719  0.70382  Biso   1.000  H
  C436     1.0000 0.02409  0.23490  0.68508  Biso   1.000  C
  C437     1.0000 0.87481  0.02760  0.45900  Biso   1.000  C
  H392     1.0000 0.90890  0.08339  0.46389  Biso   1.000  H
  H393     1.0000 0.84151  0.08339  0.44819  Biso   1.000  H
  C438     1.0000 0.71179  0.05760  0.89242  Biso   1.000  C
  H394     1.0000 0.58551  0.06379  0.67940  Biso   1.000  H
  H395     1.0000 0.57281  0.06350  0.75528  Biso   1.000  H
  C439     1.0000 0.58171  0.00860  0.71742  Biso   1.000  C
  C440     1.0000 0.78568  0.09760  0.93679  Biso   1.000  C
  C441     1.0000 0.83610  0.15480  0.90259  Biso   1.000  C
  H396     1.0000 0.74378  0.20810  0.87231  Biso   1.000  H
  H397     1.0000 0.73021  0.20071  0.94672  Biso   1.000  H
  C442     1.0000 0.65268  0.20541  0.89041  Biso   1.000  C
  H398     1.0000 0.96141  0.07431  0.64002  Biso   1.000  H
  O79      1.0000 0.03169  0.10689  0.65440  Biso   1.000  O
  H399     1.0000 0.00991  0.06829  0.58679  Biso   1.000  H
  C443     1.0000 0.96879  0.14440  0.83571  Biso   1.000  C
  H400     1.0000 0.93492  0.18819  0.78322  Biso   1.000  H
  C444     1.0000 0.02152  0.09861  0.77030  Biso   1.000  C
  H401     1.0000 0.04120  0.21730  0.71639  Biso   1.000  H
  H402     1.0000 0.04771  0.23381  0.64569  Biso   1.000  H
  C445     1.0000 0.02780  0.27341  0.71169  Biso   1.000  C
  C446     1.0000 0.81938  0.01040  0.45802  Biso   1.000  C
  H403     1.0000 0.89350  0.02390  0.41688  Biso   1.000  H
  H404     1.0000 0.89869  0.01519  0.49198  Biso   1.000  H
  H405     1.0000 0.74361  0.05241  0.86238  Biso   1.000  H
  H406     1.0000 0.69520  0.03321  0.90548  Biso   1.000  H
  O80      1.0000 0.73378  0.07660  0.94809  Biso   1.000  O
  H407     1.0000 0.54391  0.00470  0.69711  Biso   1.000  H
  C447     1.0000 0.58171  0.99140  0.78258  Biso   1.000  C
  H408     1.0000 0.61091  0.99599  0.69051  Biso   1.000  H
  C448     1.0000 0.83880  0.08090  0.95318  Biso   1.000  C
  H409     1.0000 0.83518  0.17950  0.88571  Biso   1.000  H
  C449     1.0000 0.88909  0.13801  0.91908  Biso   1.000  C
  H410     1.0000 0.64120  0.19661  0.84731  Biso   1.000  H
  H411     1.0000 0.62859  0.19211  0.92221  Biso   1.000  H
  C450     1.0000 0.64129  0.24739  0.89530  Biso   1.000  C
  C451     1.0000 0.94762  0.15761  0.90328  Biso   1.000  C
  C452     1.0000 0.00118  0.11090  0.83092  Biso   1.000  C
  O81      1.0000 0.05028  0.06399  0.76389  Biso   1.000  O
  C453     1.0000 0.05251  0.30261  0.67480  Biso   1.000  C
  C454     1.0000 0.00759  0.28081  0.77461  Biso   1.000  C
  H412     1.0000 0.79908  0.01760  0.41820  Biso   1.000  H
  H413     1.0000 0.79668  0.01940  0.49501  Biso   1.000  H
  C455     1.0000 0.82549  0.96561  0.46130  Biso   1.000  C
  H414     1.0000 0.61091  0.00401  0.80949  Biso   1.000  H
  C456     1.0000 0.59489  0.94859  0.77940  Biso   1.000  C
  H415     1.0000 0.54391  0.99530  0.80289  Biso   1.000  H
  C457     1.0000 0.89048  0.10099  0.94442  Biso   1.000  C
  O82      1.0000 0.84081  0.04270  0.97118  Biso   1.000  O
  C458     1.0000 0.62811  0.26920  0.84031  Biso   1.000  C
  C459     1.0000 0.64020  0.26421  0.95700  Biso   1.000  C
  H416     1.0000 0.97582  0.14761  0.93498  Biso   1.000  H
  C460     1.0000 0.94819  0.20111  0.91101  Biso   1.000  C
  O83      1.0000 0.01672  0.08921  0.88518  Biso   1.000  O
  C461     1.0000 0.11270  0.07061  0.76668  Biso   1.000  C
  H417     1.0000 0.06591  0.29771  0.63268  Biso   1.000  H
  C462     1.0000 0.05701  0.33929  0.70078  Biso   1.000  C
  H418     1.0000 0.99110  0.26109  0.79922  Biso   1.000  H
  C463     1.0000 0.01222  0.31740  0.80059  Biso   1.000  C
  O84      1.0000 0.84081  0.95730  0.52882  Biso   1.000  O
  H419     1.0000 0.78900  0.95329  0.44961  Biso   1.000  H
  H420     1.0000 0.85578  0.95679  0.43180  Biso   1.000  H
  O85      1.0000 0.65801  0.94650  0.76610  Biso   1.000  O
  H421     1.0000 0.58551  0.93621  0.82060  Biso   1.000  H
  H422     1.0000 0.57281  0.93650  0.74472  Biso   1.000  H
  O86      1.0000 0.94129  0.08279  0.96272  Biso   1.000  O
  C464     1.0000 0.82549  0.03439  0.03870  Biso   1.000  C
  H423     1.0000 0.62881  0.25800  0.79902  Biso   1.000  H
  C465     1.0000 0.61388  0.30769  0.84702  Biso   1.000  C
  C466     1.0000 0.62610  0.30270  0.96370  Biso   1.000  C
  H424     1.0000 0.64902  0.24971  0.99379  Biso   1.000  H
  H425     1.0000 0.98429  0.21100  0.89261  Biso   1.000  H
  H426     1.0000 0.91619  0.21180  0.88581  Biso   1.000  H
  C467     1.0000 0.94299  0.21501  0.98048  Biso   1.000  C
  C468     1.0000 0.97399  0.06459  0.91341  Biso   1.000  C
  H427     1.0000 0.12331  0.08161  0.80861  Biso   1.000  H
  H428     1.0000 0.12449  0.08820  0.73239  Biso   1.000  H
  C469     1.0000 0.14182  0.03370  0.75812  Biso   1.000  C
  H429     1.0000 0.07351  0.35890  0.67622  Biso   1.000  H
  C470     1.0000 0.03688  0.34669  0.76370  Biso   1.000  C
  H430     1.0000 0.99869  0.32239  0.84271  Biso   1.000  H
  C471     1.0000 0.83880  0.91910  0.54682  Biso   1.000  C
  C472     1.0000 0.67839  0.90959  0.75528  Biso   1.000  C
  C473     1.0000 0.81938  0.98960  0.04198  Biso   1.000  C
  H431     1.0000 0.78900  0.04671  0.05039  Biso   1.000  H
  H432     1.0000 0.85578  0.04321  0.06820  Biso   1.000  H
  H433     1.0000 0.60511  0.32230  0.81008  Biso   1.000  H
  C474     1.0000 0.61292  0.32451  0.90861  Biso   1.000  C
  H434     1.0000 0.62540  0.31399  0.00489  Biso   1.000  H
  H435     1.0000 0.90711  0.20510  0.99912  Biso   1.000  H
  C475     1.0000 0.94330  0.25820  0.98689  Biso   1.000  C
  H436     1.0000 0.97521  0.20461  0.00582  Biso   1.000  H
  H437     1.0000 0.94771  0.05579  0.87931  Biso   1.000  H
  H438     1.0000 0.99319  0.04230  0.93170  Biso   1.000  H
  C476     1.0000 0.20519  0.03430  0.75660  Biso   1.000  C
  C477     1.0000 0.11419  0.00000  0.75000  Biso   1.000  C
  H439     1.0000 0.03990  0.37130  0.78112  Biso   1.000  H
  C478     1.0000 0.78568  0.90240  0.56321  Biso   1.000  C
  C479     1.0000 0.89048  0.89901  0.55558  Biso   1.000  C
  C480     1.0000 0.69511  0.88629  0.80719  Biso   1.000  C
  C481     1.0000 0.68791  0.89770  0.69129  Biso   1.000  C
  H440     1.0000 0.79908  0.98240  0.08180  Biso   1.000  H
  H441     1.0000 0.79668  0.98060  0.00499  Biso   1.000  H
  C482     1.0000 0.87481  0.97240  0.04100  Biso   1.000  C
  H442     1.0000 0.60340  0.35030  0.91311  Biso   1.000  H
  C483     1.0000 0.99620  0.27760  0.99159  Biso   1.000  C
  C484     1.0000 0.89118  0.27860  0.98752  Biso   1.000  C
  H443     1.0000 0.22532  0.05740  0.76018  Biso   1.000  H
  C485     1.0000 0.23570  0.00000  0.75000  Biso   1.000  C
  C486     1.0000 0.14182  0.96630  0.74188  Biso   1.000  C
  H444     1.0000 0.07359  0.00000  0.75000  Biso   1.000  H
  O87      1.0000 0.73378  0.92340  0.55191  Biso   1.000  O
  C487     1.0000 0.78442  0.86540  0.58860  Biso   1.000  C
  C488     1.0000 0.88909  0.86199  0.58092  Biso   1.000  C
  O88      1.0000 0.94129  0.91721  0.53728  Biso   1.000  O
  O89      1.0000 0.67879  0.89861  0.86879  Biso   1.000  O
  C489     1.0000 0.72121  0.85099  0.79501  Biso   1.000  C
  O90      1.0000 0.66870  0.92059  0.64012  Biso   1.000  O
  C490     1.0000 0.71401  0.86239  0.67911  Biso   1.000  C
  H445     1.0000 0.89350  0.97610  0.08312  Biso   1.000  H
  H446     1.0000 0.89869  0.98481  0.00802  Biso   1.000  H
  C491     1.0000 0.87189  0.92879  0.02598  Biso   1.000  C
  C492     1.0000 0.99690  0.31731  0.99692  Biso   1.000  C
  H447     1.0000 0.03112  0.26390  0.99129  Biso   1.000  H
  C493     1.0000 0.89188  0.31829  0.99271  Biso   1.000  C
  H448     1.0000 0.85578  0.26559  0.98430  Biso   1.000  H
  C494     1.0000 0.20519  0.96570  0.74340  Biso   1.000  C
  H449     1.0000 0.27630  0.00000  0.75000  Biso   1.000  H
  C495     1.0000 0.11270  0.92939  0.73332  Biso   1.000  C
  C496     1.0000 0.71179  0.94240  0.60758  Biso   1.000  C
  C497     1.0000 0.83610  0.84520  0.59741  Biso   1.000  C
  C498     1.0000 0.72519  0.84981  0.60881  Biso   1.000  C
  C499     1.0000 0.94762  0.84239  0.59672  Biso   1.000  C
  C500     1.0000 0.97399  0.93541  0.58659  Biso   1.000  C
  C501     1.0000 0.72540  0.91670  0.90548  Biso   1.000  C
  C502     1.0000 0.73060  0.83909  0.73102  Biso   1.000  C
  C503     1.0000 0.74090  0.82709  0.85538  Biso   1.000  C
  O91      1.0000 0.85949  0.92561  0.95920  Biso   1.000  O
  H450     1.0000 0.90890  0.91661  0.03611  Biso   1.000  H
  H451     1.0000 0.84151  0.91661  0.05181  Biso   1.000  H
  C504     1.0000 0.94478  0.33760  0.99741  Biso   1.000  C
  H452     1.0000 0.03230  0.33021  0.00000  Biso   1.000  H
  H453     1.0000 0.85701  0.33190  0.99310  Biso   1.000  H
  H454     1.0000 0.22532  0.94260  0.73982  Biso   1.000  H
  O92      1.0000 0.05028  0.93601  0.73611  Biso   1.000  O
  H455     1.0000 0.12331  0.91839  0.69139  Biso   1.000  H
  H456     1.0000 0.12449  0.91180  0.76761  Biso   1.000  H
  H457     1.0000 0.74361  0.94759  0.63762  Biso   1.000  H
  H458     1.0000 0.69520  0.96679  0.59452  Biso   1.000  H
  H459     1.0000 0.83518  0.82050  0.61429  Biso   1.000  H
  H460     1.0000 0.69590  0.86239  0.58131  Biso   1.000  H
  C505     1.0000 0.71881  0.80579  0.59760  Biso   1.000  C
  C506     1.0000 0.96879  0.85560  0.66429  Biso   1.000  C
  H461     1.0000 0.97582  0.85239  0.56502  Biso   1.000  H
  C507     1.0000 0.94819  0.79889  0.58899  Biso   1.000  C
  H462     1.0000 0.94771  0.94421  0.62069  Biso   1.000  H
  H463     1.0000 0.99319  0.95770  0.56830  Biso   1.000  H
  O93      1.0000 0.01672  0.91079  0.61482  Biso   1.000  O
  O94      1.0000 0.75421  0.89010  0.94452  Biso   1.000  O
  H464     1.0000 0.75290  0.92830  0.87539  Biso   1.000  H
  H465     1.0000 0.70930  0.93681  0.93278  Biso   1.000  H
  H466     1.0000 0.74810  0.81551  0.72280  Biso   1.000  H
  C508     1.0000 0.80061  0.84139  0.87588  Biso   1.000  C
  H467     1.0000 0.71371  0.83259  0.89119  Biso   1.000  H
  C509     1.0000 0.73710  0.78390  0.84061  Biso   1.000  C
  C510     1.0000 0.85740  0.88941  0.93151  Biso   1.000  C
  H468     1.0000 0.94522  0.36420  0.00088  Biso   1.000  H
  C511     1.0000 0.02152  0.90139  0.72970  Biso   1.000  C
  H469     1.0000 0.74378  0.79190  0.62769  Biso   1.000  H
  H470     1.0000 0.73021  0.79929  0.55328  Biso   1.000  H
  C512     1.0000 0.65268  0.79459  0.60959  Biso   1.000  C
  C513     1.0000 0.95661  0.83431  0.72011  Biso   1.000  C
  C514     1.0000 0.00118  0.88910  0.66908  Biso   1.000  C
  H471     1.0000 0.98429  0.78900  0.60739  Biso   1.000  H
  H472     1.0000 0.91619  0.78820  0.61419  Biso   1.000  H
  C515     1.0000 0.94299  0.78499  0.51952  Biso   1.000  C
  C516     1.0000 0.80340  0.87391  0.91522  Biso   1.000  C
  C517     1.0000 0.85151  0.82451  0.85298  Biso   1.000  C
  H473     1.0000 0.69961  0.77860  0.82050  Biso   1.000  H
  H474     1.0000 0.76709  0.77740  0.80910  Biso   1.000  H
  C518     1.0000 0.74339  0.76049  0.89501  Biso   1.000  C
  C519     1.0000 0.90829  0.87259  0.90861  Biso   1.000  C
  C520     1.0000 0.00930  0.87999  0.78552  Biso   1.000  C
  H475     1.0000 0.64120  0.80339  0.65269  Biso   1.000  H
  H476     1.0000 0.62859  0.80789  0.57779  Biso   1.000  H
  C521     1.0000 0.64129  0.75261  0.60470  Biso   1.000  C
  H477     1.0000 0.93492  0.81181  0.71678  Biso   1.000  H
  C522     1.0000 0.97678  0.84649  0.78072  Biso   1.000  C
  H478     1.0000 0.90711  0.79490  0.50088  Biso   1.000  H
  H479     1.0000 0.97521  0.79539  0.49418  Biso   1.000  H
  C523     1.0000 0.94330  0.74180  0.51311  Biso   1.000  C
  C524     1.0000 0.90541  0.84010  0.86928  Biso   1.000  C
  H480     1.0000 0.84959  0.80281  0.82671  Biso   1.000  H
  H481     1.0000 0.72510  0.77101  0.93381  Biso   1.000  H
  H482     1.0000 0.78381  0.75401  0.90391  Biso   1.000  H
  O95      1.0000 0.96058  0.88749  0.92901  Biso   1.000  O
  O96      1.0000 0.03169  0.89311  0.84560  Biso   1.000  O
  C525     1.0000 0.62811  0.73080  0.65969  Biso   1.000  C
  C526     1.0000 0.64020  0.73579  0.54300  Biso   1.000  C
  C527     1.0000 0.96220  0.82330  0.84261  Biso   1.000  C
  C528     1.0000 0.99620  0.72240  0.50841  Biso   1.000  C
  C529     1.0000 0.89118  0.72140  0.51252  Biso   1.000  C
  C530     1.0000 0.98970  0.91260  0.88728  Biso   1.000  C
  H483     1.0000 0.62881  0.74200  0.70098  Biso   1.000  H
  C531     1.0000 0.61388  0.69231  0.65298  Biso   1.000  C
  C532     1.0000 0.62610  0.69730  0.53630  Biso   1.000  C
  H484     1.0000 0.64902  0.75029  0.50621  Biso   1.000  H
  H485     1.0000 0.99271  0.82889  0.87480  Biso   1.000  H
  C533     1.0000 0.96251  0.77920  0.83170  Biso   1.000  C
  C534     1.0000 0.99690  0.68269  0.50308  Biso   1.000  C
  H486     1.0000 0.03112  0.73610  0.50871  Biso   1.000  H
  C535     1.0000 0.89188  0.68171  0.50729  Biso   1.000  C
  H487     1.0000 0.85578  0.73441  0.51570  Biso   1.000  H
  H488     1.0000 0.96141  0.92569  0.85998  Biso   1.000  H
  H489     1.0000 0.00991  0.93171  0.91321  Biso   1.000  H
  H490     1.0000 0.60511  0.67770  0.68992  Biso   1.000  H
  C536     1.0000 0.61292  0.67549  0.59139  Biso   1.000  C
  H491     1.0000 0.62540  0.68601  0.49511  Biso   1.000  H
  H492     1.0000 0.94889  0.76639  0.87089  Biso   1.000  H
  H493     1.0000 0.93610  0.77281  0.79618  Biso   1.000  H
  C537     1.0000 0.02409  0.76510  0.81492  Biso   1.000  C
  C538     1.0000 0.94478  0.66240  0.50259  Biso   1.000  C
  H494     1.0000 0.03230  0.66979  0.50000  Biso   1.000  H
  H495     1.0000 0.85701  0.66810  0.50690  Biso   1.000  H
  H496     1.0000 0.60340  0.64970  0.58689  Biso   1.000  H
  H497     1.0000 0.04120  0.78270  0.78361  Biso   1.000  H
  H498     1.0000 0.04771  0.76619  0.85431  Biso   1.000  H
  C539     1.0000 0.02780  0.72659  0.78831  Biso   1.000  C
  H499     1.0000 0.94522  0.63580  0.49912  Biso   1.000  H
  C540     1.0000 0.05251  0.69739  0.82520  Biso   1.000  C
  C541     1.0000 0.00759  0.71919  0.72539  Biso   1.000  C
  H500     1.0000 0.06591  0.70229  0.86732  Biso   1.000  H
  C542     1.0000 0.05701  0.66071  0.79922  Biso   1.000  C
  H501     1.0000 0.99110  0.73891  0.70078  Biso   1.000  H
  C543     1.0000 0.01222  0.68260  0.69941  Biso   1.000  C
  H502     1.0000 0.07351  0.64110  0.82378  Biso   1.000  H
  C544     1.0000 0.03688  0.65331  0.73630  Biso   1.000  C
  H503     1.0000 0.99869  0.67761  0.65729  Biso   1.000  H
  H504     1.0000 0.03990  0.62870  0.71888  Biso   1.000  H
  Ne1      1.0000 0.14043  0.00000  0.25000  Biso   1.000  Ne
  He1      1.0000 0.99196  0.99329  0.34047  Biso   1.000  He
  He2      1.0000 0.31542  0.98198  0.36373  Biso   1.000  He
  He3      1.0000 0.15640  0.16498  0.27234  Biso   1.000  He
  He4      1.0000 0.15637  0.83883  0.22358  Biso   1.000  He
  He5      1.0000 0.95567  0.00744  0.12583  Biso   1.000  He
  He6      1.0000 0.27481  0.00998  0.04420  Biso   1.000  He
  Ar1      1.0000 0.14043  0.00000  0.25000  Biso   1.000  Ar
  Ne2      1.0000 0.64043  0.50000  0.25000  Biso   1.000  Ne
  He7      1.0000 0.45696  0.50746  0.37308  Biso   1.000  He
  He8      1.0000 0.77326  0.51009  0.45364  Biso   1.000  He
  He9      1.0000 0.65672  0.33264  0.27759  Biso   1.000  He
  He10     1.0000 0.65679  0.66877  0.22215  Biso   1.000  He
  He11     1.0000 0.48012  0.49322  0.14937  Biso   1.000  He
  He12     1.0000 0.81858  0.48165  0.13457  Biso   1.000  He
  Ar2      1.0000 0.64419  0.49735  0.24665  Biso   1.000  Ar
  Ne3      1.0000 0.35957  0.50000  0.75000  Biso   1.000  Ne
  He13     1.0000 0.50782  0.50671  0.84030  Biso   1.000  He
  He14     1.0000 0.18040  0.51846  0.86598  Biso   1.000  He
  He15     1.0000 0.34350  0.33323  0.77282  Biso   1.000  He
  He16     1.0000 0.34345  0.66448  0.72295  Biso   1.000  He
  He17     1.0000 0.51953  0.49323  0.64975  Biso   1.000  He
  He18     1.0000 0.18106  0.48161  0.63438  Biso   1.000  He
  Ar3      1.0000 0.35571  0.50003  0.74994  Biso   1.000  Ar
  Ne4      1.0000 0.85957  0.00000  0.75000  Biso   1.000  Ne
  He19     1.0000 0.03220  0.99275  0.86379  Biso   1.000  He
  He20     1.0000 0.72460  0.99007  0.95663  Biso   1.000  He
  He21     1.0000 0.84362  0.16474  0.77226  Biso   1.000  He
  He22     1.0000 0.84303  0.82804  0.72154  Biso   1.000  He
  He23     1.0000 0.02201  0.00682  0.64702  Biso   1.000  He
  He24     1.0000 0.68211  0.01828  0.63494  Biso   1.000  He
  Ar4      1.0000 0.85571  0.99997  0.74994  Biso   1.000  Ar
