data_image0
_cell_length_a       31.782
_cell_length_b       31.782
_cell_length_c       12.388
_cell_angle_alpha    90
_cell_angle_beta     90
_cell_angle_gamma    120

_symmetry_space_group_name_H-M    "P 1"
_symmetry_int_tables_number       1

loop_
  _symmetry_equiv_pos_as_xyz
  'x, y, z'

loop_
  _atom_site_label
  _atom_site_occupancy
  _atom_site_fract_x
  _atom_site_fract_y
  _atom_site_fract_z
  _atom_site_thermal_displace_type
  _atom_site_B_iso_or_equiv
  _atom_site_type_symbol
  O1       1.0000 0.44223  0.56245  0.27034  Biso   1.000  O
  C1       1.0000 0.40815  0.53168  0.23507  Biso   1.000  C
  C2       1.0000 0.41235  0.51936  0.24976  Biso   1.000  C
  N1       1.0000 0.40184  0.48986  0.28770  Biso   1.000  N
  N2       1.0000 0.37633  0.50327  0.17695  Biso   1.000  N
  N3       1.0000 0.37452  0.51766  0.15701  Biso   1.000  N
  O2       1.0000 0.43913  0.57375  0.26114  Biso   1.000  O
  N4       1.0000 0.41074  0.47896  0.29803  Biso   1.000  N
  C3       1.0000 0.35845  0.44688  0.24790  Biso   1.000  C
  C4       1.0000 0.36854  0.43446  0.26259  Biso   1.000  C
  C5       1.0000 0.42812  0.48986  0.38093  Biso   1.000  C
  C6       1.0000 0.34444  0.45157  0.17937  Biso   1.000  C
  C7       1.0000 0.33944  0.46686  0.15798  Biso   1.000  C
  C8       1.0000 0.36583  0.53608  0.11794  Biso   1.000  C
  C9       1.0000 0.37095  0.55028  0.08169  Biso   1.000  C
  C10      1.0000 0.44273  0.48158  0.38319  Biso   1.000  C
  N5       1.0000 0.36863  0.41368  0.19204  Biso   1.000  N
  H1       1.0000 0.33382  0.43046  0.30626  Biso   1.000  H
  H2       1.0000 0.34613  0.41676  0.32394  Biso   1.000  H
  N6       1.0000 0.37995  0.40328  0.20100  Biso   1.000  N
  N7       1.0000 0.46226  0.47282  0.36091  Biso   1.000  N
  H3       1.0000 0.40465  0.46897  0.43679  Biso   1.000  H
  H4       1.0000 0.44623  0.52325  0.41015  Biso   1.000  H
  H5       1.0000 0.42262  0.46036  0.44285  Biso   1.000  H
  H6       1.0000 0.46004  0.51526  0.41088  Biso   1.000  H
  N8       1.0000 0.34473  0.42497  0.08193  Biso   1.000  N
  N9       1.0000 0.34103  0.44085  0.06248  Biso   1.000  N
  H7       1.0000 0.31072  0.44267  0.20116  Biso   1.000  H
  H8       1.0000 0.30593  0.46058  0.17339  Biso   1.000  H
  H9       1.0000 0.33654  0.54225  0.07806  Biso   1.000  H
  H10      1.0000 0.33083  0.52485  0.12625  Biso   1.000  H
  H11      1.0000 0.38412  0.56856  0.15184  Biso   1.000  H
  N10      1.0000 0.37703  0.54116  0.00517  Biso   1.000  N
  H12      1.0000 0.39022  0.58385  0.10978  Biso   1.000  H
  N11      1.0000 0.38753  0.54908  0.97215  Biso   1.000  N
  N12      1.0000 0.47788  0.46825  0.35655  Biso   1.000  N
  C11      1.0000 0.37601  0.37905  0.24645  Biso   1.000  C
  C12      1.0000 0.35714  0.40957  0.08654  Biso   1.000  C
  C13      1.0000 0.36464  0.39707  0.09743  Biso   1.000  C
  C14      1.0000 0.38892  0.36837  0.25000  Biso   1.000  C
  C15      1.0000 0.44976  0.42265  0.36753  Biso   1.000  C
  C16      1.0000 0.51216  0.50334  0.36027  Biso   1.000  C
  C17      1.0000 0.31523  0.42167  0.99023  Biso   1.000  C
  C18      1.0000 0.31384  0.43638  0.96489  Biso   1.000  C
  C19      1.0000 0.35464  0.52005  0.88707  Biso   1.000  C
  C20      1.0000 0.34312  0.50846  0.92670  Biso   1.000  C
  C21      1.0000 0.41815  0.57917  0.96384  Biso   1.000  C
  C22      1.0000 0.42694  0.58945  0.93195  Biso   1.000  C
  N13      1.0000 0.41253  0.57517  0.85438  Biso   1.000  N
  C23      1.0000 0.46778  0.41854  0.36342  Biso   1.000  C
  N14      1.0000 0.53378  0.47584  0.35664  Biso   1.000  N
  C24      1.0000 0.52746  0.50153  0.35664  Biso   1.000  C
  N15      1.0000 0.42656  0.39493  0.27083  Biso   1.000  N
  H13      1.0000 0.36272  0.34926  0.20165  Biso   1.000  H
  H14      1.0000 0.35752  0.37026  0.31498  Biso   1.000  H
  H15      1.0000 0.37094  0.35776  0.31918  Biso   1.000  H
  O3       1.0000 0.36143  0.38287  0.02123  Biso   1.000  O
  O4       1.0000 0.36875  0.37138  0.02938  Biso   1.000  O
  N16      1.0000 0.44186  0.38802  0.27083  Biso   1.000  N
  H16      1.0000 0.37663  0.33956  0.20245  Biso   1.000  H
  H17      1.0000 0.43077  0.40644  0.43413  Biso   1.000  H
  C25      1.0000 0.49935  0.42472  0.36584  Biso   1.000  C
  H18      1.0000 0.45185  0.40292  0.43324  Biso   1.000  H
  O5       1.0000 0.53316  0.54734  0.37456  Biso   1.000  O
  O6       1.0000 0.54458  0.54614  0.35833  Biso   1.000  O
  H19      1.0000 0.28474  0.41927  0.01703  Biso   1.000  H
  H20      1.0000 0.30024  0.40288  0.93655  Biso   1.000  H
  H21      1.0000 0.30642  0.39126  0.95076  Biso   1.000  H
  N17      1.0000 0.33742  0.46127  0.91653  Biso   1.000  N
  N18      1.0000 0.34212  0.47046  0.87996  Biso   1.000  N
  H22      1.0000 0.28622  0.44118  0.98353  Biso   1.000  H
  C26      1.0000 0.38582  0.54145  0.78350  Biso   1.000  C
  H23      1.0000 0.32504  0.52347  0.88545  Biso   1.000  H
  C27      1.0000 0.36852  0.53226  0.82023  Biso   1.000  C
  H24      1.0000 0.31092  0.50687  0.93276  Biso   1.000  H
  O7       1.0000 0.44792  0.61586  0.01187  Biso   1.000  O
  O8       1.0000 0.45794  0.62407  0.98281  Biso   1.000  O
  N19      1.0000 0.42892  0.58247  0.82427  Biso   1.000  N
  C28      1.0000 0.44693  0.61176  0.78124  Biso   1.000  C
  C29      1.0000 0.51867  0.42505  0.35373  Biso   1.000  C
  C30      1.0000 0.58568  0.49695  0.36083  Biso   1.000  C
  N20      1.0000 0.55117  0.47664  0.34194  Biso   1.000  N
  C31      1.0000 0.45208  0.37524  0.22546  Biso   1.000  C
  N21      1.0000 0.49615  0.39493  0.27753  Biso   1.000  N
  C32      1.0000 0.47017  0.37455  0.21456  Biso   1.000  C
  H25      1.0000 0.50457  0.41164  0.43469  Biso   1.000  H
  H26      1.0000 0.52686  0.41324  0.42081  Biso   1.000  H
  C33      1.0000 0.36262  0.45956  0.79747  Biso   1.000  C
  C34      1.0000 0.35904  0.45567  0.82887  Biso   1.000  C
  N22      1.0000 0.39245  0.50298  0.73967  Biso   1.000  N
  N23      1.0000 0.37764  0.49778  0.76405  Biso   1.000  N
  H27      1.0000 0.36914  0.55188  0.73038  Biso   1.000  H
  H28      1.0000 0.34792  0.54116  0.77567  Biso   1.000  H
  C35      1.0000 0.46752  0.61706  0.75484  Biso   1.000  C
  H29      1.0000 0.48413  0.64878  0.79270  Biso   1.000  H
  H30      1.0000 0.45253  0.62138  0.68889  Biso   1.000  H
  H31      1.0000 0.46265  0.64318  0.82015  Biso   1.000  H
  H32      1.0000 0.42824  0.61477  0.72086  Biso   1.000  H
  N24      1.0000 0.48534  0.60507  0.73458  Biso   1.000  N
  N25      1.0000 0.51466  0.39493  0.26542  Biso   1.000  N
  N26      1.0000 0.60755  0.49702  0.26033  Biso   1.000  N
  H33      1.0000 0.59357  0.47875  0.41427  Biso   1.000  H
  H34      1.0000 0.60017  0.53085  0.38683  Biso   1.000  H
  H35      1.0000 0.61348  0.48245  0.38941  Biso   1.000  H
  H36      1.0000 0.61646  0.53353  0.36850  Biso   1.000  H
  C36      1.0000 0.60295  0.50004  0.34041  Biso   1.000  C
  O9       1.0000 0.43927  0.34592  0.15192  Biso   1.000  O
  O10      1.0000 0.45668  0.34374  0.14264  Biso   1.000  O
  C37      1.0000 0.53248  0.38294  0.24516  Biso   1.000  C
  O11      1.0000 0.36003  0.42058  0.77414  Biso   1.000  O
  O12      1.0000 0.35432  0.41716  0.79416  Biso   1.000  O
  C38      1.0000 0.41432  0.50305  0.63917  Biso   1.000  C
  C39      1.0000 0.39705  0.49996  0.65959  Biso   1.000  C
  N27      1.0000 0.50384  0.60507  0.72247  Biso   1.000  N
  C40      1.0000 0.48133  0.57495  0.64627  Biso   1.000  C
  C41      1.0000 0.52983  0.62545  0.78544  Biso   1.000  C
  C42      1.0000 0.55307  0.38824  0.21876  Biso   1.000  C
  C43      1.0000 0.61418  0.45854  0.21650  Biso   1.000  C
  C44      1.0000 0.63738  0.54044  0.20253  Biso   1.000  C
  C45      1.0000 0.64096  0.54432  0.17113  Biso   1.000  C
  N28      1.0000 0.62236  0.50222  0.23595  Biso   1.000  N
  N29      1.0000 0.57108  0.41753  0.17573  Biso   1.000  N
  H37      1.0000 0.51587  0.35122  0.20730  Biso   1.000  H
  H38      1.0000 0.54748  0.37865  0.31111  Biso   1.000  H
  H39      1.0000 0.53735  0.35682  0.17985  Biso   1.000  H
  H40      1.0000 0.57176  0.38523  0.27914  Biso   1.000  H
  N30      1.0000 0.46622  0.52416  0.64336  Biso   1.000  N
  H41      1.0000 0.40643  0.52125  0.58573  Biso   1.000  H
  H42      1.0000 0.39983  0.46915  0.61317  Biso   1.000  H
  H43      1.0000 0.38654  0.51758  0.61059  Biso   1.000  H
  H44      1.0000 0.38354  0.46647  0.63150  Biso   1.000  H
  N31      1.0000 0.44883  0.52336  0.65806  Biso   1.000  N
  C46      1.0000 0.50065  0.57528  0.63416  Biso   1.000  C
  C47      1.0000 0.54792  0.62476  0.77454  Biso   1.000  C
  N32      1.0000 0.55814  0.61197  0.72917  Biso   1.000  N
  H45      1.0000 0.49543  0.58836  0.56531  Biso   1.000  H
  H46      1.0000 0.47314  0.58676  0.57919  Biso   1.000  H
  C48      1.0000 0.53222  0.58146  0.63658  Biso   1.000  C
  O13      1.0000 0.56073  0.65408  0.84808  Biso   1.000  O
  O14      1.0000 0.54332  0.65626  0.85736  Biso   1.000  O
  N33      1.0000 0.58747  0.42483  0.14562  Biso   1.000  N
  H47      1.0000 0.63086  0.44812  0.26962  Biso   1.000  H
  C49      1.0000 0.64536  0.47994  0.11293  Biso   1.000  C
  H48      1.0000 0.65208  0.45884  0.22433  Biso   1.000  H
  N34      1.0000 0.65788  0.52954  0.12004  Biso   1.000  N
  N35      1.0000 0.66257  0.53873  0.08347  Biso   1.000  N
  O15      1.0000 0.63997  0.57942  0.22586  Biso   1.000  O
  O16      1.0000 0.64568  0.58284  0.20584  Biso   1.000  O
  C50      1.0000 0.63148  0.46774  0.17977  Biso   1.000  C
  C51      1.0000 0.57306  0.41055  0.06805  Biso   1.000  C
  C52      1.0000 0.58185  0.42083  0.03616  Biso   1.000  C
  C53      1.0000 0.48784  0.49666  0.63973  Biso   1.000  C
  N36      1.0000 0.52212  0.53175  0.64345  Biso   1.000  N
  C54      1.0000 0.47254  0.49847  0.64336  Biso   1.000  C
  C55      1.0000 0.55024  0.57735  0.63247  Biso   1.000  C
  N37      1.0000 0.57344  0.60507  0.72917  Biso   1.000  N
  C56      1.0000 0.61108  0.63163  0.75000  Biso   1.000  C
  H49      1.0000 0.54815  0.59708  0.56676  Biso   1.000  H
  N38      1.0000 0.61247  0.45092  0.02785  Biso   1.000  N
  N39      1.0000 0.62297  0.45884  0.99483  Biso   1.000  N
  H50      1.0000 0.67496  0.47653  0.11455  Biso   1.000  H
  C57      1.0000 0.65688  0.49153  0.07330  Biso   1.000  C
  C58      1.0000 0.68616  0.56362  0.03511  Biso   1.000  C
  C59      1.0000 0.68477  0.57833  0.00977  Biso   1.000  C
  O17      1.0000 0.54206  0.37593  0.01719  Biso   1.000  O
  O18      1.0000 0.55208  0.38414  0.98813  Biso   1.000  O
  O19      1.0000 0.46684  0.45266  0.62544  Biso   1.000  O
  N40      1.0000 0.53774  0.52718  0.63909  Biso   1.000  N
  O20      1.0000 0.45542  0.45386  0.64167  Biso   1.000  O
  C60      1.0000 0.55727  0.51842  0.61681  Biso   1.000  C
  H51      1.0000 0.56923  0.59355  0.56587  Biso   1.000  H
  C61      1.0000 0.62399  0.62095  0.75355  Biso   1.000  C
  N41      1.0000 0.62005  0.59672  0.79900  Biso   1.000  N
  H52      1.0000 0.63728  0.65074  0.79835  Biso   1.000  H
  H53      1.0000 0.64248  0.62974  0.68502  Biso   1.000  H
  H54      1.0000 0.62337  0.66044  0.79755  Biso   1.000  H
  H55      1.0000 0.62906  0.64224  0.68082  Biso   1.000  H
  C62      1.0000 0.62905  0.44972  0.91831  Biso   1.000  C
  C63      1.0000 0.63417  0.46392  0.88206  Biso   1.000  C
  H56      1.0000 0.68908  0.49313  0.06724  Biso   1.000  H
  H57      1.0000 0.71378  0.55882  0.01647  Biso   1.000  H
  H58      1.0000 0.69978  0.59715  0.06345  Biso   1.000  H
  N42      1.0000 0.65897  0.55915  0.93752  Biso   1.000  N
  H59      1.0000 0.71526  0.58073  0.98297  Biso   1.000  H
  H60      1.0000 0.69358  0.60874  0.04924  Biso   1.000  H
  N43      1.0000 0.65527  0.57503  0.91807  Biso   1.000  N
  C64      1.0000 0.57188  0.51014  0.61907  Biso   1.000  C
  N44      1.0000 0.58926  0.52104  0.70197  Biso   1.000  N
  H61      1.0000 0.59535  0.53103  0.56321  Biso   1.000  H
  H62      1.0000 0.57738  0.53964  0.55715  Biso   1.000  H
  H63      1.0000 0.53996  0.48474  0.58912  Biso   1.000  H
  N45      1.0000 0.63137  0.58632  0.80796  Biso   1.000  N
  C65      1.0000 0.64286  0.59043  0.91346  Biso   1.000  C
  C66      1.0000 0.63536  0.60293  0.90257  Biso   1.000  C
  C67      1.0000 0.63146  0.56554  0.73741  Biso   1.000  C
  N46      1.0000 0.62548  0.48234  0.84299  Biso   1.000  N
  H64      1.0000 0.66346  0.45775  0.92194  Biso   1.000  H
  H65      1.0000 0.60978  0.41615  0.89022  Biso   1.000  H
  H66      1.0000 0.66917  0.47515  0.87375  Biso   1.000  H
  H67      1.0000 0.61588  0.43144  0.84816  Biso   1.000  H
  N47      1.0000 0.62367  0.49673  0.82305  Biso   1.000  N
  C68      1.0000 0.66056  0.53313  0.84202  Biso   1.000  C
  C69      1.0000 0.65556  0.54843  0.82063  Biso   1.000  C
  N48      1.0000 0.59816  0.51014  0.71230  Biso   1.000  N
  H68      1.0000 0.55377  0.47675  0.58985  Biso   1.000  H
  C70      1.0000 0.58765  0.48063  0.75024  Biso   1.000  C
  C71      1.0000 0.64154  0.55312  0.75210  Biso   1.000  C
  O21      1.0000 0.63856  0.61713  0.97877  Biso   1.000  O
  O22      1.0000 0.63127  0.62865  0.97062  Biso   1.000  O
  H69      1.0000 0.66618  0.56954  0.69374  Biso   1.000  H
  H70      1.0000 0.65387  0.58324  0.67606  Biso   1.000  H
  C72      1.0000 0.59185  0.46832  0.76493  Biso   1.000  C
  H71      1.0000 0.69407  0.53942  0.82661  Biso   1.000  H
  H72      1.0000 0.68928  0.55733  0.79884  Biso   1.000  H
  O23      1.0000 0.56087  0.42625  0.73886  Biso   1.000  O
  O24      1.0000 0.55777  0.43755  0.72966  Biso   1.000  O
  C73      1.0000 0.54416  0.64718  0.36850  Biso   1.000  C
  N49      1.0000 0.53833  0.67548  0.45334  Biso   1.000  N
  N50      1.0000 0.56684  0.67436  0.27083  Biso   1.000  N
  H73      1.0000 0.51172  0.61957  0.34977  Biso   1.000  H
  H74      1.0000 0.56402  0.63356  0.39675  Biso   1.000  H
  H75      1.0000 0.53215  0.61808  0.31627  Biso   1.000  H
  N51      1.0000 0.54282  0.67076  0.41677  Biso   1.000  N
  C74      1.0000 0.50125  0.68798  0.44624  Biso   1.000  C
  C75      1.0000 0.56975  0.69597  0.53584  Biso   1.000  C
  C76      1.0000 0.57003  0.69238  0.50444  Biso   1.000  C
  C77      1.0000 0.50134  0.67646  0.40668  Biso   1.000  C
  C78      1.0000 0.53923  0.67276  0.17533  Biso   1.000  C
  C79      1.0000 0.61421  0.69045  0.24677  Biso   1.000  C
  C80      1.0000 0.56023  0.64856  0.34307  Biso   1.000  C
  C81      1.0000 0.55955  0.67777  0.15394  Biso   1.000  C
  N52      1.0000 0.50514  0.72086  0.36116  Biso   1.000  N
  C82      1.0000 0.51101  0.71915  0.54989  Biso   1.000  C
  H76      1.0000 0.46823  0.65837  0.44785  Biso   1.000  H
  N53      1.0000 0.50253  0.71036  0.32814  Biso   1.000  N
  O25      1.0000 0.60613  0.69336  0.55917  Biso   1.000  O
  N54      1.0000 0.55614  0.72577  0.59364  Biso   1.000  N
  N55      1.0000 0.54654  0.71098  0.56926  Biso   1.000  N
  O26      1.0000 0.60382  0.68765  0.53915  Biso   1.000  O
  C83      1.0000 0.50293  0.70186  0.51308  Biso   1.000  C
  H77      1.0000 0.47074  0.64427  0.40055  Biso   1.000  H
  N56      1.0000 0.52352  0.70785  0.17638  Biso   1.000  N
  H78      1.0000 0.51203  0.63926  0.15999  Biso   1.000  H
  C84      1.0000 0.57824  0.69176  0.08549  Biso   1.000  C
  H79      1.0000 0.53473  0.64406  0.13214  Biso   1.000  H
  N57      1.0000 0.58644  0.67806  0.25137  Biso   1.000  N
  N58      1.0000 0.53972  0.70967  0.15636  Biso   1.000  N
  O27      1.0000 0.64523  0.69477  0.31208  Biso   1.000  O
  N59      1.0000 0.62164  0.70197  0.14127  Biso   1.000  N
  N60      1.0000 0.64334  0.71327  0.13239  Biso   1.000  N
  O28      1.0000 0.66405  0.70208  0.30400  Biso   1.000  O
  H80      1.0000 0.58182  0.63977  0.38255  Biso   1.000  H
  C85      1.0000 0.60073  0.70186  0.07079  Biso   1.000  C
  C86      1.0000 0.50414  0.76028  0.40136  Biso   1.000  C
  C87      1.0000 0.48733  0.70426  0.25170  Biso   1.000  C
  C88      1.0000 0.50561  0.75145  0.36947  Biso   1.000  C
  N61      1.0000 0.50404  0.74586  0.47893  Biso   1.000  N
  N62      1.0000 0.51313  0.76228  0.50904  Biso   1.000  N
  H81      1.0000 0.48392  0.70248  0.60300  Biso   1.000  H
  H82      1.0000 0.47344  0.68126  0.55764  Biso   1.000  H
  C89      1.0000 0.49643  0.69917  0.21537  Biso   1.000  C
  C90      1.0000 0.57795  0.74767  0.69414  Biso   1.000  C
  C91      1.0000 0.56373  0.73038  0.67380  Biso   1.000  C
  C92      1.0000 0.54312  0.74146  0.09824  Biso   1.000  C
  C93      1.0000 0.55964  0.74568  0.08355  Biso   1.000  C
  N63      1.0000 0.57865  0.73518  0.04569  Biso   1.000  N
  H83      1.0000 0.57004  0.66716  0.02704  Biso   1.000  H
  H84      1.0000 0.59605  0.67948  0.00936  Biso   1.000  H
  N64      1.0000 0.59842  0.74408  0.03528  Biso   1.000  N
  C94      1.0000 0.63424  0.69797  0.23587  Biso   1.000  C
  C95      1.0000 0.66364  0.70938  0.08686  Biso   1.000  C
  C96      1.0000 0.68724  0.72228  0.08339  Biso   1.000  C
  O29      1.0000 0.50054  0.79127  0.35058  Biso   1.000  O
  O30      1.0000 0.49875  0.78128  0.32144  Biso   1.000  O
  H85      1.0000 0.46094  0.66985  0.25525  Biso   1.000  H
  H86      1.0000 0.47303  0.72355  0.22360  Biso   1.000  H
  H87      1.0000 0.47264  0.66418  0.20706  Biso   1.000  H
  H88      1.0000 0.48224  0.71748  0.18147  Biso   1.000  H
  C97      1.0000 0.50183  0.78026  0.55207  Biso   1.000  C
  C98      1.0000 0.51713  0.80086  0.57846  Biso   1.000  C
  N65      1.0000 0.60873  0.79956  0.68994  Biso   1.000  N
  H89      1.0000 0.55184  0.73975  0.74758  Biso   1.000  H
  H90      1.0000 0.59735  0.73318  0.72013  Biso   1.000  H
  H91      1.0000 0.53564  0.71988  0.72280  Biso   1.000  H
  H92      1.0000 0.58372  0.71686  0.70189  Biso   1.000  H
  N66      1.0000 0.59213  0.78215  0.67525  Biso   1.000  N
  O31      1.0000 0.53203  0.77245  0.07217  Biso   1.000  O
  O32      1.0000 0.54643  0.77558  0.06296  Biso   1.000  O
  C99      1.0000 0.60496  0.76148  0.95237  Biso   1.000  C
  C100     1.0000 0.62781  0.77605  0.95019  Biso   1.000  C
  N67      1.0000 0.69832  0.75992  0.06248  Biso   1.000  N
  H93      1.0000 0.68015  0.69608  0.13166  Biso   1.000  H
  H94      1.0000 0.65393  0.69085  0.01840  Biso   1.000  H
  H95      1.0000 0.67983  0.70426  0.01413  Biso   1.000  H
  H96      1.0000 0.70373  0.70996  0.13085  Biso   1.000  H
  N68      1.0000 0.72050  0.77521  0.06248  Biso   1.000  N
  H97      1.0000 0.50203  0.81747  0.54068  Biso   1.000  H
  H98      1.0000 0.49783  0.78586  0.64449  Biso   1.000  H
  H99      1.0000 0.48614  0.79596  0.51316  Biso   1.000  H
  H100     1.0000 0.48014  0.76155  0.61245  Biso   1.000  H
  N69      1.0000 0.54693  0.81867  0.59881  Biso   1.000  N
  N70      1.0000 0.56542  0.83716  0.61083  Biso   1.000  N
  C101     1.0000 0.59202  0.83396  0.69914  Biso   1.000  C
  C102     1.0000 0.65783  0.82117  0.69357  Biso   1.000  C
  C103     1.0000 0.57303  0.81467  0.68704  Biso   1.000  C
  N71      1.0000 0.65705  0.85547  0.68986  Biso   1.000  N
  C104     1.0000 0.64075  0.80588  0.68994  Biso   1.000  C
  N72      1.0000 0.65609  0.79560  0.97239  Biso   1.000  N
  H101     1.0000 0.60233  0.73797  0.89659  Biso   1.000  H
  H102     1.0000 0.58965  0.77957  0.92315  Biso   1.000  H
  H103     1.0000 0.62894  0.75596  0.89046  Biso   1.000  H
  H104     1.0000 0.61143  0.79338  0.92251  Biso   1.000  H
  N73      1.0000 0.67628  0.81118  0.97683  Biso   1.000  N
  C105     1.0000 0.74349  0.78539  0.10793  Biso   1.000  C
  C106     1.0000 0.69380  0.78310  0.96577  Biso   1.000  C
  C107     1.0000 0.71588  0.80108  0.96989  Biso   1.000  C
  N74      1.0000 0.76790  0.82949  0.05578  Biso   1.000  N
  C108     1.0000 0.76231  0.80352  0.11882  Biso   1.000  C
  C109     1.0000 0.57104  0.86317  0.54787  Biso   1.000  C
  C110     1.0000 0.58984  0.88127  0.55877  Biso   1.000  C
  N75      1.0000 0.61285  0.89148  0.60413  Biso   1.000  N
  C111     1.0000 0.63953  0.88356  0.70084  Biso   1.000  C
  H105     1.0000 0.57372  0.82877  0.76808  Biso   1.000  H
  H106     1.0000 0.55303  0.80646  0.75420  Biso   1.000  H
  O33      1.0000 0.68084  0.80017  0.70786  Biso   1.000  O
  N76      1.0000 0.67724  0.87106  0.69430  Biso   1.000  N
  O34      1.0000 0.66825  0.78877  0.69164  Biso   1.000  O
  C112     1.0000 0.61745  0.86557  0.69680  Biso   1.000  C
  C113     1.0000 0.70551  0.89060  0.71650  Biso   1.000  C
  C114     1.0000 0.67551  0.84552  0.97312  Biso   1.000  C
  N77      1.0000 0.72459  0.86710  0.97667  Biso   1.000  N
  C115     1.0000 0.69260  0.86081  0.97667  Biso   1.000  C
  O35      1.0000 0.76000  0.77260  0.18139  Biso   1.000  O
  O36      1.0000 0.77959  0.79000  0.19067  Biso   1.000  O
  H107     1.0000 0.69100  0.76410  0.89918  Biso   1.000  H
  C116     1.0000 0.74131  0.83269  0.96747  Biso   1.000  C
  H108     1.0000 0.71562  0.78521  0.90006  Biso   1.000  H
  C117     1.0000 0.76030  0.85198  0.97958  Biso   1.000  C
  C118     1.0000 0.81619  0.86579  0.08823  Biso   1.000  C
  N78      1.0000 0.78640  0.84799  0.06789  Biso   1.000  N
  O37      1.0000 0.57333  0.89406  0.48523  Biso   1.000  O
  O38      1.0000 0.55374  0.87665  0.47594  Biso   1.000  O
  N79      1.0000 0.63503  0.90677  0.60413  Biso   1.000  N
  C119     1.0000 0.64611  0.94441  0.58331  Biso   1.000  C
  H109     1.0000 0.64233  0.90256  0.76744  Biso   1.000  H
  H110     1.0000 0.61773  0.88148  0.76655  Biso   1.000  H
  C120     1.0000 0.72839  0.90521  0.71432  Biso   1.000  C
  H111     1.0000 0.73102  0.92872  0.77010  Biso   1.000  H
  H112     1.0000 0.70439  0.91070  0.77624  Biso   1.000  H
  H113     1.0000 0.72191  0.87331  0.74419  Biso   1.000  H
  N80      1.0000 0.73492  0.92261  0.63142  Biso   1.000  N
  O39      1.0000 0.65250  0.86652  0.95883  Biso   1.000  O
  O40      1.0000 0.66508  0.87789  0.97498  Biso   1.000  O
  C121     1.0000 0.75540  0.91902  0.97247  Biso   1.000  C
  N81      1.0000 0.74119  0.88450  0.99136  Biso   1.000  N
  H114     1.0000 0.75961  0.83789  0.89861  Biso   1.000  H
  H115     1.0000 0.78030  0.86019  0.91250  Biso   1.000  H
  N82      1.0000 0.82021  0.90441  0.15757  Biso   1.000  N
  H116     1.0000 0.83130  0.84919  0.12601  Biso   1.000  H
  H117     1.0000 0.83550  0.88079  0.02220  Biso   1.000  H
  H118     1.0000 0.84718  0.87069  0.15354  Biso   1.000  H
  H119     1.0000 0.85319  0.90510  0.05417  Biso   1.000  H
  C122     1.0000 0.83150  0.88639  0.11463  Biso   1.000  C
  C123     1.0000 0.66971  0.95731  0.57984  Biso   1.000  C
  H120     1.0000 0.65320  0.97061  0.53503  Biso   1.000  H
  H121     1.0000 0.67939  0.97580  0.64829  Biso   1.000  H
  H122     1.0000 0.62959  0.95669  0.53576  Biso   1.000  H
  H123     1.0000 0.65350  0.96240  0.65249  Biso   1.000  H
  N83      1.0000 0.68999  0.95339  0.53431  Biso   1.000  N
  N84      1.0000 0.75469  0.93151  0.62100  Biso   1.000  N
  H124     1.0000 0.74370  0.88712  0.74346  Biso   1.000  H
  C124     1.0000 0.75508  0.97489  0.58121  Biso   1.000  C
  C125     1.0000 0.77370  0.92101  0.58306  Biso   1.000  C
  C126     1.0000 0.73260  0.96479  0.59590  Biso   1.000  C
  N85      1.0000 0.77719  0.94089  0.07297  Biso   1.000  N
  H125     1.0000 0.78149  0.92690  0.91912  Biso   1.000  H
  H126     1.0000 0.73600  0.93351  0.94648  Biso   1.000  H
  H127     1.0000 0.79771  0.94681  0.94390  Biso   1.000  H
  H128     1.0000 0.74961  0.94979  0.96480  Biso   1.000  H
  C127     1.0000 0.76961  0.93631  0.99290  Biso   1.000  C
  C128     1.0000 0.82920  0.90641  0.26534  Biso   1.000  C
  C129     1.0000 0.82231  0.94750  0.11681  Biso   1.000  C
  C130     1.0000 0.82772  0.91520  0.29722  Biso   1.000  C
  N86      1.0000 0.82929  0.92080  0.18768  Biso   1.000  N
  N87      1.0000 0.71169  0.96468  0.52543  Biso   1.000  N
  C131     1.0000 0.71911  0.97620  0.41992  Biso   1.000  C
  C132     1.0000 0.69910  0.96872  0.43082  Biso   1.000  C
  C133     1.0000 0.79020  0.92519  0.56837  Biso   1.000  C
  N88      1.0000 0.79361  0.95698  0.51033  Biso   1.000  N
  C134     1.0000 0.79410  0.99390  0.49128  Biso   1.000  C
  H129     1.0000 0.76329  0.99949  0.63957  Biso   1.000  H
  C135     1.0000 0.77380  0.98892  0.51267  Biso   1.000  C
  H130     1.0000 0.73730  0.98721  0.65733  Biso   1.000  H
  O41      1.0000 0.80129  0.89420  0.59453  Biso   1.000  O
  N89      1.0000 0.80981  0.95880  0.49031  Biso   1.000  N
  O42      1.0000 0.78691  0.89111  0.60373  Biso   1.000  O
  C136     1.0000 0.76360  0.97072  0.13077  Biso   1.000  C
  C137     1.0000 0.76332  0.97431  0.16217  Biso   1.000  C
  N90      1.0000 0.78680  0.95571  0.09743  Biso   1.000  N
  O43      1.0000 0.83281  0.87542  0.31611  Biso   1.000  O
  N91      1.0000 0.82819  0.94579  0.30554  Biso   1.000  N
  O44      1.0000 0.83459  0.88541  0.34517  Biso   1.000  O
  H131     1.0000 0.84942  0.96421  0.06369  Biso   1.000  H
  C138     1.0000 0.83210  0.97871  0.22037  Biso   1.000  C
  H132     1.0000 0.85989  0.98539  0.10898  Biso   1.000  H
  N92      1.0000 0.83080  0.95629  0.33847  Biso   1.000  N
  C139     1.0000 0.83039  0.96479  0.15362  Biso   1.000  C
  N93      1.0000 0.74689  0.98859  0.41532  Biso   1.000  N
  O45      1.0000 0.68812  0.97191  0.35462  Biso   1.000  O
  N94      1.0000 0.76649  0.99230  0.39579  Biso   1.000  N
  O46      1.0000 0.66930  0.96461  0.36269  Biso   1.000  O
  C140     1.0000 0.83690  0.96748  0.45132  Biso   1.000  C
  H133     1.0000 0.82129  0.02739  0.50670  Biso   1.000  H
  H134     1.0000 0.79860  0.02260  0.53447  Biso   1.000  H
  C141     1.0000 0.84600  0.96240  0.41500  Biso   1.000  C
  O47      1.0000 0.72719  0.97330  0.10752  Biso   1.000  O
  N95      1.0000 0.79502  0.99121  0.21327  Biso   1.000  N
  N96      1.0000 0.79050  0.99589  0.24992  Biso   1.000  N
  O48      1.0000 0.72951  0.97900  0.12746  Biso   1.000  O
  C142     1.0000 0.83198  0.99019  0.26001  Biso   1.000  C
  H135     1.0000 0.86510  0.00828  0.21876  Biso   1.000  H
  C143     1.0000 0.77310  0.01809  0.32362  Biso   1.000  C
  C144     1.0000 0.78919  0.01951  0.29819  Biso   1.000  C
  H136     1.0000 0.87239  0.99680  0.41137  Biso   1.000  H
  H137     1.0000 0.85111  0.94921  0.48523  Biso   1.000  H
  H138     1.0000 0.86070  0.00251  0.45964  Biso   1.000  H
  H139     1.0000 0.86029  0.94310  0.44309  Biso   1.000  H
  H140     1.0000 0.86260  0.02242  0.26606  Biso   1.000  H
  H141     1.0000 0.76930  0.03310  0.26994  Biso   1.000  H
  H142     1.0000 0.80119  0.04861  0.35042  Biso   1.000  H
  H143     1.0000 0.75150  0.02688  0.28407  Biso   1.000  H
  H144     1.0000 0.82160  0.04709  0.31692  Biso   1.000  H
  O49      1.0000 0.32294  0.44626  0.47594  Biso   1.000  O
  C145     1.0000 0.29141  0.41015  0.55877  Biso   1.000  C
  C146     1.0000 0.29214  0.42897  0.54787  Biso   1.000  C
  N97      1.0000 0.27174  0.36495  0.60413  Biso   1.000  N
  N98      1.0000 0.27175  0.43457  0.61083  Biso   1.000  N
  O50      1.0000 0.32073  0.42668  0.48523  Biso   1.000  O
  N99      1.0000 0.27862  0.38715  0.60413  Biso   1.000  N
  N100     1.0000 0.27174  0.45306  0.59881  Biso   1.000  N
  C147     1.0000 0.28761  0.33029  0.57984  Biso   1.000  C
  C148     1.0000 0.29831  0.35391  0.58331  Biso   1.000  C
  C149     1.0000 0.24403  0.36045  0.70084  Biso   1.000  C
  C150     1.0000 0.24814  0.38257  0.69680  Biso   1.000  C
  C151     1.0000 0.24193  0.40797  0.69914  Biso   1.000  C
  C152     1.0000 0.24165  0.42697  0.68704  Biso   1.000  C
  C153     1.0000 0.28371  0.48285  0.57846  Biso   1.000  C
  C154     1.0000 0.27845  0.49818  0.55207  Biso   1.000  C
  N101     1.0000 0.25298  0.28829  0.52543  Biso   1.000  N
  H145     1.0000 0.31741  0.34679  0.53503  Biso   1.000  H
  H146     1.0000 0.29641  0.32059  0.64829  Biso   1.000  H
  H147     1.0000 0.30889  0.34650  0.65249  Biso   1.000  H
  N102     1.0000 0.26339  0.30998  0.53431  Biso   1.000  N
  H148     1.0000 0.32711  0.37040  0.53576  Biso   1.000  H
  N103     1.0000 0.19383  0.32277  0.69430  Biso   1.000  N
  N104     1.0000 0.19845  0.34297  0.68986  Biso   1.000  N
  H149     1.0000 0.26022  0.35765  0.76744  Biso   1.000  H
  H150     1.0000 0.26373  0.38228  0.76655  Biso   1.000  H
  N105     1.0000 0.19082  0.39126  0.68994  Biso   1.000  N
  H151     1.0000 0.25505  0.42628  0.76808  Biso   1.000  H
  H152     1.0000 0.25343  0.44696  0.75420  Biso   1.000  H
  N106     1.0000 0.19002  0.40786  0.67525  Biso   1.000  N
  N107     1.0000 0.24914  0.48688  0.50904  Biso   1.000  N
  H153     1.0000 0.31544  0.49797  0.54068  Biso   1.000  H
  H154     1.0000 0.28803  0.50218  0.64449  Biso   1.000  H
  H155     1.0000 0.30983  0.51388  0.51316  Biso   1.000  H
  H156     1.0000 0.28143  0.51987  0.61245  Biso   1.000  H
  N108     1.0000 0.24185  0.49597  0.47893  Biso   1.000  N
  N109     1.0000 0.24170  0.25309  0.41532  Biso   1.000  N
  C155     1.0000 0.25708  0.28088  0.41992  Biso   1.000  C
  C156     1.0000 0.21511  0.22620  0.51267  Biso   1.000  C
  C157     1.0000 0.26961  0.30090  0.43082  Biso   1.000  C
  C158     1.0000 0.21981  0.24491  0.58121  Biso   1.000  C
  C159     1.0000 0.23222  0.26740  0.59590  Biso   1.000  C
  C160     1.0000 0.17681  0.27162  0.71432  Biso   1.000  C
  C161     1.0000 0.16335  0.34217  0.69357  Biso   1.000  C
  C162     1.0000 0.18510  0.29451  0.71650  Biso   1.000  C
  C163     1.0000 0.16512  0.35925  0.68994  Biso   1.000  C
  C164     1.0000 0.16972  0.42207  0.69414  Biso   1.000  C
  C165     1.0000 0.16663  0.43627  0.67380  Biso   1.000  C
  C166     1.0000 0.25614  0.49586  0.40136  Biso   1.000  C
  C167     1.0000 0.20814  0.48895  0.54989  Biso   1.000  C
  C168     1.0000 0.24583  0.49437  0.36947  Biso   1.000  C
  N110     1.0000 0.21575  0.49488  0.36116  Biso   1.000  N
  C169     1.0000 0.19894  0.49706  0.51308  Biso   1.000  C
  C170     1.0000 0.24500  0.22689  0.32362  Biso   1.000  C
  C171     1.0000 0.19979  0.20589  0.49128  Biso   1.000  C
  N111     1.0000 0.22581  0.23351  0.39579  Biso   1.000  N
  O51      1.0000 0.28379  0.31191  0.35462  Biso   1.000  O
  O52      1.0000 0.29529  0.33069  0.36269  Biso   1.000  O
  H157     1.0000 0.22400  0.20139  0.53447  Biso   1.000  H
  N112     1.0000 0.16339  0.20640  0.51033  Biso   1.000  N
  N113     1.0000 0.17681  0.24531  0.62100  Biso   1.000  N
  H158     1.0000 0.23622  0.23670  0.63957  Biso   1.000  H
  H159     1.0000 0.24992  0.26272  0.65733  Biso   1.000  H
  N114     1.0000 0.18771  0.26511  0.63142  Biso   1.000  N
  H160     1.0000 0.19771  0.26900  0.77010  Biso   1.000  H
  H161     1.0000 0.14340  0.25629  0.74346  Biso   1.000  H
  H162     1.0000 0.20629  0.29560  0.77624  Biso   1.000  H
  H163     1.0000 0.15141  0.27808  0.74419  Biso   1.000  H
  O53      1.0000 0.11934  0.31918  0.70786  Biso   1.000  O
  O54      1.0000 0.12055  0.33178  0.69164  Biso   1.000  O
  N115     1.0000 0.16964  0.44387  0.59364  Biso   1.000  N
  H164     1.0000 0.18792  0.44815  0.74758  Biso   1.000  H
  H165     1.0000 0.13582  0.40267  0.72013  Biso   1.000  H
  H166     1.0000 0.18423  0.46436  0.72280  Biso   1.000  H
  H167     1.0000 0.13312  0.41625  0.70189  Biso   1.000  H
  N116     1.0000 0.16443  0.45346  0.56926  Biso   1.000  N
  O55      1.0000 0.29073  0.49945  0.35058  Biso   1.000  O
  O56      1.0000 0.28254  0.50127  0.32144  Biso   1.000  O
  H168     1.0000 0.21854  0.51606  0.60300  Biso   1.000  H
  C172     1.0000 0.18674  0.49876  0.44624  Biso   1.000  C
  H169     1.0000 0.20784  0.52656  0.55764  Biso   1.000  H
  N117     1.0000 0.20782  0.49746  0.32814  Biso   1.000  N
  C173     1.0000 0.21695  0.51268  0.25170  Biso   1.000  C
  C174     1.0000 0.17513  0.49866  0.40668  Biso   1.000  C
  H170     1.0000 0.26380  0.23071  0.26994  Biso   1.000  H
  H171     1.0000 0.24741  0.19881  0.35042  Biso   1.000  H
  H172     1.0000 0.27541  0.24851  0.28407  Biso   1.000  H
  N118     1.0000 0.20540  0.20949  0.24992  Biso   1.000  N
  N119     1.0000 0.14900  0.19020  0.49031  Biso   1.000  N
  H173     1.0000 0.20612  0.17872  0.50670  Biso   1.000  H
  C175     1.0000 0.23031  0.21080  0.29819  Biso   1.000  C
  C176     1.0000 0.13502  0.20982  0.56837  Biso   1.000  C
  C177     1.0000 0.14729  0.22631  0.58306  Biso   1.000  C
  C178     1.0000 0.13060  0.16309  0.45132  Biso   1.000  C
  C179     1.0000 0.12625  0.43028  0.53584  Biso   1.000  C
  C180     1.0000 0.12231  0.42995  0.50444  Biso   1.000  C
  N120     1.0000 0.13713  0.46167  0.45334  Biso   1.000  N
  N121     1.0000 0.12793  0.45716  0.41677  Biso   1.000  N
  H174     1.0000 0.19014  0.53175  0.44785  Biso   1.000  H
  C181     1.0000 0.20273  0.50356  0.21537  Biso   1.000  C
  N122     1.0000 0.18433  0.47646  0.17638  Biso   1.000  N
  H175     1.0000 0.20893  0.53906  0.25525  Biso   1.000  H
  H176     1.0000 0.25052  0.52696  0.22360  Biso   1.000  H
  H177     1.0000 0.19153  0.52736  0.20706  Biso   1.000  H
  H178     1.0000 0.23522  0.51777  0.18147  Biso   1.000  H
  H179     1.0000 0.17355  0.52928  0.40055  Biso   1.000  H
  C182     1.0000 0.14659  0.16789  0.22037  Biso   1.000  C
  C183     1.0000 0.20709  0.23641  0.13077  Biso   1.000  C
  C184     1.0000 0.21101  0.23670  0.16217  Biso   1.000  C
  C185     1.0000 0.15819  0.16800  0.26001  Biso   1.000  C
  C186     1.0000 0.11640  0.15401  0.41500  Biso   1.000  C
  N123     1.0000 0.19619  0.20498  0.21327  Biso   1.000  N
  H180     1.0000 0.22550  0.17839  0.31692  Biso   1.000  H
  O57      1.0000 0.09290  0.19870  0.59453  Biso   1.000  O
  O58      1.0000 0.10418  0.21309  0.60373  Biso   1.000  O
  N124     1.0000 0.12550  0.16920  0.33847  Biso   1.000  N
  H181     1.0000 0.12440  0.12760  0.41137  Biso   1.000  H
  H182     1.0000 0.14180  0.13930  0.45964  Biso   1.000  H
  H183     1.0000 0.09811  0.14889  0.48523  Biso   1.000  H
  O59      1.0000 0.08725  0.39387  0.55917  Biso   1.000  O
  O60      1.0000 0.08383  0.39616  0.53915  Biso   1.000  O
  C187     1.0000 0.10301  0.45586  0.36850  Biso   1.000  C
  C188     1.0000 0.08833  0.43976  0.34307  Biso   1.000  C
  N125     1.0000 0.16993  0.46025  0.15636  Biso   1.000  N
  C189     1.0000 0.18605  0.44038  0.08355  Biso   1.000  C
  C190     1.0000 0.19833  0.45687  0.09824  Biso   1.000  C
  C191     1.0000 0.13353  0.46076  0.17533  Biso   1.000  C
  N126     1.0000 0.11759  0.17181  0.30554  Biso   1.000  N
  C192     1.0000 0.12519  0.17770  0.11681  Biso   1.000  C
  H184     1.0000 0.14318  0.13490  0.21876  Biso   1.000  H
  O61      1.0000 0.24609  0.27282  0.10752  Biso   1.000  O
  N127     1.0000 0.16369  0.22279  0.07297  Biso   1.000  N
  N128     1.0000 0.16890  0.21320  0.09743  Biso   1.000  N
  O62      1.0000 0.24949  0.27049  0.12746  Biso   1.000  O
  C193     1.0000 0.13439  0.16960  0.15362  Biso   1.000  C
  H185     1.0000 0.15979  0.13741  0.26606  Biso   1.000  H
  H186     1.0000 0.08281  0.13970  0.44309  Biso   1.000  H
  C194     1.0000 0.08750  0.17229  0.29722  Biso   1.000  C
  N129     1.0000 0.10752  0.43315  0.27083  Biso   1.000  N
  H187     1.0000 0.10783  0.48826  0.34977  Biso   1.000  H
  H188     1.0000 0.06954  0.43598  0.39675  Biso   1.000  H
  H189     1.0000 0.08593  0.46788  0.31627  Biso   1.000  H
  N130     1.0000 0.09162  0.41357  0.25137  Biso   1.000  N
  H190     1.0000 0.05794  0.41818  0.38255  Biso   1.000  H
  N131     1.0000 0.15654  0.42138  0.04569  Biso   1.000  N
  C195     1.0000 0.11822  0.44045  0.15394  Biso   1.000  C
  N132     1.0000 0.14563  0.40158  0.03528  Biso   1.000  N
  O63      1.0000 0.24043  0.46795  0.07217  Biso   1.000  O
  O64      1.0000 0.22914  0.45357  0.06296  Biso   1.000  O
  C196     1.0000 0.11354  0.42178  0.08549  Biso   1.000  C
  H191     1.0000 0.12722  0.48797  0.15999  Biso   1.000  H
  H192     1.0000 0.10932  0.46527  0.13214  Biso   1.000  H
  C197     1.0000 0.07719  0.17080  0.26534  Biso   1.000  C
  N133     1.0000 0.09148  0.17069  0.18768  Biso   1.000  N
  N134     1.0000 0.08421  0.17981  0.15757  Biso   1.000  N
  H193     1.0000 0.11479  0.15060  0.06369  Biso   1.000  H
  H194     1.0000 0.12549  0.14010  0.10898  Biso   1.000  H
  C198     1.0000 0.16361  0.24459  0.97247  Biso   1.000  C
  C199     1.0000 0.16672  0.23042  0.99290  Biso   1.000  C
  O65      1.0000 0.04260  0.16720  0.31611  Biso   1.000  O
  O66      1.0000 0.05079  0.16538  0.34517  Biso   1.000  O
  C200     1.0000 0.07625  0.38577  0.24677  Biso   1.000  C
  N135     1.0000 0.08035  0.37836  0.14127  Biso   1.000  N
  C201     1.0000 0.06372  0.36575  0.23587  Biso   1.000  C
  C202     1.0000 0.15654  0.39507  0.95237  Biso   1.000  C
  C203     1.0000 0.10111  0.39925  0.07079  Biso   1.000  C
  C204     1.0000 0.14824  0.37218  0.95019  Biso   1.000  C
  H195     1.0000 0.09711  0.42995  0.02704  Biso   1.000  H
  H196     1.0000 0.08343  0.40397  0.00936  Biso   1.000  H
  C205     1.0000 0.05490  0.16851  0.11463  Biso   1.000  C
  C206     1.0000 0.04961  0.18380  0.08823  Biso   1.000  C
  N136     1.0000 0.14251  0.27540  0.97667  Biso   1.000  N
  H197     1.0000 0.14540  0.21850  0.91912  Biso   1.000  H
  H198     1.0000 0.19750  0.26399  0.94648  Biso   1.000  H
  H199     1.0000 0.14910  0.20230  0.94390  Biso   1.000  H
  H200     1.0000 0.20021  0.25040  0.96480  Biso   1.000  H
  N137     1.0000 0.14330  0.25879  0.99136  Biso   1.000  N
  N138     1.0000 0.06994  0.35667  0.13239  Biso   1.000  N
  O67      1.0000 0.04955  0.35478  0.31208  Biso   1.000  O
  O68      1.0000 0.03803  0.33596  0.30400  Biso   1.000  O
  C207     1.0000 0.04572  0.33636  0.08686  Biso   1.000  C
  N139     1.0000 0.13952  0.34392  0.97239  Biso   1.000  N
  H201     1.0000 0.13561  0.39765  0.89659  Biso   1.000  H
  H202     1.0000 0.12704  0.37106  0.89046  Biso   1.000  H
  H203     1.0000 0.18192  0.38857  0.92251  Biso   1.000  H
  H204     1.0000 0.18992  0.41037  0.92315  Biso   1.000  H
  N140     1.0000 0.13489  0.32372  0.97683  Biso   1.000  N
  H205     1.0000 0.01789  0.16869  0.12601  Biso   1.000  H
  H206     1.0000 0.04532  0.16451  0.02220  Biso   1.000  H
  H207     1.0000 0.02351  0.15281  0.15354  Biso   1.000  H
  H208     1.0000 0.05192  0.14682  0.05417  Biso   1.000  H
  N141     1.0000 0.06158  0.21360  0.06789  Biso   1.000  N
  N142     1.0000 0.06158  0.23209  0.05578  Biso   1.000  N
  C208     1.0000 0.09140  0.25868  0.96747  Biso   1.000  C
  C209     1.0000 0.17000  0.32452  0.97312  Biso   1.000  C
  C210     1.0000 0.09170  0.23972  0.97958  Biso   1.000  C
  C211     1.0000 0.16821  0.30740  0.97667  Biso   1.000  C
  C212     1.0000 0.03503  0.31278  0.08339  Biso   1.000  C
  N143     1.0000 0.06159  0.30170  0.06248  Biso   1.000  N
  H209     1.0000 0.01592  0.31987  0.13166  Biso   1.000  H
  H210     1.0000 0.03692  0.34606  0.01840  Biso   1.000  H
  H211     1.0000 0.02444  0.32016  0.01413  Biso   1.000  H
  C213     1.0000 0.08929  0.30621  0.96577  Biso   1.000  C
  C214     1.0000 0.08520  0.28412  0.96989  Biso   1.000  C
  C215     1.0000 0.04119  0.23768  0.11882  Biso   1.000  C
  C216     1.0000 0.04191  0.25650  0.10793  Biso   1.000  C
  N144     1.0000 0.05470  0.27950  0.06248  Biso   1.000  N
  H212     1.0000 0.07829  0.24041  0.89861  Biso   1.000  H
  H213     1.0000 0.07990  0.21970  0.91250  Biso   1.000  H
  O69      1.0000 0.21400  0.34751  0.95883  Biso   1.000  O
  O70      1.0000 0.21279  0.33491  0.97498  Biso   1.000  O
  H214     1.0000 0.00622  0.29625  0.13085  Biso   1.000  H
  H215     1.0000 0.07310  0.30900  0.89918  Biso   1.000  H
  H216     1.0000 0.06961  0.28441  0.90006  Biso   1.000  H
  O71      1.0000 0.01262  0.24001  0.18139  Biso   1.000  O
  O72      1.0000 0.01039  0.22039  0.19067  Biso   1.000  O
  O73      1.0000 0.39618  0.31235  0.46085  Biso   1.000  O
  C217     1.0000 0.43025  0.30403  0.46416  Biso   1.000  C
  C218     1.0000 0.42997  0.30762  0.49556  Biso   1.000  C
  N145     1.0000 0.44386  0.27423  0.40636  Biso   1.000  N
  N146     1.0000 0.45346  0.28902  0.43074  Biso   1.000  N
  O74      1.0000 0.39387  0.30664  0.44083  Biso   1.000  O
  N147     1.0000 0.46167  0.32452  0.54666  Biso   1.000  N
  N148     1.0000 0.45718  0.32924  0.58323  Biso   1.000  N
  C219     1.0000 0.42205  0.25233  0.30586  Biso   1.000  C
  C220     1.0000 0.43627  0.26962  0.32620  Biso   1.000  C
  C221     1.0000 0.48898  0.28085  0.45011  Biso   1.000  C
  C222     1.0000 0.49707  0.29814  0.48692  Biso   1.000  C
  C223     1.0000 0.49875  0.31202  0.55376  Biso   1.000  C
  C224     1.0000 0.49866  0.32354  0.59332  Biso   1.000  C
  C225     1.0000 0.45584  0.35282  0.63150  Biso   1.000  C
  C226     1.0000 0.43977  0.35144  0.65693  Biso   1.000  C
  N149     1.0000 0.39127  0.20044  0.31006  Biso   1.000  N
  N150     1.0000 0.40787  0.21785  0.32475  Biso   1.000  N
  H217     1.0000 0.44816  0.26025  0.25242  Biso   1.000  H
  H218     1.0000 0.40265  0.26682  0.27987  Biso   1.000  H
  H219     1.0000 0.46436  0.28012  0.27720  Biso   1.000  H
  H220     1.0000 0.41628  0.28313  0.29811  Biso   1.000  H
  N151     1.0000 0.48687  0.23772  0.49096  Biso   1.000  N
  H221     1.0000 0.51608  0.29752  0.39700  Biso   1.000  H
  H222     1.0000 0.52656  0.31874  0.44236  Biso   1.000  H
  N152     1.0000 0.49596  0.25414  0.52107  Biso   1.000  N
  N153     1.0000 0.49486  0.27914  0.63884  Biso   1.000  N
  H223     1.0000 0.53177  0.34163  0.55215  Biso   1.000  H
  N154     1.0000 0.49747  0.28964  0.67186  Biso   1.000  N
  H224     1.0000 0.52926  0.35573  0.59945  Biso   1.000  H
  N155     1.0000 0.43316  0.32564  0.72917  Biso   1.000  N
  H225     1.0000 0.48828  0.38043  0.65023  Biso   1.000  H
  H226     1.0000 0.43597  0.36644  0.60325  Biso   1.000  H
  H227     1.0000 0.46785  0.38192  0.68373  Biso   1.000  H
  H228     1.0000 0.41817  0.36023  0.61745  Biso   1.000  H
  N156     1.0000 0.41356  0.32194  0.74863  Biso   1.000  N
  C227     1.0000 0.34217  0.17883  0.30643  Biso   1.000  C
  N157     1.0000 0.34295  0.14453  0.31014  Biso   1.000  N
  C228     1.0000 0.40798  0.16604  0.30086  Biso   1.000  C
  C229     1.0000 0.42697  0.18533  0.31296  Biso   1.000  C
  C230     1.0000 0.35925  0.19412  0.31006  Biso   1.000  C
  C231     1.0000 0.48287  0.19914  0.42154  Biso   1.000  C
  C232     1.0000 0.49817  0.21974  0.44793  Biso   1.000  C
  C233     1.0000 0.49586  0.23972  0.59864  Biso   1.000  C
  C234     1.0000 0.49439  0.24855  0.63053  Biso   1.000  C
  C235     1.0000 0.51267  0.29574  0.74830  Biso   1.000  C
  C236     1.0000 0.50357  0.30083  0.78463  Biso   1.000  C
  C237     1.0000 0.46077  0.32724  0.82467  Biso   1.000  C
  C238     1.0000 0.38579  0.30955  0.75323  Biso   1.000  C
  C239     1.0000 0.44045  0.32223  0.84606  Biso   1.000  C
  N158     1.0000 0.37836  0.29803  0.85873  Biso   1.000  N
  C240     1.0000 0.36576  0.30203  0.76413  Biso   1.000  C
  O75      1.0000 0.31916  0.19983  0.29214  Biso   1.000  O
  N159     1.0000 0.32276  0.12894  0.30570  Biso   1.000  N
  O76      1.0000 0.33175  0.21123  0.30836  Biso   1.000  O
  C241     1.0000 0.36047  0.11644  0.29916  Biso   1.000  C
  C242     1.0000 0.29449  0.10940  0.28350  Biso   1.000  C
  C243     1.0000 0.38255  0.13443  0.30320  Biso   1.000  C
  N160     1.0000 0.43458  0.16284  0.38917  Biso   1.000  N
  H229     1.0000 0.42628  0.17123  0.23192  Biso   1.000  H
  H230     1.0000 0.44697  0.19354  0.24580  Biso   1.000  H
  N161     1.0000 0.45307  0.18133  0.40119  Biso   1.000  N
  H231     1.0000 0.49797  0.18253  0.45932  Biso   1.000  H
  H232     1.0000 0.50217  0.21414  0.35551  Biso   1.000  H
  H233     1.0000 0.51386  0.20404  0.48684  Biso   1.000  H
  H234     1.0000 0.51986  0.23845  0.38755  Biso   1.000  H
  O77      1.0000 0.49946  0.20873  0.64942  Biso   1.000  O
  O78      1.0000 0.50125  0.21872  0.67856  Biso   1.000  O
  N162     1.0000 0.47648  0.29214  0.82362  Biso   1.000  N
  H235     1.0000 0.53906  0.33015  0.74475  Biso   1.000  H
  H236     1.0000 0.52697  0.27645  0.77640  Biso   1.000  H
  H237     1.0000 0.52736  0.33582  0.79294  Biso   1.000  H
  H238     1.0000 0.51776  0.28252  0.81853  Biso   1.000  H
  N163     1.0000 0.46028  0.29033  0.84364  Biso   1.000  N
  H239     1.0000 0.48797  0.36074  0.84001  Biso   1.000  H
  C244     1.0000 0.42176  0.30824  0.91451  Biso   1.000  C
  H240     1.0000 0.46527  0.35594  0.86786  Biso   1.000  H
  O79      1.0000 0.35477  0.30522  0.68792  Biso   1.000  O
  N164     1.0000 0.35666  0.28673  0.86761  Biso   1.000  N
  O80      1.0000 0.33595  0.29792  0.69600  Biso   1.000  O
  C245     1.0000 0.39927  0.29814  0.92921  Biso   1.000  C
  C246     1.0000 0.33636  0.29062  0.91314  Biso   1.000  C
  C247     1.0000 0.27161  0.09479  0.28568  Biso   1.000  C
  N165     1.0000 0.36497  0.09323  0.39587  Biso   1.000  N
  H241     1.0000 0.35767  0.09744  0.23256  Biso   1.000  H
  H242     1.0000 0.38229  0.11855  0.23345  Biso   1.000  H
  N166     1.0000 0.38715  0.10852  0.39587  Biso   1.000  N
  H243     1.0000 0.26898  0.07128  0.22990  Biso   1.000  H
  H244     1.0000 0.29561  0.08930  0.22376  Biso   1.000  H
  H245     1.0000 0.27809  0.12669  0.25581  Biso   1.000  H
  N167     1.0000 0.26508  0.07739  0.36858  Biso   1.000  N
  C248     1.0000 0.41016  0.11873  0.44123  Biso   1.000  C
  C249     1.0000 0.42896  0.13683  0.45213  Biso   1.000  C
  C250     1.0000 0.45688  0.25854  0.90176  Biso   1.000  C
  C251     1.0000 0.44036  0.25432  0.91645  Biso   1.000  C
  N168     1.0000 0.42135  0.26482  0.95431  Biso   1.000  N
  N169     1.0000 0.40157  0.25592  0.96472  Biso   1.000  N
  H246     1.0000 0.42996  0.33284  0.97296  Biso   1.000  H
  H247     1.0000 0.40395  0.32052  0.99064  Biso   1.000  H
  C252     1.0000 0.31276  0.27772  0.91661  Biso   1.000  C
  N170     1.0000 0.30170  0.24012  0.93752  Biso   1.000  N
  H248     1.0000 0.31985  0.30392  0.86834  Biso   1.000  H
  H249     1.0000 0.34607  0.30915  0.98160  Biso   1.000  H
  H250     1.0000 0.32017  0.29574  0.98587  Biso   1.000  H
  N171     1.0000 0.24531  0.06849  0.37900  Biso   1.000  N
  H251     1.0000 0.25630  0.11288  0.25654  Biso   1.000  H
  C253     1.0000 0.33029  0.04269  0.42016  Biso   1.000  C
  C254     1.0000 0.35389  0.05559  0.41669  Biso   1.000  C
  C255     1.0000 0.24492  0.02511  0.41879  Biso   1.000  C
  C256     1.0000 0.26740  0.03521  0.40410  Biso   1.000  C
  C257     1.0000 0.22630  0.07899  0.41694  Biso   1.000  C
  O81      1.0000 0.42667  0.10594  0.51477  Biso   1.000  O
  O82      1.0000 0.44626  0.12335  0.52406  Biso   1.000  O
  O83      1.0000 0.46797  0.22755  0.92783  Biso   1.000  O
  O84      1.0000 0.45357  0.22442  0.93704  Biso   1.000  O
  C258     1.0000 0.39504  0.23852  0.04763  Biso   1.000  C
  C259     1.0000 0.37219  0.22395  0.04981  Biso   1.000  C
  N172     1.0000 0.27950  0.22479  0.93752  Biso   1.000  N
  H252     1.0000 0.29627  0.29004  0.86915  Biso   1.000  H
  C260     1.0000 0.25651  0.21461  0.89207  Biso   1.000  C
  C261     1.0000 0.30620  0.21690  0.03423  Biso   1.000  C
  C262     1.0000 0.28412  0.19892  0.03011  Biso   1.000  C
  C263     1.0000 0.20980  0.07481  0.43163  Biso   1.000  C
  N173     1.0000 0.20639  0.04302  0.48967  Biso   1.000  N
  N174     1.0000 0.28831  0.03531  0.47457  Biso   1.000  N
  H253     1.0000 0.34680  0.02939  0.46497  Biso   1.000  H
  H254     1.0000 0.32061  0.02420  0.35171  Biso   1.000  H
  H255     1.0000 0.34650  0.03760  0.34751  Biso   1.000  H
  H256     1.0000 0.37040  0.04331  0.46424  Biso   1.000  H
  N175     1.0000 0.31001  0.04661  0.46569  Biso   1.000  N
  C264     1.0000 0.20590  0.00610  0.50872  Biso   1.000  C
  H257     1.0000 0.23671  0.00051  0.36043  Biso   1.000  H
  C265     1.0000 0.22622  0.01112  0.48733  Biso   1.000  C
  H258     1.0000 0.26270  0.01279  0.34267  Biso   1.000  H
  O85      1.0000 0.19871  0.10580  0.40547  Biso   1.000  O
  N176     1.0000 0.19019  0.04120  0.50969  Biso   1.000  N
  O86      1.0000 0.21309  0.10889  0.39627  Biso   1.000  O
  N177     1.0000 0.34391  0.20440  0.02761  Biso   1.000  N
  H259     1.0000 0.39767  0.26203  0.10341  Biso   1.000  H
  H260     1.0000 0.41035  0.22043  0.07685  Biso   1.000  H
  H261     1.0000 0.37106  0.24404  0.10954  Biso   1.000  H
  H262     1.0000 0.38857  0.20662  0.07749  Biso   1.000  H
  N178     1.0000 0.32372  0.18882  0.02317  Biso   1.000  N
  N179     1.0000 0.23210  0.17051  0.94422  Biso   1.000  N
  C266     1.0000 0.23769  0.19648  0.88118  Biso   1.000  C
  O87      1.0000 0.24000  0.22740  0.81861  Biso   1.000  O
  O88      1.0000 0.22041  0.21000  0.80933  Biso   1.000  O
  C267     1.0000 0.25869  0.16731  0.03253  Biso   1.000  C
  H263     1.0000 0.30900  0.23590  0.10082  Biso   1.000  H
  H264     1.0000 0.28438  0.21479  0.09994  Biso   1.000  H
  C268     1.0000 0.23970  0.14802  0.02042  Biso   1.000  C
  C269     1.0000 0.16310  0.03252  0.54868  Biso   1.000  C
  C270     1.0000 0.28089  0.02380  0.58008  Biso   1.000  C
  C271     1.0000 0.30091  0.03132  0.56918  Biso   1.000  C
  N180     1.0000 0.25311  0.01141  0.58468  Biso   1.000  N
  N181     1.0000 0.23351  0.00770  0.60421  Biso   1.000  N
  H265     1.0000 0.17871  0.97261  0.49330  Biso   1.000  H
  H266     1.0000 0.20140  0.97740  0.46553  Biso   1.000  H
  C272     1.0000 0.15400  0.03760  0.58500  Biso   1.000  C
  C273     1.0000 0.32449  0.15448  0.02688  Biso   1.000  C
  N182     1.0000 0.27541  0.13290  0.02333  Biso   1.000  N
  C274     1.0000 0.30740  0.13919  0.02333  Biso   1.000  C
  C275     1.0000 0.18381  0.13421  0.91177  Biso   1.000  C
  N183     1.0000 0.21360  0.15201  0.93211  Biso   1.000  N
  N184     1.0000 0.25881  0.11550  0.00864  Biso   1.000  N
  H267     1.0000 0.24039  0.16211  0.10139  Biso   1.000  H
  H268     1.0000 0.21970  0.13981  0.08750  Biso   1.000  H
  H269     1.0000 0.12761  0.00320  0.58863  Biso   1.000  H
  H270     1.0000 0.14889  0.05079  0.51477  Biso   1.000  H
  N185     1.0000 0.16920  0.04371  0.66153  Biso   1.000  N
  H271     1.0000 0.13930  0.99749  0.54036  Biso   1.000  H
  O89      1.0000 0.31188  0.02808  0.64538  Biso   1.000  O
  O90      1.0000 0.33070  0.03539  0.63731  Biso   1.000  O
  C276     1.0000 0.22690  0.98191  0.67638  Biso   1.000  C
  C277     1.0000 0.21081  0.98049  0.70181  Biso   1.000  C
  N186     1.0000 0.17181  0.05421  0.69446  Biso   1.000  N
  H272     1.0000 0.13971  0.05690  0.55691  Biso   1.000  H
  O91      1.0000 0.34750  0.13348  0.04117  Biso   1.000  O
  O92      1.0000 0.33492  0.12211  0.02502  Biso   1.000  O
  C278     1.0000 0.24460  0.08098  0.02753  Biso   1.000  C
  N187     1.0000 0.17979  0.09559  0.84243  Biso   1.000  N
  H273     1.0000 0.16870  0.15081  0.87399  Biso   1.000  H
  H274     1.0000 0.16450  0.11920  0.97780  Biso   1.000  H
  H275     1.0000 0.15282  0.12931  0.84646  Biso   1.000  H
  H276     1.0000 0.14681  0.09490  0.94583  Biso   1.000  H
  C279     1.0000 0.16850  0.11361  0.88537  Biso   1.000  C
  C280     1.0000 0.23038  0.06369  0.00710  Biso   1.000  C
  C281     1.0000 0.16790  0.02129  0.77963  Biso   1.000  C
  C282     1.0000 0.17228  0.08480  0.70278  Biso   1.000  C
  C283     1.0000 0.16802  0.00981  0.73999  Biso   1.000  C
  N188     1.0000 0.20950  0.00411  0.75008  Biso   1.000  N
  H277     1.0000 0.23070  0.96690  0.73006  Biso   1.000  H
  H278     1.0000 0.19881  0.95139  0.64958  Biso   1.000  H
  H279     1.0000 0.24850  0.97311  0.71593  Biso   1.000  H
  N189     1.0000 0.20498  0.00879  0.78673  Biso   1.000  N
  H280     1.0000 0.17840  0.95291  0.68308  Biso   1.000  H
  C284     1.0000 0.17080  0.09359  0.73466  Biso   1.000  C
  N190     1.0000 0.17071  0.07920  0.81232  Biso   1.000  N
  N191     1.0000 0.22281  0.05911  0.92703  Biso   1.000  N
  H281     1.0000 0.21851  0.07310  0.08088  Biso   1.000  H
  H282     1.0000 0.26400  0.06649  0.05352  Biso   1.000  H
  H283     1.0000 0.20229  0.05319  0.05610  Biso   1.000  H
  H284     1.0000 0.25039  0.05021  0.03520  Biso   1.000  H
  C285     1.0000 0.17769  0.05250  0.88319  Biso   1.000  C
  N192     1.0000 0.21320  0.04429  0.90257  Biso   1.000  N
  H285     1.0000 0.13490  0.99172  0.78124  Biso   1.000  H
  O93      1.0000 0.16719  0.12458  0.68389  Biso   1.000  O
  O94      1.0000 0.16541  0.11459  0.65483  Biso   1.000  O
  C286     1.0000 0.16961  0.03521  0.84638  Biso   1.000  C
  H286     1.0000 0.13740  0.97758  0.73394  Biso   1.000  H
  C287     1.0000 0.23640  0.02928  0.86923  Biso   1.000  C
  C288     1.0000 0.23668  0.02569  0.83783  Biso   1.000  C
  H287     1.0000 0.15058  0.03579  0.93631  Biso   1.000  H
  H288     1.0000 0.14011  0.01461  0.89102  Biso   1.000  H
  O95      1.0000 0.27281  0.02670  0.89248  Biso   1.000  O
  O96      1.0000 0.27049  0.02100  0.87254  Biso   1.000  O
  C289     1.0000 0.70169  0.64609  0.41669  Biso   1.000  C
  N193     1.0000 0.72826  0.63505  0.39587  Biso   1.000  N
  N194     1.0000 0.72138  0.61285  0.39587  Biso   1.000  N
  H289     1.0000 0.68259  0.65321  0.46497  Biso   1.000  H
  H290     1.0000 0.70359  0.67941  0.35171  Biso   1.000  H
  H291     1.0000 0.69111  0.65350  0.34751  Biso   1.000  H
  H292     1.0000 0.67289  0.62960  0.46424  Biso   1.000  H
  N195     1.0000 0.73661  0.69002  0.46569  Biso   1.000  N
  C290     1.0000 0.70859  0.58985  0.44123  Biso   1.000  C
  C291     1.0000 0.75597  0.63955  0.29916  Biso   1.000  C
  C292     1.0000 0.71239  0.66971  0.42016  Biso   1.000  C
  C293     1.0000 0.75186  0.61742  0.30320  Biso   1.000  C
  C294     1.0000 0.70786  0.57103  0.45213  Biso   1.000  C
  N196     1.0000 0.72825  0.56543  0.38917  Biso   1.000  N
  C295     1.0000 0.74292  0.71912  0.58008  Biso   1.000  C
  C296     1.0000 0.76778  0.73260  0.40410  Biso   1.000  C
  C297     1.0000 0.73039  0.69910  0.56918  Biso   1.000  C
  O97      1.0000 0.67706  0.55373  0.52406  Biso   1.000  O
  O98      1.0000 0.67927  0.57332  0.51477  Biso   1.000  O
  C298     1.0000 0.75807  0.59203  0.30086  Biso   1.000  C
  N197     1.0000 0.80617  0.67723  0.30570  Biso   1.000  N
  H293     1.0000 0.73978  0.64235  0.23256  Biso   1.000  H
  H294     1.0000 0.73629  0.61775  0.23345  Biso   1.000  H
  N198     1.0000 0.80155  0.65703  0.31014  Biso   1.000  N
  N199     1.0000 0.74702  0.71171  0.47457  Biso   1.000  N
  C299     1.0000 0.75835  0.57303  0.31296  Biso   1.000  C
  N200     1.0000 0.72826  0.54694  0.40119  Biso   1.000  N
  C300     1.0000 0.71629  0.51715  0.42154  Biso   1.000  C
  O99      1.0000 0.71621  0.68809  0.64538  Biso   1.000  O
  N201     1.0000 0.77419  0.76649  0.60421  Biso   1.000  N
  O100     1.0000 0.70471  0.66931  0.63731  Biso   1.000  O
  C301     1.0000 0.78489  0.77380  0.48733  Biso   1.000  C
  N202     1.0000 0.82319  0.75469  0.37900  Biso   1.000  N
  N203     1.0000 0.81229  0.73489  0.36858  Biso   1.000  N
  H295     1.0000 0.76378  0.76330  0.36043  Biso   1.000  H
  H296     1.0000 0.75008  0.73728  0.34267  Biso   1.000  H
  N204     1.0000 0.75830  0.74691  0.58468  Biso   1.000  N
  N205     1.0000 0.80918  0.60874  0.31006  Biso   1.000  N
  H297     1.0000 0.74495  0.57372  0.23192  Biso   1.000  H
  H298     1.0000 0.74657  0.55304  0.24580  Biso   1.000  H
  N206     1.0000 0.80998  0.59214  0.32475  Biso   1.000  N
  C302     1.0000 0.83665  0.65783  0.30643  Biso   1.000  C
  C303     1.0000 0.82319  0.72838  0.28568  Biso   1.000  C
  C304     1.0000 0.81489  0.70549  0.28350  Biso   1.000  C
  C305     1.0000 0.83488  0.64075  0.31006  Biso   1.000  C
  C306     1.0000 0.78019  0.75509  0.41879  Biso   1.000  C
  C307     1.0000 0.72155  0.50182  0.44793  Biso   1.000  C
  N207     1.0000 0.75086  0.51312  0.49096  Biso   1.000  N
  H299     1.0000 0.68456  0.50203  0.45932  Biso   1.000  H
  H300     1.0000 0.71197  0.49782  0.35551  Biso   1.000  H
  H301     1.0000 0.69017  0.48612  0.48684  Biso   1.000  H
  H302     1.0000 0.71857  0.48013  0.38755  Biso   1.000  H
  C308     1.0000 0.80021  0.79411  0.50872  Biso   1.000  C
  C309     1.0000 0.75500  0.77311  0.67638  Biso   1.000  C
  C310     1.0000 0.76969  0.78920  0.70181  Biso   1.000  C
  H303     1.0000 0.77600  0.79861  0.46553  Biso   1.000  H
  N208     1.0000 0.83661  0.79360  0.48967  Biso   1.000  N
  C311     1.0000 0.86498  0.79018  0.43163  Biso   1.000  C
  C312     1.0000 0.85271  0.77369  0.41694  Biso   1.000  C
  C313     1.0000 0.83028  0.57793  0.30586  Biso   1.000  C
  C314     1.0000 0.83337  0.56373  0.32620  Biso   1.000  C
  O101     1.0000 0.88065  0.68082  0.29214  Biso   1.000  O
  O102     1.0000 0.87945  0.66822  0.30836  Biso   1.000  O
  H304     1.0000 0.80229  0.73100  0.22990  Biso   1.000  H
  H305     1.0000 0.85660  0.74371  0.25654  Biso   1.000  H
  H306     1.0000 0.79371  0.70440  0.22376  Biso   1.000  H
  H307     1.0000 0.84859  0.72191  0.25581  Biso   1.000  H
  N209     1.0000 0.75815  0.50403  0.52107  Biso   1.000  N
  C315     1.0000 0.74386  0.50414  0.59864  Biso   1.000  C
  C316     1.0000 0.79186  0.51104  0.45011  Biso   1.000  C
  C317     1.0000 0.75417  0.50563  0.63053  Biso   1.000  C
  N210     1.0000 0.85100  0.80980  0.50969  Biso   1.000  N
  H308     1.0000 0.79388  0.82128  0.49330  Biso   1.000  H
  H309     1.0000 0.73620  0.76929  0.73006  Biso   1.000  H
  H310     1.0000 0.75259  0.80119  0.64958  Biso   1.000  H
  H311     1.0000 0.72459  0.75149  0.71593  Biso   1.000  H
  N211     1.0000 0.79460  0.79051  0.75008  Biso   1.000  N
  N212     1.0000 0.80381  0.79501  0.78673  Biso   1.000  N
  H312     1.0000 0.77450  0.82161  0.68308  Biso   1.000  H
  C318     1.0000 0.86940  0.83691  0.54868  Biso   1.000  C
  O103     1.0000 0.90710  0.80130  0.40547  Biso   1.000  O
  O104     1.0000 0.89582  0.78691  0.39627  Biso   1.000  O
  N213     1.0000 0.83036  0.55613  0.40636  Biso   1.000  N
  H313     1.0000 0.81208  0.55185  0.25242  Biso   1.000  H
  H314     1.0000 0.86418  0.59733  0.27987  Biso   1.000  H
  H315     1.0000 0.81577  0.53564  0.27720  Biso   1.000  H
  H316     1.0000 0.86688  0.58374  0.29811  Biso   1.000  H
  N214     1.0000 0.83557  0.54654  0.43074  Biso   1.000  N
  N215     1.0000 0.78425  0.50512  0.63884  Biso   1.000  N
  C319     1.0000 0.80106  0.50294  0.48692  Biso   1.000  C
  O105     1.0000 0.70927  0.50054  0.64942  Biso   1.000  O
  O106     1.0000 0.71746  0.49873  0.67856  Biso   1.000  O
  H317     1.0000 0.78146  0.48394  0.39700  Biso   1.000  H
  C320     1.0000 0.81326  0.50123  0.55376  Biso   1.000  C
  H318     1.0000 0.79216  0.47344  0.44236  Biso   1.000  H
  N216     1.0000 0.79218  0.50254  0.67186  Biso   1.000  N
  C321     1.0000 0.88360  0.84599  0.58500  Biso   1.000  C
  C322     1.0000 0.85341  0.83211  0.77963  Biso   1.000  C
  C323     1.0000 0.79291  0.76359  0.86923  Biso   1.000  C
  C324     1.0000 0.78899  0.76330  0.83783  Biso   1.000  C
  C325     1.0000 0.84181  0.83200  0.73999  Biso   1.000  C
  H319     1.0000 0.87560  0.87240  0.58863  Biso   1.000  H
  H320     1.0000 0.85820  0.86070  0.54036  Biso   1.000  H
  H321     1.0000 0.90189  0.85111  0.51477  Biso   1.000  H
  N217     1.0000 0.87450  0.83080  0.66153  Biso   1.000  N
  C326     1.0000 0.87375  0.56972  0.46416  Biso   1.000  C
  C327     1.0000 0.87769  0.57005  0.49556  Biso   1.000  C
  C328     1.0000 0.78305  0.48732  0.74830  Biso   1.000  C
  C329     1.0000 0.82486  0.50134  0.59332  Biso   1.000  C
  N218     1.0000 0.86287  0.53833  0.54666  Biso   1.000  N
  H322     1.0000 0.80986  0.46825  0.55215  Biso   1.000  H
  N219     1.0000 0.87207  0.54283  0.58323  Biso   1.000  N
  C330     1.0000 0.79727  0.49644  0.78463  Biso   1.000  C
  N220     1.0000 0.88241  0.82819  0.69446  Biso   1.000  N
  H323     1.0000 0.91719  0.86030  0.55691  Biso   1.000  H
  C331     1.0000 0.87481  0.82230  0.88319  Biso   1.000  C
  H324     1.0000 0.85681  0.86510  0.78124  Biso   1.000  H
  O107     1.0000 0.75391  0.72718  0.89248  Biso   1.000  O
  N221     1.0000 0.83631  0.77721  0.92703  Biso   1.000  N
  N222     1.0000 0.83110  0.78680  0.90257  Biso   1.000  N
  O108     1.0000 0.75051  0.72951  0.87254  Biso   1.000  O
  C332     1.0000 0.86561  0.83040  0.84638  Biso   1.000  C
  H325     1.0000 0.84021  0.86259  0.73394  Biso   1.000  H
  C333     1.0000 0.91250  0.82771  0.70278  Biso   1.000  C
  O109     1.0000 0.91275  0.60613  0.44083  Biso   1.000  O
  O110     1.0000 0.91617  0.60384  0.46085  Biso   1.000  O
  N223     1.0000 0.81567  0.52354  0.82362  Biso   1.000  N
  H326     1.0000 0.79107  0.46094  0.74475  Biso   1.000  H
  H327     1.0000 0.74948  0.47304  0.77640  Biso   1.000  H
  H328     1.0000 0.80847  0.47264  0.79294  Biso   1.000  H
  H329     1.0000 0.76478  0.48223  0.81853  Biso   1.000  H
  H330     1.0000 0.82645  0.47072  0.59945  Biso   1.000  H
  C334     1.0000 0.89698  0.54414  0.63150  Biso   1.000  C
  C335     1.0000 0.91167  0.56024  0.65693  Biso   1.000  C
  N224     1.0000 0.83006  0.53975  0.84364  Biso   1.000  N
  C336     1.0000 0.92281  0.82920  0.73466  Biso   1.000  C
  N225     1.0000 0.90852  0.82931  0.81232  Biso   1.000  N
  N226     1.0000 0.91579  0.82019  0.84243  Biso   1.000  N
  H331     1.0000 0.88521  0.84940  0.93631  Biso   1.000  H
  H332     1.0000 0.87451  0.85990  0.89102  Biso   1.000  H
  C337     1.0000 0.83639  0.75541  0.02753  Biso   1.000  C
  C338     1.0000 0.83328  0.76958  0.00710  Biso   1.000  C
  O111     1.0000 0.95740  0.83280  0.68389  Biso   1.000  O
  O112     1.0000 0.94921  0.83462  0.65483  Biso   1.000  O
  C339     1.0000 0.80167  0.54313  0.90176  Biso   1.000  C
  C340     1.0000 0.86647  0.53924  0.82467  Biso   1.000  C
  C341     1.0000 0.81395  0.55962  0.91645  Biso   1.000  C
  N227     1.0000 0.89248  0.56685  0.72917  Biso   1.000  N
  H333     1.0000 0.89217  0.51173  0.65023  Biso   1.000  H
  H334     1.0000 0.93046  0.56402  0.60325  Biso   1.000  H
  H335     1.0000 0.91407  0.53212  0.68373  Biso   1.000  H
  H336     1.0000 0.94206  0.58182  0.61745  Biso   1.000  H
  N228     1.0000 0.90838  0.58643  0.74863  Biso   1.000  N
  N229     1.0000 0.84346  0.57862  0.95431  Biso   1.000  N
  C342     1.0000 0.88178  0.55955  0.84606  Biso   1.000  C
  C343     1.0000 0.94510  0.83149  0.88537  Biso   1.000  C
  C344     1.0000 0.95039  0.81620  0.91177  Biso   1.000  C
  N230     1.0000 0.85749  0.72460  0.02333  Biso   1.000  N
  H337     1.0000 0.85460  0.78150  0.08088  Biso   1.000  H
  H338     1.0000 0.80250  0.73601  0.05352  Biso   1.000  H
  H339     1.0000 0.85090  0.79770  0.05610  Biso   1.000  H
  H340     1.0000 0.79979  0.74960  0.03520  Biso   1.000  H
  N231     1.0000 0.85670  0.74121  0.00864  Biso   1.000  N
  O113     1.0000 0.75957  0.53204  0.92783  Biso   1.000  O
  O114     1.0000 0.77086  0.54643  0.93704  Biso   1.000  O
  H341     1.0000 0.87278  0.51203  0.84001  Biso   1.000  H
  C345     1.0000 0.88646  0.57822  0.91451  Biso   1.000  C
  H342     1.0000 0.89068  0.53473  0.86786  Biso   1.000  H
  N232     1.0000 0.85437  0.59842  0.96472  Biso   1.000  N
  C346     1.0000 0.92375  0.61423  0.75323  Biso   1.000  C
  N233     1.0000 0.91965  0.62164  0.85873  Biso   1.000  N
  C347     1.0000 0.93628  0.63425  0.76413  Biso   1.000  C
  C348     1.0000 0.89889  0.60075  0.92921  Biso   1.000  C
  C349     1.0000 0.84346  0.60493  0.04763  Biso   1.000  C
  H343     1.0000 0.98211  0.83131  0.87399  Biso   1.000  H
  H344     1.0000 0.95468  0.83549  0.97780  Biso   1.000  H
  H345     1.0000 0.97649  0.84719  0.84646  Biso   1.000  H
  H346     1.0000 0.94808  0.85318  0.94583  Biso   1.000  H
  N234     1.0000 0.93842  0.78640  0.93211  Biso   1.000  N
  N235     1.0000 0.93842  0.76791  0.94422  Biso   1.000  N
  N236     1.0000 0.86511  0.67628  0.02317  Biso   1.000  N
  C350     1.0000 0.90860  0.74132  0.03253  Biso   1.000  C
  C351     1.0000 0.83000  0.67548  0.02688  Biso   1.000  C
  C352     1.0000 0.90832  0.76032  0.02042  Biso   1.000  C
  C353     1.0000 0.83179  0.69260  0.02333  Biso   1.000  C
  H347     1.0000 0.90289  0.57005  0.97296  Biso   1.000  H
  H348     1.0000 0.91657  0.59602  0.99064  Biso   1.000  H
  C354     1.0000 0.85176  0.62782  0.04981  Biso   1.000  C
  O115     1.0000 0.95045  0.64522  0.68792  Biso   1.000  O
  N237     1.0000 0.93006  0.64333  0.86761  Biso   1.000  N
  O116     1.0000 0.96197  0.66404  0.69600  Biso   1.000  O
  C355     1.0000 0.95428  0.66364  0.91314  Biso   1.000  C
  N238     1.0000 0.86050  0.65612  0.02761  Biso   1.000  N
  H349     1.0000 0.86439  0.60235  0.10341  Biso   1.000  H
  H350     1.0000 0.81008  0.58963  0.07685  Biso   1.000  H
  H351     1.0000 0.87296  0.62894  0.10954  Biso   1.000  H
  H352     1.0000 0.81808  0.61143  0.07749  Biso   1.000  H
  C356     1.0000 0.95881  0.76232  0.88118  Biso   1.000  C
  C357     1.0000 0.95809  0.74350  0.89207  Biso   1.000  C
  N239     1.0000 0.94530  0.72050  0.93752  Biso   1.000  N
  C358     1.0000 0.91071  0.69379  0.03423  Biso   1.000  C
  C359     1.0000 0.91480  0.71588  0.03011  Biso   1.000  C
  H353     1.0000 0.92171  0.75959  0.10139  Biso   1.000  H
  H354     1.0000 0.92010  0.78030  0.08750  Biso   1.000  H
  O117     1.0000 0.78600  0.65248  0.04117  Biso   1.000  O
  O118     1.0000 0.78721  0.66509  0.02502  Biso   1.000  O
  C360     1.0000 0.96497  0.68722  0.91661  Biso   1.000  C
  N240     1.0000 0.93841  0.69830  0.93752  Biso   1.000  N
  H355     1.0000 0.98408  0.68013  0.86834  Biso   1.000  H
  H356     1.0000 0.96308  0.65394  0.98160  Biso   1.000  H
  H357     1.0000 0.97556  0.67984  0.98587  Biso   1.000  H
  O119     1.0000 0.98738  0.75999  0.81861  Biso   1.000  O
  O120     1.0000 0.98961  0.77961  0.80933  Biso   1.000  O
  H358     1.0000 0.92690  0.69100  0.10082  Biso   1.000  H
  H359     1.0000 0.93038  0.71559  0.09994  Biso   1.000  H
  H360     1.0000 0.99378  0.70375  0.86915  Biso   1.000  H
  C361     1.0000 0.46395  0.82978  0.11794  Biso   1.000  C
  H361     1.0000 0.45773  0.79425  0.07806  Biso   1.000  H
  H362     1.0000 0.47512  0.80595  0.12625  Biso   1.000  H
  H363     1.0000 0.43145  0.81558  0.15184  Biso   1.000  H
  N241     1.0000 0.45883  0.83585  0.00517  Biso   1.000  N
  N242     1.0000 0.49672  0.87306  0.17695  Biso   1.000  N
  C362     1.0000 0.44973  0.82067  0.08169  Biso   1.000  C
  C363     1.0000 0.47994  0.83458  0.88707  Biso   1.000  C
  C364     1.0000 0.42084  0.83898  0.96384  Biso   1.000  C
  C365     1.0000 0.49152  0.83465  0.92670  Biso   1.000  C
  C366     1.0000 0.46835  0.87647  0.23507  Biso   1.000  C
  C367     1.0000 0.53314  0.87258  0.15798  Biso   1.000  C
  C368     1.0000 0.48062  0.89297  0.24976  Biso   1.000  C
  N243     1.0000 0.51013  0.91197  0.28770  Biso   1.000  N
  C369     1.0000 0.54844  0.89286  0.17937  Biso   1.000  C
  N244     1.0000 0.48232  0.85685  0.15701  Biso   1.000  N
  H364     1.0000 0.41614  0.80635  0.10978  Biso   1.000  H
  N245     1.0000 0.45092  0.83847  0.97215  Biso   1.000  N
  N246     1.0000 0.52954  0.87168  0.87996  Biso   1.000  N
  C370     1.0000 0.45852  0.84435  0.78350  Biso   1.000  C
  H365     1.0000 0.47651  0.80155  0.88545  Biso   1.000  H
  N247     1.0000 0.53874  0.87618  0.91653  Biso   1.000  N
  N248     1.0000 0.42482  0.83738  0.85438  Biso   1.000  N
  O121     1.0000 0.38413  0.83207  0.01187  Biso   1.000  O
  O122     1.0000 0.37593  0.83385  0.98281  Biso   1.000  O
  N249     1.0000 0.41754  0.84646  0.82427  Biso   1.000  N
  C371     1.0000 0.46771  0.83625  0.82023  Biso   1.000  C
  H366     1.0000 0.49312  0.80406  0.93276  Biso   1.000  H
  O123     1.0000 0.42623  0.86535  0.26114  Biso   1.000  O
  O124     1.0000 0.43753  0.87978  0.27034  Biso   1.000  O
  N250     1.0000 0.55914  0.90016  0.06248  Biso   1.000  N
  H367     1.0000 0.53945  0.84537  0.17339  Biso   1.000  H
  C372     1.0000 0.55313  0.91157  0.24790  Biso   1.000  C
  H368     1.0000 0.55735  0.86808  0.20116  Biso   1.000  H
  N251     1.0000 0.57505  0.91978  0.08193  Biso   1.000  N
  N252     1.0000 0.52104  0.93177  0.29803  Biso   1.000  N
  C373     1.0000 0.51013  0.93827  0.38093  Biso   1.000  C
  C374     1.0000 0.56554  0.93406  0.26259  Biso   1.000  C
  N253     1.0000 0.58633  0.95498  0.19204  Biso   1.000  N
  C375     1.0000 0.41051  0.83745  0.93195  Biso   1.000  C
  C376     1.0000 0.56364  0.87745  0.96489  Biso   1.000  C
  C377     1.0000 0.54042  0.90307  0.79747  Biso   1.000  C
  C378     1.0000 0.54434  0.90336  0.82887  Biso   1.000  C
  N254     1.0000 0.49703  0.88948  0.73967  Biso   1.000  N
  H369     1.0000 0.44811  0.81725  0.73038  Biso   1.000  H
  H370     1.0000 0.45882  0.80675  0.77567  Biso   1.000  H
  N255     1.0000 0.50222  0.87985  0.76405  Biso   1.000  N
  C379     1.0000 0.57834  0.89358  0.99023  Biso   1.000  C
  C380     1.0000 0.38822  0.83516  0.78124  Biso   1.000  C
  C381     1.0000 0.38294  0.85046  0.75484  Biso   1.000  C
  C382     1.0000 0.59042  0.94757  0.08654  Biso   1.000  C
  H371     1.0000 0.56954  0.90336  0.30626  Biso   1.000  H
  H372     1.0000 0.58324  0.92937  0.32394  Biso   1.000  H
  C383     1.0000 0.60293  0.96755  0.09743  Biso   1.000  C
  C384     1.0000 0.51843  0.96116  0.38319  Biso   1.000  C
  N256     1.0000 0.52715  0.98943  0.36091  Biso   1.000  N
  H373     1.0000 0.53104  0.93566  0.43679  Biso   1.000  H
  H374     1.0000 0.47675  0.92298  0.41015  Biso   1.000  H
  H375     1.0000 0.53962  0.96225  0.44285  Biso   1.000  H
  H376     1.0000 0.48475  0.94477  0.41088  Biso   1.000  H
  N257     1.0000 0.59673  0.97667  0.20100  Biso   1.000  N
  C385     1.0000 0.62095  0.99698  0.24645  Biso   1.000  C
  H377     1.0000 0.58074  0.86546  0.01703  Biso   1.000  H
  H378     1.0000 0.55884  0.84508  0.98353  Biso   1.000  H
  H379     1.0000 0.59713  0.89736  0.93655  Biso   1.000  H
  O125     1.0000 0.57942  0.93947  0.77414  Biso   1.000  O
  O126     1.0000 0.58284  0.93718  0.79416  Biso   1.000  O
  C386     1.0000 0.49695  0.91128  0.63917  Biso   1.000  C
  C387     1.0000 0.50004  0.89707  0.65959  Biso   1.000  C
  H380     1.0000 0.60874  0.91516  0.95076  Biso   1.000  H
  H381     1.0000 0.35124  0.83538  0.79270  Biso   1.000  H
  H382     1.0000 0.37864  0.83116  0.68889  Biso   1.000  H
  H383     1.0000 0.35684  0.81947  0.82015  Biso   1.000  H
  H384     1.0000 0.38525  0.81347  0.72086  Biso   1.000  H
  N258     1.0000 0.39491  0.88025  0.73458  Biso   1.000  N
  N259     1.0000 0.39492  0.89878  0.72247  Biso   1.000  N
  O127     1.0000 0.61712  0.97856  0.02123  Biso   1.000  O
  O128     1.0000 0.62864  0.99738  0.02938  Biso   1.000  O
  N260     1.0000 0.53178  0.00963  0.35655  Biso   1.000  N
  C388     1.0000 0.57738  0.02714  0.36753  Biso   1.000  C
  C389     1.0000 0.49667  0.00883  0.36027  Biso   1.000  C
  C390     1.0000 0.63164  0.02056  0.25000  Biso   1.000  C
  H385     1.0000 0.62976  0.98728  0.31498  Biso   1.000  H
  N261     1.0000 0.60509  0.03164  0.27083  Biso   1.000  N
  H386     1.0000 0.65075  0.01348  0.20165  Biso   1.000  H
  H387     1.0000 0.64222  0.01315  0.31918  Biso   1.000  H
  N262     1.0000 0.47584  0.94205  0.64336  Biso   1.000  N
  H388     1.0000 0.47873  0.88515  0.58573  Biso   1.000  H
  H389     1.0000 0.53085  0.93068  0.61317  Biso   1.000  H
  H390     1.0000 0.48243  0.86895  0.61059  Biso   1.000  H
  H391     1.0000 0.53354  0.91705  0.63150  Biso   1.000  H
  N263     1.0000 0.47665  0.92548  0.65806  Biso   1.000  N
  C391     1.0000 0.37453  0.90437  0.78544  Biso   1.000  C
  C392     1.0000 0.42503  0.90637  0.64627  Biso   1.000  C
  C393     1.0000 0.37524  0.92316  0.77454  Biso   1.000  C
  C394     1.0000 0.42474  0.92537  0.63416  Biso   1.000  C
  N264     1.0000 0.38803  0.94616  0.72917  Biso   1.000  N
  N265     1.0000 0.52416  0.05795  0.35664  Biso   1.000  N
  C395     1.0000 0.58147  0.04923  0.36342  Biso   1.000  C
  C396     1.0000 0.49847  0.02594  0.35664  Biso   1.000  C
  H392     1.0000 0.59357  0.02434  0.43413  Biso   1.000  H
  C397     1.0000 0.57526  0.07463  0.36584  Biso   1.000  C
  H393     1.0000 0.59706  0.04894  0.43324  Biso   1.000  H
  N266     1.0000 0.61197  0.05384  0.27083  Biso   1.000  N
  O129     1.0000 0.45267  0.98583  0.37456  Biso   1.000  O
  O130     1.0000 0.45388  0.99844  0.35833  Biso   1.000  O
  H394     1.0000 0.66043  0.03706  0.20245  Biso   1.000  H
  C398     1.0000 0.62476  0.07684  0.22546  Biso   1.000  C
  C399     1.0000 0.50333  0.99117  0.63973  Biso   1.000  C
  N267     1.0000 0.46822  0.99037  0.64345  Biso   1.000  N
  C400     1.0000 0.50153  0.97406  0.64336  Biso   1.000  C
  O131     1.0000 0.34594  0.90666  0.84808  Biso   1.000  O
  O132     1.0000 0.34373  0.88708  0.85736  Biso   1.000  O
  H395     1.0000 0.41162  0.90706  0.56531  Biso   1.000  H
  C401     1.0000 0.41853  0.95077  0.63658  Biso   1.000  C
  H396     1.0000 0.41322  0.88635  0.57919  Biso   1.000  H
  N268     1.0000 0.39491  0.96835  0.72917  Biso   1.000  N
  C402     1.0000 0.42262  0.97286  0.63247  Biso   1.000  C
  C403     1.0000 0.36836  0.97944  0.75000  Biso   1.000  C
  C404     1.0000 0.50305  0.08872  0.36083  Biso   1.000  C
  C405     1.0000 0.57497  0.09363  0.35373  Biso   1.000  C
  N269     1.0000 0.52335  0.07452  0.34194  Biso   1.000  N
  N270     1.0000 0.60507  0.10122  0.27753  Biso   1.000  N
  H397     1.0000 0.58838  0.09294  0.43469  Biso   1.000  H
  H398     1.0000 0.58678  0.11365  0.42081  Biso   1.000  H
  C406     1.0000 0.62547  0.09562  0.21456  Biso   1.000  C
  O133     1.0000 0.65406  0.09334  0.15192  Biso   1.000  O
  O134     1.0000 0.65626  0.11292  0.14264  Biso   1.000  O
  O135     1.0000 0.54733  0.01417  0.62544  Biso   1.000  O
  N271     1.0000 0.47285  0.01057  0.63909  Biso   1.000  N
  O136     1.0000 0.54612  0.00156  0.64167  Biso   1.000  O
  C407     1.0000 0.48157  0.03884  0.61681  Biso   1.000  C
  H399     1.0000 0.40294  0.95106  0.56676  Biso   1.000  H
  C408     1.0000 0.37905  0.00301  0.75355  Biso   1.000  C
  H400     1.0000 0.40643  0.97566  0.56587  Biso   1.000  H
  H401     1.0000 0.34925  0.98652  0.79835  Biso   1.000  H
  H402     1.0000 0.33957  0.96294  0.79755  Biso   1.000  H
  H403     1.0000 0.35778  0.98685  0.68082  Biso   1.000  H
  H404     1.0000 0.37024  0.01272  0.68502  Biso   1.000  H
  N272     1.0000 0.40327  0.02332  0.79900  Biso   1.000  N
  N273     1.0000 0.50297  0.11052  0.26033  Biso   1.000  N
  H405     1.0000 0.52127  0.11484  0.41427  Biso   1.000  H
  H406     1.0000 0.46915  0.06932  0.38683  Biso   1.000  H
  H407     1.0000 0.51757  0.13105  0.38941  Biso   1.000  H
  H408     1.0000 0.46646  0.08295  0.36850  Biso   1.000  H
  N274     1.0000 0.60509  0.11975  0.26542  Biso   1.000  N
  C409     1.0000 0.49996  0.10293  0.34041  Biso   1.000  C
  C410     1.0000 0.61706  0.14954  0.24516  Biso   1.000  C
  C411     1.0000 0.48987  0.06173  0.61907  Biso   1.000  C
  H409     1.0000 0.46896  0.06434  0.56321  Biso   1.000  H
  H410     1.0000 0.46038  0.03775  0.55715  Biso   1.000  H
  H411     1.0000 0.51525  0.05522  0.58912  Biso   1.000  H
  N275     1.0000 0.47896  0.06823  0.70197  Biso   1.000  N
  N276     1.0000 0.41367  0.04501  0.80796  Biso   1.000  N
  C412     1.0000 0.40957  0.05243  0.91346  Biso   1.000  C
  C413     1.0000 0.43446  0.06594  0.73741  Biso   1.000  C
  C414     1.0000 0.39707  0.03244  0.90257  Biso   1.000  C
  C415     1.0000 0.54148  0.15565  0.21650  Biso   1.000  C
  C416     1.0000 0.45958  0.09693  0.20253  Biso   1.000  C
  C417     1.0000 0.45566  0.09664  0.17113  Biso   1.000  C
  C418     1.0000 0.61177  0.16484  0.21876  Biso   1.000  C
  N277     1.0000 0.49778  0.12015  0.23595  Biso   1.000  N
  N278     1.0000 0.58246  0.15354  0.17573  Biso   1.000  N
  H412     1.0000 0.64876  0.16462  0.20730  Biso   1.000  H
  H413     1.0000 0.62136  0.16883  0.31111  Biso   1.000  H
  H414     1.0000 0.64316  0.18053  0.17985  Biso   1.000  H
  H415     1.0000 0.61475  0.18653  0.27914  Biso   1.000  H
  N279     1.0000 0.48987  0.08803  0.71230  Biso   1.000  N
  H416     1.0000 0.52325  0.07702  0.58985  Biso   1.000  H
  C419     1.0000 0.44686  0.08843  0.75210  Biso   1.000  C
  C420     1.0000 0.51938  0.10703  0.75024  Biso   1.000  C
  C421     1.0000 0.45156  0.10714  0.82063  Biso   1.000  C
  N280     1.0000 0.42495  0.08022  0.91807  Biso   1.000  N
  O137     1.0000 0.38288  0.02144  0.97877  Biso   1.000  O
  N281     1.0000 0.44086  0.09984  0.93752  Biso   1.000  N
  O138     1.0000 0.37136  0.00262  0.97062  Biso   1.000  O
  H417     1.0000 0.43046  0.09664  0.69374  Biso   1.000  H
  H418     1.0000 0.41676  0.07063  0.67606  Biso   1.000  H
  H419     1.0000 0.55189  0.18275  0.26962  Biso   1.000  H
  C422     1.0000 0.52006  0.16542  0.11293  Biso   1.000  C
  H420     1.0000 0.54118  0.19325  0.22433  Biso   1.000  H
  N282     1.0000 0.57517  0.16262  0.14562  Biso   1.000  N
  O139     1.0000 0.42058  0.06053  0.22586  Biso   1.000  O
  N283     1.0000 0.47046  0.12832  0.12004  Biso   1.000  N
  N284     1.0000 0.46125  0.12382  0.08347  Biso   1.000  N
  O140     1.0000 0.41716  0.06282  0.20584  Biso   1.000  O
  C423     1.0000 0.53229  0.16375  0.17977  Biso   1.000  C
  C424     1.0000 0.58949  0.16255  0.06805  Biso   1.000  C
  C425     1.0000 0.57916  0.16102  0.03616  Biso   1.000  C
  C426     1.0000 0.53165  0.12353  0.76493  Biso   1.000  C
  N285     1.0000 0.50328  0.12694  0.82305  Biso   1.000  N
  C427     1.0000 0.46686  0.12742  0.84202  Biso   1.000  C
  O141     1.0000 0.57377  0.13465  0.73886  Biso   1.000  O
  N286     1.0000 0.51768  0.14315  0.84299  Biso   1.000  N
  O142     1.0000 0.56247  0.12022  0.72966  Biso   1.000  O
  H421     1.0000 0.44265  0.13192  0.79884  Biso   1.000  H
  C428     1.0000 0.42166  0.10642  0.00977  Biso   1.000  C
  C429     1.0000 0.43636  0.12255  0.03511  Biso   1.000  C
  N287     1.0000 0.54117  0.16415  0.99483  Biso   1.000  N
  N288     1.0000 0.54908  0.16153  0.02785  Biso   1.000  N
  H422     1.0000 0.52349  0.19844  0.11455  Biso   1.000  H
  C430     1.0000 0.50848  0.16535  0.07330  Biso   1.000  C
  O143     1.0000 0.61587  0.16793  0.98813  Biso   1.000  O
  O144     1.0000 0.62407  0.16615  0.01719  Biso   1.000  O
  C431     1.0000 0.53607  0.17025  0.88206  Biso   1.000  C
  H423     1.0000 0.46055  0.15463  0.82661  Biso   1.000  H
  C432     1.0000 0.55027  0.17933  0.91831  Biso   1.000  C
  H424     1.0000 0.41926  0.13454  0.98297  Biso   1.000  H
  H425     1.0000 0.40287  0.10264  0.06345  Biso   1.000  H
  H426     1.0000 0.39126  0.08483  0.04924  Biso   1.000  H
  H427     1.0000 0.44116  0.15492  0.01647  Biso   1.000  H
  H428     1.0000 0.50688  0.19594  0.06724  Biso   1.000  H
  H429     1.0000 0.54227  0.20575  0.92194  Biso   1.000  H
  H430     1.0000 0.52488  0.19405  0.87375  Biso   1.000  H
  H431     1.0000 0.56855  0.18442  0.84816  Biso   1.000  H
  H432     1.0000 0.58386  0.19365  0.89022  Biso   1.000  H
  O145     1.0000 0.16792  0.55206  0.01187  Biso   1.000  O
  C433     1.0000 0.16253  0.57306  0.93195  Biso   1.000  C
  C434     1.0000 0.16104  0.58186  0.96384  Biso   1.000  C
  O146     1.0000 0.16613  0.54207  0.98281  Biso   1.000  O
  N289     1.0000 0.15354  0.57106  0.82427  Biso   1.000  N
  N290     1.0000 0.16154  0.61248  0.97215  Biso   1.000  N
  N291     1.0000 0.16261  0.58745  0.85438  Biso   1.000  N
  N292     1.0000 0.16414  0.62298  0.00517  Biso   1.000  N
  C435     1.0000 0.14954  0.53248  0.75484  Biso   1.000  C
  C436     1.0000 0.15564  0.61415  0.78350  Biso   1.000  C
  C437     1.0000 0.16484  0.55308  0.78124  Biso   1.000  C
  C438     1.0000 0.17932  0.62905  0.08169  Biso   1.000  C
  C439     1.0000 0.16542  0.64536  0.88707  Biso   1.000  C
  C440     1.0000 0.16533  0.65688  0.92670  Biso   1.000  C
  C441     1.0000 0.16374  0.63148  0.82023  Biso   1.000  C
  C442     1.0000 0.17024  0.63417  0.11794  Biso   1.000  C
  N293     1.0000 0.10125  0.49618  0.72247  Biso   1.000  N
  H433     1.0000 0.16465  0.51588  0.79270  Biso   1.000  H
  H434     1.0000 0.16882  0.54745  0.68889  Biso   1.000  H
  H435     1.0000 0.18051  0.53735  0.82015  Biso   1.000  H
  H436     1.0000 0.18651  0.57176  0.72086  Biso   1.000  H
  N294     1.0000 0.11054  0.60758  0.73967  Biso   1.000  N
  H437     1.0000 0.18275  0.63087  0.73038  Biso   1.000  H
  H438     1.0000 0.19321  0.65205  0.77567  Biso   1.000  H
  N295     1.0000 0.12013  0.62237  0.76405  Biso   1.000  N
  N296     1.0000 0.11975  0.51468  0.73458  Biso   1.000  N
  N297     1.0000 0.14313  0.62545  0.15701  Biso   1.000  N
  H439     1.0000 0.20571  0.66346  0.07806  Biso   1.000  H
  H440     1.0000 0.19362  0.60976  0.10978  Biso   1.000  H
  H441     1.0000 0.19403  0.66916  0.12625  Biso   1.000  H
  H442     1.0000 0.18443  0.61586  0.15184  Biso   1.000  H
  N298     1.0000 0.12835  0.65786  0.87996  Biso   1.000  N
  H443     1.0000 0.19845  0.67497  0.88545  Biso   1.000  H
  N299     1.0000 0.12383  0.66255  0.91653  Biso   1.000  N
  H444     1.0000 0.19593  0.68907  0.93276  Biso   1.000  H
  N300     1.0000 0.12695  0.62367  0.17695  Biso   1.000  N
  C443     1.0000 0.07683  0.45208  0.77454  Biso   1.000  C
  C444     1.0000 0.07465  0.49938  0.63416  Biso   1.000  C
  C445     1.0000 0.09564  0.47017  0.78544  Biso   1.000  C
  C446     1.0000 0.09365  0.51867  0.64627  Biso   1.000  C
  N301     1.0000 0.05383  0.44187  0.72917  Biso   1.000  N
  C447     1.0000 0.08873  0.58567  0.63917  Biso   1.000  C
  C448     1.0000 0.09692  0.63737  0.79747  Biso   1.000  C
  C449     1.0000 0.09665  0.64097  0.82887  Biso   1.000  C
  C450     1.0000 0.10294  0.60296  0.65959  Biso   1.000  C
  C451     1.0000 0.12355  0.59188  0.23507  Biso   1.000  C
  C452     1.0000 0.12742  0.66055  0.15798  Biso   1.000  C
  C453     1.0000 0.10703  0.58767  0.24976  Biso   1.000  C
  C454     1.0000 0.12252  0.68616  0.96489  Biso   1.000  C
  C455     1.0000 0.10644  0.68478  0.99023  Biso   1.000  C
  N302     1.0000 0.08802  0.59817  0.28770  Biso   1.000  N
  C456     1.0000 0.10713  0.65557  0.17937  Biso   1.000  C
  O147     1.0000 0.09333  0.43925  0.84808  Biso   1.000  O
  N303     1.0000 0.03164  0.42657  0.72917  Biso   1.000  N
  O148     1.0000 0.11292  0.45666  0.85736  Biso   1.000  O
  N304     1.0000 0.05792  0.53375  0.64336  Biso   1.000  N
  C457     1.0000 0.02712  0.44975  0.63247  Biso   1.000  C
  H445     1.0000 0.09295  0.50458  0.56531  Biso   1.000  H
  H446     1.0000 0.11362  0.52685  0.57919  Biso   1.000  H
  N305     1.0000 0.07452  0.55115  0.65806  Biso   1.000  N
  C458     1.0000 0.04922  0.46777  0.63658  Biso   1.000  C
  C459     1.0000 0.02056  0.38893  0.75000  Biso   1.000  C
  H447     1.0000 0.11482  0.59355  0.58573  Biso   1.000  H
  H448     1.0000 0.06932  0.60017  0.61317  Biso   1.000  H
  H449     1.0000 0.13104  0.61346  0.61059  Biso   1.000  H
  H450     1.0000 0.08296  0.61648  0.63150  Biso   1.000  H
  O149     1.0000 0.06052  0.63995  0.77414  Biso   1.000  O
  O150     1.0000 0.06284  0.64565  0.79416  Biso   1.000  O
  O151     1.0000 0.13462  0.56086  0.26114  Biso   1.000  O
  O152     1.0000 0.12024  0.55777  0.27034  Biso   1.000  O
  N306     1.0000 0.09982  0.65895  0.06248  Biso   1.000  N
  H451     1.0000 0.15464  0.69408  0.17339  Biso   1.000  H
  C460     1.0000 0.08841  0.64155  0.24790  Biso   1.000  C
  H452     1.0000 0.13193  0.68925  0.20116  Biso   1.000  H
  N307     1.0000 0.08024  0.65528  0.08193  Biso   1.000  N
  N308     1.0000 0.06825  0.58927  0.29803  Biso   1.000  N
  H453     1.0000 0.13452  0.71527  0.01703  Biso   1.000  H
  H454     1.0000 0.15495  0.71378  0.98353  Biso   1.000  H
  H455     1.0000 0.10263  0.69975  0.93655  Biso   1.000  H
  H456     1.0000 0.08485  0.69358  0.95076  Biso   1.000  H
  C461     1.0000 0.06172  0.57186  0.38093  Biso   1.000  C
  C462     1.0000 0.06595  0.63148  0.26259  Biso   1.000  C
  N309     1.0000 0.04503  0.63138  0.19204  Biso   1.000  N
  C463     1.0000 0.99697  0.37604  0.75355  Biso   1.000  C
  C464     1.0000 0.00884  0.51217  0.63973  Biso   1.000  C
  N310     1.0000 0.00962  0.47787  0.64345  Biso   1.000  N
  N311     1.0000 0.98942  0.46225  0.63909  Biso   1.000  N
  H457     1.0000 0.02432  0.43075  0.56587  Biso   1.000  H
  H458     1.0000 0.04894  0.45186  0.56676  Biso   1.000  H
  C465     1.0000 0.02593  0.52747  0.64336  Biso   1.000  C
  H459     1.0000 0.98728  0.35754  0.68502  Biso   1.000  H
  N312     1.0000 0.97666  0.37992  0.79900  Biso   1.000  N
  H460     1.0000 0.01348  0.36274  0.79835  Biso   1.000  H
  H461     1.0000 0.03706  0.37662  0.79755  Biso   1.000  H
  H462     1.0000 0.01318  0.37095  0.68082  Biso   1.000  H
  C466     1.0000 0.05244  0.64286  0.08654  Biso   1.000  C
  H463     1.0000 0.09664  0.66618  0.30626  Biso   1.000  H
  H464     1.0000 0.07062  0.65387  0.32394  Biso   1.000  H
  C467     1.0000 0.03243  0.63537  0.09743  Biso   1.000  C
  C468     1.0000 0.03884  0.55726  0.38319  Biso   1.000  C
  N313     1.0000 0.01058  0.53775  0.36091  Biso   1.000  N
  H465     1.0000 0.06435  0.59537  0.43679  Biso   1.000  H
  H466     1.0000 0.07702  0.55377  0.41015  Biso   1.000  H
  H467     1.0000 0.03772  0.57735  0.44285  Biso   1.000  H
  H468     1.0000 0.05524  0.53996  0.41088  Biso   1.000  H
  N314     1.0000 0.02334  0.62008  0.20100  Biso   1.000  N
  C469     1.0000 0.00303  0.62396  0.24645  Biso   1.000  C
  N315     1.0000 0.95497  0.36862  0.80796  Biso   1.000  N
  O153     1.0000 0.98583  0.53317  0.62544  Biso   1.000  O
  O154     1.0000 0.99842  0.54458  0.64167  Biso   1.000  O
  C470     1.0000 0.96116  0.44274  0.61681  Biso   1.000  C
  C471     1.0000 0.93828  0.42814  0.61907  Biso   1.000  C
  C472     1.0000 0.94756  0.35714  0.91346  Biso   1.000  C
  C473     1.0000 0.93407  0.36855  0.73741  Biso   1.000  C
  C474     1.0000 0.96757  0.36463  0.90257  Biso   1.000  C
  O155     1.0000 0.02144  0.63857  0.02123  Biso   1.000  O
  O156     1.0000 0.00263  0.63127  0.02938  Biso   1.000  O
  N316     1.0000 0.99038  0.52213  0.35655  Biso   1.000  N
  C475     1.0000 0.97288  0.55025  0.36753  Biso   1.000  C
  C476     1.0000 0.99116  0.48783  0.36027  Biso   1.000  C
  C477     1.0000 0.97944  0.61107  0.25000  Biso   1.000  C
  H469     1.0000 0.01272  0.64246  0.31498  Biso   1.000  H
  N317     1.0000 0.96836  0.57343  0.27083  Biso   1.000  N
  H470     1.0000 0.98652  0.63726  0.20165  Biso   1.000  H
  H471     1.0000 0.98682  0.62905  0.31918  Biso   1.000  H
  C478     1.0000 0.91159  0.35845  0.75210  Biso   1.000  C
  C479     1.0000 0.89287  0.34443  0.82063  Biso   1.000  C
  N318     1.0000 0.91976  0.34472  0.91807  Biso   1.000  N
  H472     1.0000 0.93565  0.40463  0.56321  Biso   1.000  H
  H473     1.0000 0.96228  0.42265  0.55715  Biso   1.000  H
  H474     1.0000 0.94476  0.46003  0.58912  Biso   1.000  H
  N319     1.0000 0.93175  0.41073  0.70197  Biso   1.000  N
  N320     1.0000 0.91198  0.40183  0.71230  Biso   1.000  N
  H475     1.0000 0.92298  0.44623  0.58985  Biso   1.000  H
  O157     1.0000 0.97856  0.36143  0.97877  Biso   1.000  O
  N321     1.0000 0.90018  0.34105  0.93752  Biso   1.000  N
  O158     1.0000 0.99737  0.36873  0.97062  Biso   1.000  O
  H476     1.0000 0.90336  0.33382  0.69374  Biso   1.000  H
  H477     1.0000 0.92938  0.34613  0.67606  Biso   1.000  H
  N322     1.0000 0.94208  0.46625  0.35664  Biso   1.000  N
  C480     1.0000 0.95078  0.53223  0.36342  Biso   1.000  C
  C481     1.0000 0.97407  0.47253  0.35664  Biso   1.000  C
  H478     1.0000 0.97568  0.56925  0.43413  Biso   1.000  H
  C482     1.0000 0.92534  0.50062  0.36584  Biso   1.000  C
  H479     1.0000 0.95106  0.54814  0.43324  Biso   1.000  H
  N323     1.0000 0.94617  0.55813  0.27083  Biso   1.000  N
  O159     1.0000 0.01417  0.46683  0.37456  Biso   1.000  O
  O160     1.0000 0.00158  0.45542  0.35833  Biso   1.000  O
  H480     1.0000 0.96294  0.62338  0.20245  Biso   1.000  H
  C483     1.0000 0.92316  0.54792  0.22546  Biso   1.000  C
  C484     1.0000 0.87258  0.33945  0.84202  Biso   1.000  C
  H481     1.0000 0.86807  0.31075  0.79884  Biso   1.000  H
  N324     1.0000 0.87305  0.37633  0.82305  Biso   1.000  N
  C485     1.0000 0.89356  0.31522  0.00977  Biso   1.000  C
  C486     1.0000 0.89297  0.41233  0.75024  Biso   1.000  C
  C487     1.0000 0.87645  0.40812  0.76493  Biso   1.000  C
  C488     1.0000 0.87748  0.31383  0.03511  Biso   1.000  C
  C489     1.0000 0.91127  0.41433  0.36083  Biso   1.000  C
  C490     1.0000 0.90635  0.48133  0.35373  Biso   1.000  C
  N325     1.0000 0.92548  0.44884  0.34194  Biso   1.000  N
  N326     1.0000 0.89877  0.50385  0.27753  Biso   1.000  N
  H482     1.0000 0.90705  0.49542  0.43469  Biso   1.000  H
  H483     1.0000 0.88638  0.47315  0.42081  Biso   1.000  H
  C491     1.0000 0.90436  0.52983  0.21456  Biso   1.000  C
  O161     1.0000 0.90667  0.56075  0.15192  Biso   1.000  O
  O162     1.0000 0.88708  0.54334  0.14264  Biso   1.000  O
  N327     1.0000 0.85687  0.37455  0.84299  Biso   1.000  N
  H484     1.0000 0.84538  0.30595  0.82661  Biso   1.000  H
  C492     1.0000 0.82976  0.36583  0.88206  Biso   1.000  C
  H485     1.0000 0.86548  0.28473  0.98297  Biso   1.000  H
  H486     1.0000 0.89737  0.30025  0.06345  Biso   1.000  H
  H487     1.0000 0.91515  0.30642  0.04924  Biso   1.000  H
  N328     1.0000 0.87617  0.33745  0.08347  Biso   1.000  N
  O163     1.0000 0.86538  0.43914  0.73886  Biso   1.000  O
  O164     1.0000 0.87976  0.44223  0.72966  Biso   1.000  O
  N329     1.0000 0.87165  0.34214  0.12004  Biso   1.000  N
  H488     1.0000 0.84505  0.28622  0.01647  Biso   1.000  H
  N330     1.0000 0.88946  0.39242  0.26033  Biso   1.000  N
  H489     1.0000 0.88518  0.40644  0.41427  Biso   1.000  H
  H490     1.0000 0.93068  0.39983  0.38683  Biso   1.000  H
  H491     1.0000 0.86896  0.38654  0.38941  Biso   1.000  H
  H492     1.0000 0.91704  0.38352  0.36850  Biso   1.000  H
  N331     1.0000 0.88025  0.48532  0.26542  Biso   1.000  N
  C493     1.0000 0.89706  0.39704  0.34041  Biso   1.000  C
  C494     1.0000 0.85046  0.46752  0.24516  Biso   1.000  C
  C495     1.0000 0.82068  0.37095  0.91831  Biso   1.000  C
  H493     1.0000 0.79429  0.33654  0.92194  Biso   1.000  H
  H494     1.0000 0.80597  0.33084  0.87375  Biso   1.000  H
  H495     1.0000 0.81557  0.38414  0.84816  Biso   1.000  H
  N332     1.0000 0.83586  0.37702  0.99483  Biso   1.000  N
  C496     1.0000 0.83458  0.35464  0.11293  Biso   1.000  C
  C497     1.0000 0.90308  0.36263  0.20253  Biso   1.000  C
  C498     1.0000 0.90335  0.35903  0.17113  Biso   1.000  C
  C499     1.0000 0.83467  0.34312  0.07330  Biso   1.000  C
  C500     1.0000 0.84436  0.38584  0.21650  Biso   1.000  C
  C501     1.0000 0.83516  0.44692  0.21876  Biso   1.000  C
  N333     1.0000 0.87987  0.37763  0.23595  Biso   1.000  N
  N334     1.0000 0.84646  0.42893  0.17573  Biso   1.000  N
  H496     1.0000 0.83535  0.48412  0.20730  Biso   1.000  H
  H497     1.0000 0.83118  0.45255  0.31111  Biso   1.000  H
  H498     1.0000 0.81949  0.46265  0.17985  Biso   1.000  H
  H499     1.0000 0.81349  0.42824  0.27914  Biso   1.000  H
  H500     1.0000 0.80638  0.39024  0.89022  Biso   1.000  H
  N335     1.0000 0.83846  0.38752  0.02785  Biso   1.000  N
  C502     1.0000 0.83896  0.41814  0.03616  Biso   1.000  C
  H501     1.0000 0.80155  0.32503  0.11455  Biso   1.000  H
  O165     1.0000 0.93948  0.36005  0.22586  Biso   1.000  O
  O166     1.0000 0.93716  0.35435  0.20584  Biso   1.000  O
  C503     1.0000 0.83628  0.36855  0.17977  Biso   1.000  C
  H502     1.0000 0.80407  0.31093  0.06724  Biso   1.000  H
  H503     1.0000 0.81725  0.36913  0.26962  Biso   1.000  H
  H504     1.0000 0.80679  0.34795  0.22433  Biso   1.000  H
  N336     1.0000 0.83739  0.41255  0.14562  Biso   1.000  N
  C504     1.0000 0.83747  0.42694  0.06805  Biso   1.000  C
  O167     1.0000 0.83208  0.44794  0.98813  Biso   1.000  O
  O168     1.0000 0.83387  0.45793  0.01719  Biso   1.000  O
  C505     1.0000 0.29572  0.78306  0.25170  Biso   1.000  C
  N337     1.0000 0.27914  0.78426  0.36116  Biso   1.000  N
  N338     1.0000 0.28965  0.79218  0.32814  Biso   1.000  N
  N339     1.0000 0.29213  0.81565  0.17638  Biso   1.000  N
  H505     1.0000 0.33011  0.79105  0.25525  Biso   1.000  H
  H506     1.0000 0.27643  0.74945  0.22360  Biso   1.000  H
  H507     1.0000 0.33583  0.80846  0.20706  Biso   1.000  H
  H508     1.0000 0.28254  0.76475  0.18147  Biso   1.000  H
  C506     1.0000 0.23972  0.74386  0.40136  Biso   1.000  C
  C507     1.0000 0.24853  0.75418  0.36947  Biso   1.000  C
  N340     1.0000 0.25414  0.75817  0.47893  Biso   1.000  N
  C508     1.0000 0.31201  0.81325  0.44624  Biso   1.000  C
  C509     1.0000 0.32355  0.82488  0.40668  Biso   1.000  C
  C510     1.0000 0.30084  0.79727  0.21537  Biso   1.000  C
  C511     1.0000 0.25852  0.80166  0.09824  Biso   1.000  C
  C512     1.0000 0.32724  0.86648  0.17533  Biso   1.000  C
  C513     1.0000 0.25432  0.81398  0.08355  Biso   1.000  C
  O169     1.0000 0.20874  0.70927  0.35058  Biso   1.000  O
  N341     1.0000 0.23775  0.75087  0.50904  Biso   1.000  N
  O170     1.0000 0.21876  0.71748  0.32144  Biso   1.000  O
  C514     1.0000 0.28083  0.79185  0.54989  Biso   1.000  C
  C515     1.0000 0.21972  0.72155  0.55207  Biso   1.000  C
  C516     1.0000 0.29816  0.80108  0.51308  Biso   1.000  C
  N342     1.0000 0.32456  0.86288  0.45334  Biso   1.000  N
  H509     1.0000 0.34163  0.80987  0.44785  Biso   1.000  H
  N343     1.0000 0.32925  0.87207  0.41677  Biso   1.000  N
  H510     1.0000 0.35575  0.82648  0.40055  Biso   1.000  H
  N344     1.0000 0.29034  0.83007  0.15636  Biso   1.000  N
  N345     1.0000 0.26483  0.84348  0.04569  Biso   1.000  N
  O171     1.0000 0.22752  0.75955  0.07217  Biso   1.000  O
  O172     1.0000 0.22442  0.77085  0.06296  Biso   1.000  O
  N346     1.0000 0.32563  0.89246  0.27083  Biso   1.000  N
  N347     1.0000 0.32194  0.90837  0.25137  Biso   1.000  N
  H511     1.0000 0.36074  0.87276  0.15999  Biso   1.000  H
  C517     1.0000 0.30822  0.88646  0.08549  Biso   1.000  C
  H512     1.0000 0.35595  0.89068  0.13214  Biso   1.000  H
  N348     1.0000 0.25593  0.85438  0.03528  Biso   1.000  N
  C518     1.0000 0.19915  0.71628  0.57846  Biso   1.000  C
  N349     1.0000 0.27422  0.83037  0.59364  Biso   1.000  N
  H513     1.0000 0.29753  0.78146  0.60300  Biso   1.000  H
  H514     1.0000 0.31875  0.79218  0.55764  Biso   1.000  H
  N350     1.0000 0.28903  0.83556  0.56926  Biso   1.000  N
  H515     1.0000 0.18254  0.68457  0.54068  Biso   1.000  H
  H516     1.0000 0.21414  0.71196  0.64449  Biso   1.000  H
  H517     1.0000 0.20403  0.69016  0.51316  Biso   1.000  H
  H518     1.0000 0.23843  0.71857  0.61245  Biso   1.000  H
  N351     1.0000 0.18133  0.72827  0.59881  Biso   1.000  N
  C519     1.0000 0.30405  0.87378  0.53584  Biso   1.000  C
  C520     1.0000 0.30763  0.87767  0.50444  Biso   1.000  C
  C521     1.0000 0.35283  0.89696  0.36850  Biso   1.000  C
  C522     1.0000 0.35144  0.91168  0.34307  Biso   1.000  C
  C523     1.0000 0.32224  0.88178  0.15394  Biso   1.000  C
  C524     1.0000 0.29811  0.89885  0.07079  Biso   1.000  C
  C525     1.0000 0.23856  0.84348  0.95237  Biso   1.000  C
  C526     1.0000 0.30954  0.92377  0.24677  Biso   1.000  C
  N352     1.0000 0.29805  0.91967  0.14127  Biso   1.000  N
  C527     1.0000 0.30204  0.93627  0.23587  Biso   1.000  C
  H519     1.0000 0.33285  0.90288  0.02704  Biso   1.000  H
  H520     1.0000 0.32054  0.91658  0.00936  Biso   1.000  H
  C528     1.0000 0.22394  0.85177  0.95019  Biso   1.000  C
  N353     1.0000 0.16283  0.72827  0.61083  Biso   1.000  N
  C529     1.0000 0.25233  0.83026  0.69414  Biso   1.000  C
  C530     1.0000 0.26963  0.83338  0.67380  Biso   1.000  C
  C531     1.0000 0.13682  0.70785  0.54787  Biso   1.000  C
  C532     1.0000 0.18533  0.75836  0.68704  Biso   1.000  C
  O173     1.0000 0.30664  0.91277  0.55917  Biso   1.000  O
  O174     1.0000 0.31235  0.91618  0.53915  Biso   1.000  O
  H521     1.0000 0.38045  0.89217  0.34977  Biso   1.000  H
  H522     1.0000 0.36643  0.93046  0.39675  Biso   1.000  H
  H523     1.0000 0.38193  0.91407  0.31627  Biso   1.000  H
  H524     1.0000 0.36024  0.94205  0.38255  Biso   1.000  H
  N354     1.0000 0.28672  0.93006  0.13239  Biso   1.000  N
  N355     1.0000 0.20439  0.86048  0.97239  Biso   1.000  N
  H525     1.0000 0.26203  0.86437  0.89659  Biso   1.000  H
  H526     1.0000 0.22043  0.81006  0.92315  Biso   1.000  H
  H527     1.0000 0.24406  0.87298  0.89046  Biso   1.000  H
  H528     1.0000 0.20661  0.81805  0.92251  Biso   1.000  H
  O175     1.0000 0.30524  0.95048  0.31208  Biso   1.000  O
  O176     1.0000 0.29792  0.96196  0.30400  Biso   1.000  O
  C533     1.0000 0.29064  0.95426  0.08686  Biso   1.000  C
  N356     1.0000 0.18880  0.86510  0.97683  Biso   1.000  N
  C534     1.0000 0.11875  0.70858  0.55877  Biso   1.000  C
  C535     1.0000 0.16602  0.75807  0.69914  Biso   1.000  C
  N357     1.0000 0.10853  0.72137  0.60413  Biso   1.000  N
  N358     1.0000 0.20045  0.80918  0.68994  Biso   1.000  N
  N359     1.0000 0.21784  0.80998  0.67525  Biso   1.000  N
  H529     1.0000 0.26022  0.81205  0.74758  Biso   1.000  H
  H530     1.0000 0.26683  0.86415  0.72013  Biso   1.000  H
  H531     1.0000 0.28013  0.81576  0.72280  Biso   1.000  H
  H532     1.0000 0.28313  0.86688  0.70189  Biso   1.000  H
  O177     1.0000 0.10594  0.67926  0.48523  Biso   1.000  O
  O178     1.0000 0.12336  0.67708  0.47594  Biso   1.000  O
  H533     1.0000 0.17123  0.74495  0.76808  Biso   1.000  H
  H534     1.0000 0.19354  0.74658  0.75420  Biso   1.000  H
  C536     1.0000 0.13444  0.75185  0.69680  Biso   1.000  C
  C537     1.0000 0.27775  0.96498  0.08339  Biso   1.000  C
  C538     1.0000 0.21691  0.91070  0.96577  Biso   1.000  C
  C539     1.0000 0.15451  0.83000  0.97312  Biso   1.000  C
  N360     1.0000 0.24012  0.93842  0.06248  Biso   1.000  N
  H535     1.0000 0.30393  0.98405  0.13166  Biso   1.000  H
  H536     1.0000 0.30913  0.96305  0.01840  Biso   1.000  H
  H537     1.0000 0.29573  0.97558  0.01413  Biso   1.000  H
  N361     1.0000 0.13289  0.85751  0.97667  Biso   1.000  N
  C540     1.0000 0.19889  0.91480  0.96989  Biso   1.000  C
  C541     1.0000 0.13919  0.83178  0.97667  Biso   1.000  C
  N362     1.0000 0.09323  0.72827  0.60413  Biso   1.000  N
  C542     1.0000 0.11642  0.75596  0.70084  Biso   1.000  C
  C543     1.0000 0.05560  0.70171  0.58331  Biso   1.000  C
  C544     1.0000 0.17882  0.83665  0.69357  Biso   1.000  C
  N363     1.0000 0.14453  0.80155  0.68986  Biso   1.000  N
  C545     1.0000 0.19413  0.83487  0.68994  Biso   1.000  C
  H538     1.0000 0.11853  0.73627  0.76655  Biso   1.000  H
  H539     1.0000 0.29003  0.99375  0.13085  Biso   1.000  H
  N364     1.0000 0.22480  0.94528  0.06248  Biso   1.000  N
  H540     1.0000 0.23590  0.92690  0.89918  Biso   1.000  H
  C546     1.0000 0.16731  0.90859  0.96747  Biso   1.000  C
  H541     1.0000 0.21480  0.93039  0.90006  Biso   1.000  H
  O179     1.0000 0.13352  0.78600  0.95883  Biso   1.000  O
  O180     1.0000 0.12210  0.78720  0.97498  Biso   1.000  O
  C547     1.0000 0.21460  0.95811  0.10793  Biso   1.000  C
  C548     1.0000 0.08099  0.83640  0.97247  Biso   1.000  C
  C549     1.0000 0.14800  0.90830  0.97958  Biso   1.000  C
  N365     1.0000 0.11550  0.85671  0.99136  Biso   1.000  N
  C550     1.0000 0.04269  0.71240  0.57984  Biso   1.000  C
  N366     1.0000 0.12894  0.80617  0.69430  Biso   1.000  N
  H542     1.0000 0.09743  0.73975  0.76744  Biso   1.000  H
  H543     1.0000 0.02940  0.68260  0.53503  Biso   1.000  H
  H544     1.0000 0.02419  0.70360  0.64829  Biso   1.000  H
  H545     1.0000 0.04330  0.67290  0.53576  Biso   1.000  H
  H546     1.0000 0.03761  0.69111  0.65249  Biso   1.000  H
  N367     1.0000 0.04660  0.73659  0.53431  Biso   1.000  N
  O181     1.0000 0.19981  0.88065  0.70786  Biso   1.000  O
  O182     1.0000 0.21123  0.87945  0.69164  Biso   1.000  O
  C551     1.0000 0.10938  0.81489  0.71650  Biso   1.000  C
  N368     1.0000 0.17052  0.93842  0.05578  Biso   1.000  N
  C552     1.0000 0.19650  0.95880  0.11882  Biso   1.000  C
  H547     1.0000 0.16210  0.92170  0.89861  Biso   1.000  H
  H548     1.0000 0.13981  0.92011  0.91250  Biso   1.000  H
  O183     1.0000 0.22738  0.98739  0.18139  Biso   1.000  O
  O184     1.0000 0.20999  0.98961  0.19067  Biso   1.000  O
  N369     1.0000 0.05910  0.83629  0.07297  Biso   1.000  N
  H549     1.0000 0.07311  0.85460  0.91912  Biso   1.000  H
  H550     1.0000 0.06650  0.80250  0.94648  Biso   1.000  H
  H551     1.0000 0.05319  0.85089  0.94390  Biso   1.000  H
  H552     1.0000 0.05021  0.79981  0.96480  Biso   1.000  H
  N370     1.0000 0.15202  0.93842  0.06789  Biso   1.000  N
  C553     1.0000 0.06372  0.83331  0.99290  Biso   1.000  C
  N371     1.0000 0.03528  0.74698  0.52543  Biso   1.000  N
  C554     1.0000 0.09479  0.82321  0.71432  Biso   1.000  C
  C555     1.0000 0.02381  0.74291  0.41992  Biso   1.000  C
  C556     1.0000 0.03521  0.76780  0.59590  Biso   1.000  C
  C557     1.0000 0.03131  0.73042  0.43082  Biso   1.000  C
  H553     1.0000 0.07132  0.80232  0.77010  Biso   1.000  H
  H554     1.0000 0.08929  0.79371  0.77624  Biso   1.000  H
  H555     1.0000 0.12671  0.84860  0.74419  Biso   1.000  H
  N372     1.0000 0.07741  0.81231  0.63142  Biso   1.000  N
  C558     1.0000 0.13419  0.95041  0.08823  Biso   1.000  C
  C559     1.0000 0.02930  0.79291  0.13077  Biso   1.000  C
  C560     1.0000 0.02570  0.78898  0.16217  Biso   1.000  C
  C561     1.0000 0.05250  0.87480  0.11681  Biso   1.000  C
  C562     1.0000 0.11361  0.94510  0.11463  Biso   1.000  C
  N373     1.0000 0.04430  0.83109  0.09743  Biso   1.000  N
  C563     1.0000 0.02511  0.78019  0.58121  Biso   1.000  C
  C564     1.0000 0.01111  0.78491  0.51267  Biso   1.000  C
  N374     1.0000 0.01139  0.75828  0.41532  Biso   1.000  N
  N375     1.0000 0.06852  0.82321  0.62100  Biso   1.000  N
  H556     1.0000 0.11290  0.85660  0.74346  Biso   1.000  H
  O185     1.0000 0.02811  0.71621  0.35462  Biso   1.000  O
  N376     1.0000 0.00770  0.77420  0.39579  Biso   1.000  N
  O186     1.0000 0.03541  0.70469  0.36269  Biso   1.000  O
  H557     1.0000 0.00049  0.76381  0.63957  Biso   1.000  H
  H558     1.0000 0.01281  0.75011  0.65733  Biso   1.000  H
  C565     1.0000 0.07902  0.85271  0.58306  Biso   1.000  C
  N377     1.0000 0.09558  0.91578  0.15757  Biso   1.000  N
  H559     1.0000 0.15079  0.98209  0.12601  Biso   1.000  H
  H560     1.0000 0.11919  0.95469  0.02220  Biso   1.000  H
  H561     1.0000 0.12930  0.97649  0.15354  Biso   1.000  H
  H562     1.0000 0.09491  0.94812  0.05417  Biso   1.000  H
  N378     1.0000 0.00410  0.79462  0.24992  Biso   1.000  N
  N379     1.0000 0.00879  0.80381  0.21327  Biso   1.000  N
  O187     1.0000 0.02668  0.75389  0.10752  Biso   1.000  O
  O188     1.0000 0.02100  0.75051  0.12746  Biso   1.000  O
  C566     1.0000 0.02131  0.85340  0.22037  Biso   1.000  C
  H563     1.0000 0.03579  0.88519  0.06369  Biso   1.000  H
  H564     1.0000 0.01459  0.87451  0.10898  Biso   1.000  H
  N380     1.0000 0.07920  0.90852  0.18768  Biso   1.000  N
  C567     1.0000 0.03519  0.86561  0.15362  Biso   1.000  C
  C568     1.0000 0.00611  0.80021  0.49128  Biso   1.000  C
  N381     1.0000 0.04300  0.83661  0.51033  Biso   1.000  N
  H565     1.0000 0.97740  0.77601  0.53447  Biso   1.000  H
  C569     1.0000 0.98191  0.75501  0.32362  Biso   1.000  C
  C570     1.0000 0.07481  0.86499  0.56837  Biso   1.000  C
  C571     1.0000 0.98050  0.76969  0.29819  Biso   1.000  C
  N382     1.0000 0.04120  0.85100  0.49031  Biso   1.000  N
  O189     1.0000 0.10581  0.90710  0.59453  Biso   1.000  O
  O190     1.0000 0.10890  0.89580  0.60373  Biso   1.000  O
  C572     1.0000 0.08482  0.91251  0.29722  Biso   1.000  C
  C573     1.0000 0.09361  0.92279  0.26534  Biso   1.000  C
  C574     1.0000 0.00979  0.84181  0.26001  Biso   1.000  C
  N383     1.0000 0.04370  0.87451  0.33847  Biso   1.000  N
  N384     1.0000 0.05418  0.88239  0.30554  Biso   1.000  N
  H566     1.0000 0.99171  0.85682  0.21876  Biso   1.000  H
  H567     1.0000 0.97258  0.79389  0.50670  Biso   1.000  H
  C575     1.0000 0.03248  0.86939  0.45132  Biso   1.000  C
  H568     1.0000 0.96689  0.73619  0.26994  Biso   1.000  H
  H569     1.0000 0.95141  0.75262  0.35042  Biso   1.000  H
  H570     1.0000 0.97309  0.72460  0.28407  Biso   1.000  H
  H571     1.0000 0.95288  0.77449  0.31692  Biso   1.000  H
  C576     1.0000 0.03760  0.88359  0.41500  Biso   1.000  C
  O191     1.0000 0.12459  0.95738  0.31611  Biso   1.000  O
  O192     1.0000 0.11459  0.94921  0.34517  Biso   1.000  O
  H572     1.0000 0.97759  0.84021  0.26606  Biso   1.000  H
  H573     1.0000 0.00321  0.87560  0.41137  Biso   1.000  H
  H574     1.0000 0.05079  0.90190  0.48523  Biso   1.000  H
  H575     1.0000 0.99750  0.85820  0.45964  Biso   1.000  H
  H576     1.0000 0.05689  0.91720  0.44309  Biso   1.000  H
  C577     1.0000 0.78028  0.27845  0.44793  Biso   1.000  C
  N385     1.0000 0.74586  0.24183  0.52107  Biso   1.000  N
  N386     1.0000 0.76225  0.24913  0.49096  Biso   1.000  N
  H577     1.0000 0.81746  0.31543  0.45932  Biso   1.000  H
  H578     1.0000 0.78586  0.28804  0.35551  Biso   1.000  H
  H579     1.0000 0.79597  0.30984  0.48684  Biso   1.000  H
  H580     1.0000 0.76157  0.28143  0.38755  Biso   1.000  H
  N387     1.0000 0.81867  0.27173  0.40119  Biso   1.000  N
  N388     1.0000 0.72086  0.21574  0.63884  Biso   1.000  N
  C578     1.0000 0.70184  0.19892  0.48692  Biso   1.000  C
  C579     1.0000 0.76028  0.25614  0.59864  Biso   1.000  C
  C580     1.0000 0.75147  0.24582  0.63053  Biso   1.000  C
  C581     1.0000 0.71917  0.20815  0.45011  Biso   1.000  C
  C582     1.0000 0.80085  0.28372  0.42154  Biso   1.000  C
  C583     1.0000 0.86318  0.29214  0.45213  Biso   1.000  C
  C584     1.0000 0.81467  0.24164  0.31296  Biso   1.000  C
  C585     1.0000 0.67645  0.17512  0.59332  Biso   1.000  C
  C586     1.0000 0.68799  0.18675  0.55376  Biso   1.000  C
  C587     1.0000 0.70428  0.21694  0.74830  Biso   1.000  C
  H581     1.0000 0.70247  0.21854  0.39700  Biso   1.000  H
  H582     1.0000 0.68125  0.20782  0.44236  Biso   1.000  H
  N389     1.0000 0.71097  0.16444  0.43074  Biso   1.000  N
  O193     1.0000 0.79126  0.29073  0.64942  Biso   1.000  O
  O194     1.0000 0.78124  0.28252  0.67856  Biso   1.000  O
  N390     1.0000 0.71035  0.20782  0.67186  Biso   1.000  N
  N391     1.0000 0.72578  0.16963  0.40636  Biso   1.000  N
  N392     1.0000 0.83717  0.27173  0.38917  Biso   1.000  N
  N393     1.0000 0.89147  0.27863  0.39587  Biso   1.000  N
  O195     1.0000 0.89405  0.32074  0.51477  Biso   1.000  O
  O196     1.0000 0.87664  0.32292  0.52406  Biso   1.000  O
  N394     1.0000 0.78216  0.19002  0.32475  Biso   1.000  N
  N395     1.0000 0.79957  0.19085  0.31006  Biso   1.000  N
  H583     1.0000 0.82877  0.25505  0.23192  Biso   1.000  H
  C588     1.0000 0.86556  0.24815  0.30320  Biso   1.000  C
  H584     1.0000 0.80648  0.25345  0.24580  Biso   1.000  H
  N396     1.0000 0.67544  0.13712  0.54666  Biso   1.000  N
  H585     1.0000 0.65837  0.19012  0.55215  Biso   1.000  H
  H586     1.0000 0.64425  0.17352  0.59945  Biso   1.000  H
  N397     1.0000 0.67075  0.12792  0.58323  Biso   1.000  N
  N398     1.0000 0.70787  0.18435  0.82362  Biso   1.000  N
  H587     1.0000 0.66989  0.20894  0.74475  Biso   1.000  H
  H588     1.0000 0.72357  0.25054  0.77640  Biso   1.000  H
  H589     1.0000 0.66417  0.19154  0.79294  Biso   1.000  H
  H590     1.0000 0.71746  0.23525  0.81853  Biso   1.000  H
  C589     1.0000 0.69595  0.12622  0.46416  Biso   1.000  C
  C590     1.0000 0.69237  0.12233  0.49556  Biso   1.000  C
  C591     1.0000 0.73037  0.16662  0.32620  Biso   1.000  C
  C592     1.0000 0.69916  0.20273  0.78463  Biso   1.000  C
  C593     1.0000 0.74767  0.16974  0.30586  Biso   1.000  C
  C594     1.0000 0.83398  0.24193  0.30086  Biso   1.000  C
  C595     1.0000 0.88125  0.29142  0.44123  Biso   1.000  C
  C596     1.0000 0.88358  0.24404  0.29916  Biso   1.000  C
  C597     1.0000 0.94440  0.29828  0.41669  Biso   1.000  C
  C598     1.0000 0.80587  0.16513  0.31006  Biso   1.000  C
  C599     1.0000 0.82118  0.16335  0.30643  Biso   1.000  C
  N399     1.0000 0.85547  0.19844  0.31014  Biso   1.000  N
  N400     1.0000 0.90677  0.27173  0.39587  Biso   1.000  N
  H591     1.0000 0.88147  0.26373  0.23345  Biso   1.000  H
  C600     1.0000 0.64717  0.10304  0.63150  Biso   1.000  C
  C601     1.0000 0.64856  0.08832  0.65693  Biso   1.000  C
  C602     1.0000 0.74148  0.19834  0.90176  Biso   1.000  C
  C603     1.0000 0.67276  0.13352  0.82467  Biso   1.000  C
  C604     1.0000 0.74567  0.18602  0.91645  Biso   1.000  C
  O197     1.0000 0.69336  0.08723  0.44083  Biso   1.000  O
  O198     1.0000 0.68765  0.08382  0.46085  Biso   1.000  O
  H592     1.0000 0.73978  0.18794  0.25242  Biso   1.000  H
  H593     1.0000 0.73317  0.13584  0.27987  Biso   1.000  H
  H594     1.0000 0.71986  0.18424  0.27720  Biso   1.000  H
  H595     1.0000 0.71687  0.13312  0.29811  Biso   1.000  H
  N401     1.0000 0.70966  0.16992  0.84364  Biso   1.000  N
  N402     1.0000 0.87106  0.19383  0.30570  Biso   1.000  N
  H596     1.0000 0.90257  0.26025  0.23256  Biso   1.000  H
  H597     1.0000 0.97060  0.31740  0.46497  Biso   1.000  H
  H598     1.0000 0.97580  0.29640  0.35171  Biso   1.000  H
  H599     1.0000 0.95670  0.32710  0.46424  Biso   1.000  H
  H600     1.0000 0.96239  0.30889  0.34751  Biso   1.000  H
  N403     1.0000 0.95339  0.26341  0.46569  Biso   1.000  N
  O199     1.0000 0.80019  0.11935  0.29214  Biso   1.000  O
  O200     1.0000 0.78877  0.12055  0.30836  Biso   1.000  O
  C605     1.0000 0.89062  0.18511  0.28350  Biso   1.000  C
  C606     1.0000 0.95731  0.28760  0.42016  Biso   1.000  C
  N404     1.0000 0.67437  0.10754  0.72917  Biso   1.000  N
  H601     1.0000 0.61955  0.10783  0.65023  Biso   1.000  H
  H602     1.0000 0.63357  0.06954  0.60325  Biso   1.000  H
  H603     1.0000 0.61807  0.08592  0.68373  Biso   1.000  H
  H604     1.0000 0.63976  0.05795  0.61745  Biso   1.000  H
  N405     1.0000 0.67806  0.09163  0.74863  Biso   1.000  N
  N406     1.0000 0.73517  0.15652  0.95431  Biso   1.000  N
  O201     1.0000 0.77248  0.24044  0.92783  Biso   1.000  O
  O202     1.0000 0.77558  0.22915  0.93704  Biso   1.000  O
  H605     1.0000 0.63926  0.12723  0.84001  Biso   1.000  H
  C607     1.0000 0.69178  0.11354  0.91451  Biso   1.000  C
  H606     1.0000 0.64405  0.10932  0.86786  Biso   1.000  H
  N407     1.0000 0.74407  0.14562  0.96472  Biso   1.000  N
  C608     1.0000 0.67776  0.11822  0.84606  Biso   1.000  C
  C609     1.0000 0.90521  0.17679  0.28568  Biso   1.000  C
  C610     1.0000 0.97619  0.25708  0.58008  Biso   1.000  C
  C611     1.0000 0.96479  0.23220  0.40410  Biso   1.000  C
  C612     1.0000 0.96869  0.26958  0.56918  Biso   1.000  C
  H607     1.0000 0.92868  0.19768  0.22990  Biso   1.000  H
  H608     1.0000 0.91071  0.20629  0.22376  Biso   1.000  H
  H609     1.0000 0.87329  0.15140  0.25581  Biso   1.000  H
  N408     1.0000 0.92258  0.18769  0.36858  Biso   1.000  N
  N409     1.0000 0.96472  0.25302  0.47457  Biso   1.000  N
  C613     1.0000 0.69046  0.07622  0.75323  Biso   1.000  C
  N410     1.0000 0.70195  0.08033  0.85873  Biso   1.000  N
  C614     1.0000 0.69796  0.06373  0.76413  Biso   1.000  C
  C615     1.0000 0.70189  0.10115  0.92921  Biso   1.000  C
  C616     1.0000 0.76144  0.15652  0.04763  Biso   1.000  C
  H610     1.0000 0.66715  0.09712  0.97296  Biso   1.000  H
  H611     1.0000 0.67946  0.08342  0.99064  Biso   1.000  H
  C617     1.0000 0.77606  0.14823  0.04981  Biso   1.000  C
  N411     1.0000 0.93148  0.17679  0.37900  Biso   1.000  N
  H612     1.0000 0.88710  0.14340  0.25654  Biso   1.000  H
  O203     1.0000 0.97189  0.28379  0.64538  Biso   1.000  O
  N412     1.0000 0.99230  0.22580  0.60421  Biso   1.000  N
  O204     1.0000 0.96459  0.29531  0.63731  Biso   1.000  O
  C618     1.0000 0.98889  0.21508  0.48733  Biso   1.000  C
  H613     1.0000 0.99951  0.23619  0.36043  Biso   1.000  H
  H614     1.0000 0.98719  0.24989  0.34267  Biso   1.000  H
  N413     1.0000 0.98861  0.24172  0.58468  Biso   1.000  N
  C619     1.0000 0.97489  0.21981  0.41879  Biso   1.000  C
  C620     1.0000 0.92098  0.14729  0.41694  Biso   1.000  C
  O205     1.0000 0.69476  0.04952  0.68792  Biso   1.000  O
  N414     1.0000 0.71328  0.06994  0.86761  Biso   1.000  N
  O206     1.0000 0.70208  0.03804  0.69600  Biso   1.000  O
  C621     1.0000 0.70936  0.04574  0.91314  Biso   1.000  C
  N415     1.0000 0.79561  0.13951  0.02761  Biso   1.000  N
  H615     1.0000 0.73797  0.13563  0.10341  Biso   1.000  H
  H616     1.0000 0.77957  0.18994  0.07685  Biso   1.000  H
  H617     1.0000 0.75594  0.12702  0.10954  Biso   1.000  H
  H618     1.0000 0.79339  0.18195  0.07749  Biso   1.000  H
  N416     1.0000 0.81120  0.13490  0.02317  Biso   1.000  N
  C622     1.0000 0.92519  0.13501  0.43163  Biso   1.000  C
  N417     1.0000 0.95700  0.16338  0.48967  Biso   1.000  N
  C623     1.0000 0.99389  0.19979  0.50872  Biso   1.000  C
  C624     1.0000 0.01809  0.24499  0.67638  Biso   1.000  C
  C625     1.0000 0.01950  0.23031  0.70181  Biso   1.000  C
  H619     1.0000 0.02260  0.22399  0.46553  Biso   1.000  H
  O207     1.0000 0.89419  0.09290  0.40547  Biso   1.000  O
  N418     1.0000 0.95880  0.14900  0.50969  Biso   1.000  N
  O208     1.0000 0.89110  0.10420  0.39627  Biso   1.000  O
  C626     1.0000 0.72225  0.03502  0.91661  Biso   1.000  C
  N419     1.0000 0.75988  0.06158  0.93752  Biso   1.000  N
  H620     1.0000 0.69607  0.01595  0.86834  Biso   1.000  H
  H621     1.0000 0.69087  0.03695  0.98160  Biso   1.000  H
  H622     1.0000 0.70428  0.02445  0.98587  Biso   1.000  H
  C627     1.0000 0.78309  0.08930  0.03423  Biso   1.000  C
  C628     1.0000 0.84549  0.17000  0.02688  Biso   1.000  C
  C629     1.0000 0.80111  0.08520  0.03011  Biso   1.000  C
  N420     1.0000 0.86711  0.14249  0.02333  Biso   1.000  N
  C630     1.0000 0.86081  0.16822  0.02333  Biso   1.000  C
  C631     1.0000 0.96752  0.13061  0.54868  Biso   1.000  C
  H623     1.0000 0.02742  0.20611  0.49330  Biso   1.000  H
  N421     1.0000 0.99590  0.20538  0.75008  Biso   1.000  N
  H624     1.0000 0.03310  0.26381  0.73006  Biso   1.000  H
  H625     1.0000 0.04859  0.24738  0.64958  Biso   1.000  H
  H626     1.0000 0.02691  0.27540  0.71593  Biso   1.000  H
  N422     1.0000 0.99121  0.19619  0.78673  Biso   1.000  N
  H627     1.0000 0.04712  0.22551  0.68308  Biso   1.000  H
  C632     1.0000 0.96239  0.11641  0.58500  Biso   1.000  C
  H628     1.0000 0.70997  0.00625  0.86915  Biso   1.000  H
  N423     1.0000 0.77520  0.05472  0.93752  Biso   1.000  N
  C633     1.0000 0.78540  0.04189  0.89207  Biso   1.000  C
  H629     1.0000 0.76410  0.07310  0.10082  Biso   1.000  H
  C634     1.0000 0.83269  0.09141  0.03253  Biso   1.000  C
  H630     1.0000 0.78520  0.06961  0.09994  Biso   1.000  H
  O209     1.0000 0.86648  0.21399  0.04117  Biso   1.000  O
  O210     1.0000 0.87790  0.21280  0.02502  Biso   1.000  O
  C635     1.0000 0.85200  0.09170  0.02042  Biso   1.000  C
  C636     1.0000 0.91900  0.16360  0.02753  Biso   1.000  C
  N424     1.0000 0.88450  0.14329  0.00864  Biso   1.000  N
  H631     1.0000 0.99679  0.12440  0.58863  Biso   1.000  H
  H632     1.0000 0.94921  0.09810  0.51477  Biso   1.000  H
  N425     1.0000 0.95630  0.12549  0.66153  Biso   1.000  N
  H633     1.0000 0.00250  0.14180  0.54036  Biso   1.000  H
  C637     1.0000 0.97070  0.20709  0.86923  Biso   1.000  C
  C638     1.0000 0.97430  0.21102  0.83783  Biso   1.000  C
  C639     1.0000 0.97869  0.14660  0.77963  Biso   1.000  C
  C640     1.0000 0.99021  0.15819  0.73999  Biso   1.000  C
  N426     1.0000 0.94581  0.11761  0.69446  Biso   1.000  N
  H634     1.0000 0.94311  0.08280  0.55691  Biso   1.000  H
  N427     1.0000 0.82948  0.06158  0.94422  Biso   1.000  N
  C641     1.0000 0.80350  0.04120  0.88118  Biso   1.000  C
  O211     1.0000 0.77262  0.01261  0.81861  Biso   1.000  O
  O212     1.0000 0.79001  0.01039  0.80933  Biso   1.000  O
  H635     1.0000 0.83790  0.07830  0.10139  Biso   1.000  H
  H636     1.0000 0.86019  0.07989  0.08750  Biso   1.000  H
  N428     1.0000 0.84798  0.06158  0.93211  Biso   1.000  N
  N429     1.0000 0.94090  0.16371  0.92703  Biso   1.000  N
  H637     1.0000 0.92689  0.14540  0.08088  Biso   1.000  H
  H638     1.0000 0.93350  0.19750  0.05352  Biso   1.000  H
  H639     1.0000 0.94681  0.14911  0.05610  Biso   1.000  H
  H640     1.0000 0.94979  0.20019  0.03520  Biso   1.000  H
  C642     1.0000 0.93628  0.16669  0.00710  Biso   1.000  C
  C643     1.0000 0.91518  0.08749  0.70278  Biso   1.000  C
  N430     1.0000 0.95570  0.16891  0.90257  Biso   1.000  N
  O213     1.0000 0.97332  0.24611  0.89248  Biso   1.000  O
  O214     1.0000 0.97900  0.24949  0.87254  Biso   1.000  O
  C644     1.0000 0.94750  0.12520  0.88319  Biso   1.000  C
  H641     1.0000 0.00829  0.14318  0.78124  Biso   1.000  H
  C645     1.0000 0.96481  0.13439  0.84638  Biso   1.000  C
  H642     1.0000 0.02241  0.15979  0.73394  Biso   1.000  H
  C646     1.0000 0.90639  0.07721  0.73466  Biso   1.000  C
  N431     1.0000 0.92080  0.09148  0.81232  Biso   1.000  N
  C647     1.0000 0.86581  0.04959  0.91177  Biso   1.000  C
  C648     1.0000 0.88639  0.05490  0.88537  Biso   1.000  C
  N432     1.0000 0.90442  0.08422  0.84243  Biso   1.000  N
  O215     1.0000 0.87541  0.04262  0.68389  Biso   1.000  O
  O216     1.0000 0.88541  0.05079  0.65483  Biso   1.000  O
  H643     1.0000 0.96421  0.11481  0.93631  Biso   1.000  H
  H644     1.0000 0.98541  0.12549  0.89102  Biso   1.000  H
  H645     1.0000 0.84921  0.01791  0.87399  Biso   1.000  H
  H646     1.0000 0.88081  0.04531  0.97780  Biso   1.000  H
  H647     1.0000 0.87070  0.02351  0.84646  Biso   1.000  H
  H648     1.0000 0.90509  0.05188  0.94583  Biso   1.000  H
