data_image0
_cell_length_a       24.274
_cell_length_b       24.274
_cell_length_c       24.274
_cell_angle_alpha    90
_cell_angle_beta     90
_cell_angle_gamma    90

_symmetry_space_group_name_H-M    "P 1"
_symmetry_int_tables_number       1

loop_
  _symmetry_equiv_pos_as_xyz
  'x, y, z'

loop_
  _atom_site_label
  _atom_site_occupancy
  _atom_site_fract_x
  _atom_site_fract_y
  _atom_site_fract_z
  _atom_site_thermal_displace_type
  _atom_site_B_iso_or_equiv
  _atom_site_type_symbol
  C1       1.0000 0.42527  0.30868  0.28014  Biso   1.000  C
  C2       1.0000 0.37394  0.30407  0.24429  Biso   1.000  C
  C3       1.0000 0.47697  0.29447  0.24755  Biso   1.000  C
  H1       1.0000 0.42840  0.34671  0.29460  Biso   1.000  H
  H2       1.0000 0.42189  0.28331  0.31190  Biso   1.000  H
  C4       1.0000 0.36895  0.24689  0.22361  Biso   1.000  C
  H3       1.0000 0.34090  0.31379  0.26621  Biso   1.000  H
  H4       1.0000 0.37662  0.32998  0.21290  Biso   1.000  H
  C5       1.0000 0.47232  0.23762  0.22110  Biso   1.000  C
  N1       1.0000 0.52472  0.29468  0.28421  Biso   1.000  N
  H5       1.0000 0.48249  0.32269  0.21801  Biso   1.000  H
  C6       1.0000 0.41942  0.23181  0.18802  Biso   1.000  C
  H6       1.0000 0.33501  0.24331  0.20129  Biso   1.000  H
  H7       1.0000 0.36632  0.22110  0.25509  Biso   1.000  H
  N2       1.0000 0.51953  0.23008  0.18419  Biso   1.000  N
  H8       1.0000 0.47318  0.20878  0.25051  Biso   1.000  H
  C7       1.0000 0.55936  0.33208  0.27593  Biso   1.000  C
  H9       1.0000 0.42090  0.25628  0.15552  Biso   1.000  H
  H10      1.0000 0.41579  0.19342  0.17480  Biso   1.000  H
  C8       1.0000 0.54791  0.18786  0.19070  Biso   1.000  C
  C9       1.0000 0.60839  0.33896  0.31149  Biso   1.000  C
  H11      1.0000 0.55401  0.35672  0.24598  Biso   1.000  H
  C10      1.0000 0.59751  0.17525  0.15766  Biso   1.000  C
  H12      1.0000 0.53712  0.16240  0.21838  Biso   1.000  H
  C11      1.0000 0.61757  0.30345  0.35602  Biso   1.000  C
  C12      1.0000 0.64398  0.38243  0.30345  Biso   1.000  C
  C13      1.0000 0.62643  0.12693  0.16928  Biso   1.000  C
  C14      1.0000 0.61790  0.21055  0.11712  Biso   1.000  C
  C15      1.0000 0.66104  0.31149  0.39161  Biso   1.000  C
  H13      1.0000 0.59331  0.27330  0.36179  Biso   1.000  H
  C16      1.0000 0.68851  0.39161  0.33896  Biso   1.000  C
  H14      1.0000 0.63821  0.40669  0.27330  Biso   1.000  H
  C17      1.0000 0.67434  0.11420  0.14089  Biso   1.000  C
  H15      1.0000 0.61321  0.10262  0.19692  Biso   1.000  H
  C18      1.0000 0.66458  0.19803  0.08816  Biso   1.000  C
  H16      1.0000 0.59899  0.24401  0.10950  Biso   1.000  H
  C19      1.0000 0.66792  0.27593  0.44064  Biso   1.000  C
  C20      1.0000 0.69655  0.35602  0.38243  Biso   1.000  C
  C21      1.0000 0.72407  0.44064  0.33208  Biso   1.000  C
  C22      1.0000 0.70532  0.06299  0.15255  Biso   1.000  C
  C23      1.0000 0.69420  0.15012  0.10011  Biso   1.000  C
  C24      1.0000 0.68411  0.23453  0.04350  Biso   1.000  C
  N3       1.0000 0.70532  0.28421  0.47528  Biso   1.000  N
  H17      1.0000 0.64328  0.24598  0.44599  Biso   1.000  H
  H18      1.0000 0.72670  0.36179  0.40669  Biso   1.000  H
  N4       1.0000 0.71579  0.47528  0.29468  Biso   1.000  N
  H19      1.0000 0.75402  0.44599  0.35672  Biso   1.000  H
  N5       1.0000 0.68930  0.03020  0.19041  Biso   1.000  N
  H20      1.0000 0.73741  0.05450  0.13170  Biso   1.000  H
  H21      1.0000 0.72728  0.14188  0.08091  Biso   1.000  H
  N6       1.0000 0.72769  0.22468  0.01615  Biso   1.000  N
  H22      1.0000 0.66330  0.26658  0.03489  Biso   1.000  H
  C25      1.0000 0.70553  0.24755  0.52303  Biso   1.000  C
  C26      1.0000 0.75245  0.52303  0.29447  Biso   1.000  C
  C27      1.0000 0.72065  0.97981  0.19626  Biso   1.000  C
  C28      1.0000 0.74347  0.26238  0.97199  Biso   1.000  C
  C29      1.0000 0.76238  0.22110  0.52768  Biso   1.000  C
  C30      1.0000 0.69132  0.28014  0.57473  Biso   1.000  C
  H23      1.0000 0.67731  0.21801  0.51751  Biso   1.000  H
  C31      1.0000 0.77890  0.52768  0.23762  Biso   1.000  C
  C32      1.0000 0.71986  0.57473  0.30868  Biso   1.000  C
  H24      1.0000 0.78199  0.51751  0.32269  Biso   1.000  H
  C33      1.0000 0.73762  0.97199  0.25653  Biso   1.000  C
  C34      1.0000 0.68505  0.93157  0.17624  Biso   1.000  C
  H25      1.0000 0.75451  0.98220  0.17290  Biso   1.000  H
  C35      1.0000 0.80374  0.27935  0.97981  Biso   1.000  C
  C36      1.0000 0.73535  0.23379  0.91670  Biso   1.000  C
  H26      1.0000 0.71962  0.29591  0.97359  Biso   1.000  H
  N7       1.0000 0.76992  0.18419  0.48047  Biso   1.000  N
  C37      1.0000 0.76819  0.18802  0.58058  Biso   1.000  C
  H27      1.0000 0.79122  0.25051  0.52682  Biso   1.000  H
  C38      1.0000 0.69593  0.24429  0.62606  Biso   1.000  C
  H28      1.0000 0.65329  0.29460  0.57160  Biso   1.000  H
  H29      1.0000 0.71669  0.31190  0.57811  Biso   1.000  H
  N8       1.0000 0.81581  0.48047  0.23008  Biso   1.000  N
  C39      1.0000 0.81198  0.58058  0.23181  Biso   1.000  C
  H30      1.0000 0.74949  0.52682  0.20878  Biso   1.000  H
  C40      1.0000 0.75571  0.62606  0.30407  Biso   1.000  C
  H31      1.0000 0.70540  0.57160  0.34671  Biso   1.000  H
  H32      1.0000 0.68810  0.57811  0.28331  Biso   1.000  H
  N9       1.0000 0.77532  0.01615  0.27231  Biso   1.000  N
  C41      1.0000 0.76621  0.91670  0.26465  Biso   1.000  C
  H33      1.0000 0.70409  0.97359  0.28038  Biso   1.000  H
  C42      1.0000 0.71488  0.87715  0.18308  Biso   1.000  C
  H34      1.0000 0.65020  0.93071  0.19750  Biso   1.000  H
  H35      1.0000 0.67570  0.93701  0.13690  Biso   1.000  H
  N10      1.0000 0.80959  0.31070  0.03020  Biso   1.000  N
  C43      1.0000 0.82376  0.31495  0.93157  Biso   1.000  C
  H36      1.0000 0.82710  0.24549  0.98220  Biso   1.000  H
  C44      1.0000 0.75645  0.26868  0.86879  Biso   1.000  C
  H37      1.0000 0.75501  0.19811  0.91699  Biso   1.000  H
  H38      1.0000 0.69560  0.22621  0.91130  Biso   1.000  H
  C45      1.0000 0.81214  0.19070  0.45209  Biso   1.000  C
  C46      1.0000 0.75311  0.22361  0.63105  Biso   1.000  C
  H39      1.0000 0.74372  0.15552  0.57910  Biso   1.000  H
  H40      1.0000 0.80658  0.17480  0.58421  Biso   1.000  H
  H41      1.0000 0.68621  0.26621  0.65910  Biso   1.000  H
  H42      1.0000 0.67002  0.21290  0.62338  Biso   1.000  H
  C47      1.0000 0.80930  0.45209  0.18786  Biso   1.000  C
  C48      1.0000 0.77639  0.63105  0.24689  Biso   1.000  C
  H43      1.0000 0.84448  0.57910  0.25628  Biso   1.000  H
  H44      1.0000 0.82520  0.58421  0.19342  Biso   1.000  H
  H45      1.0000 0.73379  0.65910  0.31379  Biso   1.000  H
  H46      1.0000 0.78710  0.62338  0.32998  Biso   1.000  H
  C49      1.0000 0.76547  0.04350  0.31589  Biso   1.000  C
  C50      1.0000 0.73132  0.86879  0.24355  Biso   1.000  C
  H47      1.0000 0.80189  0.91699  0.24499  Biso   1.000  H
  H48      1.0000 0.77379  0.91130  0.30440  Biso   1.000  H
  H49      1.0000 0.69062  0.84658  0.17109  Biso   1.000  H
  H50      1.0000 0.74821  0.87678  0.15959  Biso   1.000  H
  C51      1.0000 0.84745  0.29468  0.06299  Biso   1.000  C
  C52      1.0000 0.81692  0.28512  0.87715  Biso   1.000  C
  H51      1.0000 0.80250  0.34980  0.93071  Biso   1.000  H
  H52      1.0000 0.86310  0.32430  0.93701  Biso   1.000  H
  H53      1.0000 0.73358  0.30230  0.86549  Biso   1.000  H
  H54      1.0000 0.75290  0.24759  0.83410  Biso   1.000  H
  C53      1.0000 0.82475  0.15766  0.40249  Biso   1.000  C
  H55      1.0000 0.83760  0.21838  0.46288  Biso   1.000  H
  H56      1.0000 0.75669  0.20129  0.66499  Biso   1.000  H
  H57      1.0000 0.77890  0.25509  0.63368  Biso   1.000  H
  C54      1.0000 0.84234  0.40249  0.17525  Biso   1.000  C
  H58      1.0000 0.78162  0.46288  0.16240  Biso   1.000  H
  H59      1.0000 0.79871  0.66499  0.24331  Biso   1.000  H
  H60      1.0000 0.74491  0.63368  0.22110  Biso   1.000  H
  C55      1.0000 0.80197  0.08816  0.33542  Biso   1.000  C
  H61      1.0000 0.73342  0.03489  0.33670  Biso   1.000  H
  H62      1.0000 0.69770  0.86549  0.26642  Biso   1.000  H
  H63      1.0000 0.75241  0.83410  0.24710  Biso   1.000  H
  C56      1.0000 0.85911  0.32566  0.11420  Biso   1.000  C
  H64      1.0000 0.86830  0.26259  0.05450  Biso   1.000  H
  H65      1.0000 0.82891  0.30938  0.84658  Biso   1.000  H
  H66      1.0000 0.84041  0.25179  0.87678  Biso   1.000  H
  C57      1.0000 0.78945  0.11712  0.38210  Biso   1.000  C
  C58      1.0000 0.87307  0.16928  0.37357  Biso   1.000  C
  C59      1.0000 0.83072  0.37357  0.12693  Biso   1.000  C
  C60      1.0000 0.88288  0.38210  0.21055  Biso   1.000  C
  C61      1.0000 0.84988  0.10011  0.30580  Biso   1.000  C
  C62      1.0000 0.89989  0.30580  0.15012  Biso   1.000  C
  H67      1.0000 0.75599  0.10950  0.40101  Biso   1.000  H
  C63      1.0000 0.88580  0.14089  0.32566  Biso   1.000  C
  H68      1.0000 0.89738  0.19692  0.38679  Biso   1.000  H
  H69      1.0000 0.80308  0.38679  0.10262  Biso   1.000  H
  C64      1.0000 0.91184  0.33542  0.19803  Biso   1.000  C
  H70      1.0000 0.89050  0.40101  0.24401  Biso   1.000  H
  H71      1.0000 0.85812  0.08091  0.27272  Biso   1.000  H
  H72      1.0000 0.91909  0.27272  0.14188  Biso   1.000  H
  C65      1.0000 0.93701  0.15255  0.29468  Biso   1.000  C
  C66      1.0000 0.95650  0.31589  0.23453  Biso   1.000  C
  N11      1.0000 0.96980  0.19041  0.31070  Biso   1.000  N
  H73      1.0000 0.94550  0.13170  0.26259  Biso   1.000  H
  N12      1.0000 0.98385  0.27231  0.22468  Biso   1.000  N
  H74      1.0000 0.96511  0.33670  0.26658  Biso   1.000  H
  C67      1.0000 0.02019  0.19626  0.27935  Biso   1.000  C
  C68      1.0000 0.02801  0.25653  0.26238  Biso   1.000  C
  C69      1.0000 0.06843  0.17624  0.31495  Biso   1.000  C
  H75      1.0000 0.01780  0.17290  0.24549  Biso   1.000  H
  C70      1.0000 0.08330  0.26465  0.23379  Biso   1.000  C
  H76      1.0000 0.02641  0.28038  0.29591  Biso   1.000  H
  C71      1.0000 0.12285  0.18308  0.28512  Biso   1.000  C
  H77      1.0000 0.06929  0.19750  0.34980  Biso   1.000  H
  H78      1.0000 0.06299  0.13690  0.32430  Biso   1.000  H
  C72      1.0000 0.13121  0.24355  0.26868  Biso   1.000  C
  H79      1.0000 0.08301  0.24499  0.19811  Biso   1.000  H
  H80      1.0000 0.08870  0.30440  0.22621  Biso   1.000  H
  H81      1.0000 0.15342  0.17109  0.30938  Biso   1.000  H
  H82      1.0000 0.12322  0.15959  0.25179  Biso   1.000  H
  H83      1.0000 0.13451  0.26642  0.30230  Biso   1.000  H
  H84      1.0000 0.16590  0.24710  0.24759  Biso   1.000  H
  C73      1.0000 0.30868  0.28014  0.42527  Biso   1.000  C
  C74      1.0000 0.30407  0.24429  0.37394  Biso   1.000  C
  C75      1.0000 0.29447  0.24755  0.47697  Biso   1.000  C
  H85      1.0000 0.34671  0.29460  0.42840  Biso   1.000  H
  H86      1.0000 0.28331  0.31190  0.42189  Biso   1.000  H
  C76      1.0000 0.24689  0.22361  0.36895  Biso   1.000  C
  H87      1.0000 0.31379  0.26621  0.34090  Biso   1.000  H
  H88      1.0000 0.32998  0.21290  0.37662  Biso   1.000  H
  C77      1.0000 0.23762  0.22110  0.47232  Biso   1.000  C
  N13      1.0000 0.29468  0.28421  0.52472  Biso   1.000  N
  H89      1.0000 0.32269  0.21801  0.48249  Biso   1.000  H
  C78      1.0000 0.23181  0.18802  0.41942  Biso   1.000  C
  H90      1.0000 0.24331  0.20129  0.33501  Biso   1.000  H
  H91      1.0000 0.22110  0.25509  0.36632  Biso   1.000  H
  N14      1.0000 0.23008  0.18419  0.51953  Biso   1.000  N
  H92      1.0000 0.20878  0.25051  0.47318  Biso   1.000  H
  C79      1.0000 0.33208  0.27593  0.55936  Biso   1.000  C
  H93      1.0000 0.25628  0.15552  0.42090  Biso   1.000  H
  H94      1.0000 0.19342  0.17480  0.41579  Biso   1.000  H
  C80      1.0000 0.18786  0.19070  0.54791  Biso   1.000  C
  C81      1.0000 0.33896  0.31149  0.60839  Biso   1.000  C
  H95      1.0000 0.35672  0.24598  0.55401  Biso   1.000  H
  C82      1.0000 0.17525  0.15766  0.59751  Biso   1.000  C
  H96      1.0000 0.16240  0.21838  0.53712  Biso   1.000  H
  C83      1.0000 0.30345  0.35602  0.61757  Biso   1.000  C
  C84      1.0000 0.38243  0.30345  0.64398  Biso   1.000  C
  C85      1.0000 0.12693  0.16928  0.62643  Biso   1.000  C
  C86      1.0000 0.21055  0.11712  0.61790  Biso   1.000  C
  C87      1.0000 0.31149  0.39161  0.66104  Biso   1.000  C
  H97      1.0000 0.27330  0.36179  0.59331  Biso   1.000  H
  C88      1.0000 0.39161  0.33896  0.68851  Biso   1.000  C
  H98      1.0000 0.40669  0.27330  0.63821  Biso   1.000  H
  C89      1.0000 0.11420  0.14089  0.67434  Biso   1.000  C
  H99      1.0000 0.10262  0.19692  0.61321  Biso   1.000  H
  C90      1.0000 0.19803  0.08816  0.66458  Biso   1.000  C
  H100     1.0000 0.24401  0.10950  0.59899  Biso   1.000  H
  C91      1.0000 0.27593  0.44064  0.66792  Biso   1.000  C
  C92      1.0000 0.35602  0.38243  0.69655  Biso   1.000  C
  C93      1.0000 0.44064  0.33208  0.72407  Biso   1.000  C
  C94      1.0000 0.06299  0.15255  0.70532  Biso   1.000  C
  C95      1.0000 0.15012  0.10011  0.69420  Biso   1.000  C
  C96      1.0000 0.23453  0.04350  0.68411  Biso   1.000  C
  N15      1.0000 0.28421  0.47528  0.70532  Biso   1.000  N
  H101     1.0000 0.24598  0.44599  0.64328  Biso   1.000  H
  H102     1.0000 0.36179  0.40669  0.72670  Biso   1.000  H
  N16      1.0000 0.47528  0.29468  0.71579  Biso   1.000  N
  H103     1.0000 0.44599  0.35672  0.75402  Biso   1.000  H
  N17      1.0000 0.03020  0.19041  0.68930  Biso   1.000  N
  H104     1.0000 0.05450  0.13170  0.73741  Biso   1.000  H
  H105     1.0000 0.14188  0.08091  0.72728  Biso   1.000  H
  N18      1.0000 0.22468  0.01615  0.72769  Biso   1.000  N
  H106     1.0000 0.26658  0.03489  0.66330  Biso   1.000  H
  C97      1.0000 0.24755  0.52303  0.70553  Biso   1.000  C
  C98      1.0000 0.52303  0.29447  0.75245  Biso   1.000  C
  C99      1.0000 0.97981  0.19626  0.72065  Biso   1.000  C
  C100     1.0000 0.26238  0.97199  0.74347  Biso   1.000  C
  C101     1.0000 0.22110  0.52768  0.76238  Biso   1.000  C
  C102     1.0000 0.28014  0.57473  0.69132  Biso   1.000  C
  H107     1.0000 0.21801  0.51751  0.67731  Biso   1.000  H
  C103     1.0000 0.52768  0.23762  0.77890  Biso   1.000  C
  C104     1.0000 0.57473  0.30868  0.71986  Biso   1.000  C
  H108     1.0000 0.51751  0.32269  0.78199  Biso   1.000  H
  C105     1.0000 0.97199  0.25653  0.73762  Biso   1.000  C
  C106     1.0000 0.93157  0.17624  0.68505  Biso   1.000  C
  H109     1.0000 0.98220  0.17290  0.75451  Biso   1.000  H
  C107     1.0000 0.27935  0.97981  0.80374  Biso   1.000  C
  C108     1.0000 0.23379  0.91670  0.73535  Biso   1.000  C
  H110     1.0000 0.29591  0.97359  0.71962  Biso   1.000  H
  N19      1.0000 0.18419  0.48047  0.76992  Biso   1.000  N
  C109     1.0000 0.18802  0.58058  0.76819  Biso   1.000  C
  H111     1.0000 0.25051  0.52682  0.79122  Biso   1.000  H
  C110     1.0000 0.24429  0.62606  0.69593  Biso   1.000  C
  H112     1.0000 0.29460  0.57160  0.65329  Biso   1.000  H
  H113     1.0000 0.31190  0.57811  0.71669  Biso   1.000  H
  N20      1.0000 0.48047  0.23008  0.81581  Biso   1.000  N
  C111     1.0000 0.58058  0.23181  0.81198  Biso   1.000  C
  H114     1.0000 0.52682  0.20878  0.74949  Biso   1.000  H
  C112     1.0000 0.62606  0.30407  0.75571  Biso   1.000  C
  H115     1.0000 0.57160  0.34671  0.70540  Biso   1.000  H
  H116     1.0000 0.57811  0.28331  0.68810  Biso   1.000  H
  N21      1.0000 0.01615  0.27231  0.77532  Biso   1.000  N
  C113     1.0000 0.91670  0.26465  0.76621  Biso   1.000  C
  H117     1.0000 0.97359  0.28038  0.70409  Biso   1.000  H
  C114     1.0000 0.87715  0.18308  0.71488  Biso   1.000  C
  H118     1.0000 0.93071  0.19750  0.65020  Biso   1.000  H
  H119     1.0000 0.93701  0.13690  0.67570  Biso   1.000  H
  N22      1.0000 0.31070  0.03020  0.80959  Biso   1.000  N
  C115     1.0000 0.31495  0.93157  0.82376  Biso   1.000  C
  H120     1.0000 0.24549  0.98220  0.82710  Biso   1.000  H
  C116     1.0000 0.26868  0.86879  0.75645  Biso   1.000  C
  H121     1.0000 0.19811  0.91699  0.75501  Biso   1.000  H
  H122     1.0000 0.22621  0.91130  0.69560  Biso   1.000  H
  C117     1.0000 0.19070  0.45209  0.81214  Biso   1.000  C
  C118     1.0000 0.22361  0.63105  0.75311  Biso   1.000  C
  H123     1.0000 0.15552  0.57910  0.74372  Biso   1.000  H
  H124     1.0000 0.17480  0.58421  0.80658  Biso   1.000  H
  H125     1.0000 0.26621  0.65910  0.68621  Biso   1.000  H
  H126     1.0000 0.21290  0.62338  0.67002  Biso   1.000  H
  C119     1.0000 0.45209  0.18786  0.80930  Biso   1.000  C
  C120     1.0000 0.63105  0.24689  0.77639  Biso   1.000  C
  H127     1.0000 0.57910  0.25628  0.84448  Biso   1.000  H
  H128     1.0000 0.58421  0.19342  0.82520  Biso   1.000  H
  H129     1.0000 0.65910  0.31379  0.73379  Biso   1.000  H
  H130     1.0000 0.62338  0.32998  0.78710  Biso   1.000  H
  C121     1.0000 0.04350  0.31589  0.76547  Biso   1.000  C
  C122     1.0000 0.86879  0.24355  0.73132  Biso   1.000  C
  H131     1.0000 0.91699  0.24499  0.80189  Biso   1.000  H
  H132     1.0000 0.91130  0.30440  0.77379  Biso   1.000  H
  H133     1.0000 0.84658  0.17109  0.69062  Biso   1.000  H
  H134     1.0000 0.87678  0.15959  0.74821  Biso   1.000  H
  C123     1.0000 0.29468  0.06299  0.84745  Biso   1.000  C
  C124     1.0000 0.28512  0.87715  0.81692  Biso   1.000  C
  H135     1.0000 0.34980  0.93071  0.80250  Biso   1.000  H
  H136     1.0000 0.32430  0.93701  0.86310  Biso   1.000  H
  H137     1.0000 0.30230  0.86549  0.73358  Biso   1.000  H
  H138     1.0000 0.24759  0.83410  0.75290  Biso   1.000  H
  C125     1.0000 0.15766  0.40249  0.82475  Biso   1.000  C
  H139     1.0000 0.21838  0.46288  0.83760  Biso   1.000  H
  H140     1.0000 0.20129  0.66499  0.75669  Biso   1.000  H
  H141     1.0000 0.25509  0.63368  0.77890  Biso   1.000  H
  C126     1.0000 0.40249  0.17525  0.84234  Biso   1.000  C
  H142     1.0000 0.46288  0.16240  0.78162  Biso   1.000  H
  H143     1.0000 0.66499  0.24331  0.79871  Biso   1.000  H
  H144     1.0000 0.63368  0.22110  0.74491  Biso   1.000  H
  C127     1.0000 0.08816  0.33542  0.80197  Biso   1.000  C
  H145     1.0000 0.03489  0.33670  0.73342  Biso   1.000  H
  H146     1.0000 0.86549  0.26642  0.69770  Biso   1.000  H
  H147     1.0000 0.83410  0.24710  0.75241  Biso   1.000  H
  C128     1.0000 0.32566  0.11420  0.85911  Biso   1.000  C
  H148     1.0000 0.26259  0.05450  0.86830  Biso   1.000  H
  H149     1.0000 0.30938  0.84658  0.82891  Biso   1.000  H
  H150     1.0000 0.25179  0.87678  0.84041  Biso   1.000  H
  C129     1.0000 0.11712  0.38210  0.78945  Biso   1.000  C
  C130     1.0000 0.16928  0.37357  0.87307  Biso   1.000  C
  C131     1.0000 0.37357  0.12693  0.83072  Biso   1.000  C
  C132     1.0000 0.38210  0.21055  0.88288  Biso   1.000  C
  C133     1.0000 0.10011  0.30580  0.84988  Biso   1.000  C
  C134     1.0000 0.30580  0.15012  0.89989  Biso   1.000  C
  H151     1.0000 0.10950  0.40101  0.75599  Biso   1.000  H
  C135     1.0000 0.14089  0.32566  0.88580  Biso   1.000  C
  H152     1.0000 0.19692  0.38679  0.89738  Biso   1.000  H
  H153     1.0000 0.38679  0.10262  0.80308  Biso   1.000  H
  C136     1.0000 0.33542  0.19803  0.91184  Biso   1.000  C
  H154     1.0000 0.40101  0.24401  0.89050  Biso   1.000  H
  H155     1.0000 0.08091  0.27272  0.85812  Biso   1.000  H
  H156     1.0000 0.27272  0.14188  0.91909  Biso   1.000  H
  C137     1.0000 0.15255  0.29468  0.93701  Biso   1.000  C
  C138     1.0000 0.31589  0.23453  0.95650  Biso   1.000  C
  N23      1.0000 0.19041  0.31070  0.96980  Biso   1.000  N
  H157     1.0000 0.13170  0.26259  0.94550  Biso   1.000  H
  N24      1.0000 0.27231  0.22468  0.98385  Biso   1.000  N
  H158     1.0000 0.33670  0.26658  0.96511  Biso   1.000  H
  C139     1.0000 0.19626  0.27935  0.02019  Biso   1.000  C
  C140     1.0000 0.25653  0.26238  0.02801  Biso   1.000  C
  C141     1.0000 0.17624  0.31495  0.06843  Biso   1.000  C
  H159     1.0000 0.17290  0.24549  0.01780  Biso   1.000  H
  C142     1.0000 0.26465  0.23379  0.08330  Biso   1.000  C
  H160     1.0000 0.28038  0.29591  0.02641  Biso   1.000  H
  C143     1.0000 0.18308  0.28512  0.12285  Biso   1.000  C
  H161     1.0000 0.19750  0.34980  0.06929  Biso   1.000  H
  H162     1.0000 0.13690  0.32430  0.06299  Biso   1.000  H
  C144     1.0000 0.24355  0.26868  0.13121  Biso   1.000  C
  H163     1.0000 0.24499  0.19811  0.08301  Biso   1.000  H
  H164     1.0000 0.30440  0.22621  0.08870  Biso   1.000  H
  H165     1.0000 0.17109  0.30938  0.15342  Biso   1.000  H
  H166     1.0000 0.15959  0.25179  0.12322  Biso   1.000  H
  H167     1.0000 0.26642  0.30230  0.13451  Biso   1.000  H
  H168     1.0000 0.24710  0.24759  0.16590  Biso   1.000  H
  C145     1.0000 0.28014  0.42527  0.30868  Biso   1.000  C
  C146     1.0000 0.24429  0.37394  0.30407  Biso   1.000  C
  C147     1.0000 0.24755  0.47697  0.29447  Biso   1.000  C
  H169     1.0000 0.29460  0.42840  0.34671  Biso   1.000  H
  H170     1.0000 0.31190  0.42189  0.28331  Biso   1.000  H
  C148     1.0000 0.22361  0.36895  0.24689  Biso   1.000  C
  H171     1.0000 0.26621  0.34090  0.31379  Biso   1.000  H
  H172     1.0000 0.21290  0.37662  0.32998  Biso   1.000  H
  C149     1.0000 0.22110  0.47232  0.23762  Biso   1.000  C
  N25      1.0000 0.28421  0.52472  0.29468  Biso   1.000  N
  H173     1.0000 0.21801  0.48249  0.32269  Biso   1.000  H
  C150     1.0000 0.18802  0.41942  0.23181  Biso   1.000  C
  H174     1.0000 0.20129  0.33501  0.24331  Biso   1.000  H
  H175     1.0000 0.25509  0.36632  0.22110  Biso   1.000  H
  N26      1.0000 0.18419  0.51953  0.23008  Biso   1.000  N
  H176     1.0000 0.25051  0.47318  0.20878  Biso   1.000  H
  C151     1.0000 0.27593  0.55936  0.33208  Biso   1.000  C
  H177     1.0000 0.15552  0.42090  0.25628  Biso   1.000  H
  H178     1.0000 0.17480  0.41579  0.19342  Biso   1.000  H
  C152     1.0000 0.19070  0.54791  0.18786  Biso   1.000  C
  C153     1.0000 0.31149  0.60839  0.33896  Biso   1.000  C
  H179     1.0000 0.24598  0.55401  0.35672  Biso   1.000  H
  C154     1.0000 0.15766  0.59751  0.17525  Biso   1.000  C
  H180     1.0000 0.21838  0.53712  0.16240  Biso   1.000  H
  C155     1.0000 0.30345  0.64398  0.38243  Biso   1.000  C
  C156     1.0000 0.35602  0.61757  0.30345  Biso   1.000  C
  C157     1.0000 0.16928  0.62643  0.12693  Biso   1.000  C
  C158     1.0000 0.11712  0.61790  0.21055  Biso   1.000  C
  C159     1.0000 0.33896  0.68851  0.39161  Biso   1.000  C
  H181     1.0000 0.27330  0.63821  0.40669  Biso   1.000  H
  C160     1.0000 0.39161  0.66104  0.31149  Biso   1.000  C
  H182     1.0000 0.36179  0.59331  0.27330  Biso   1.000  H
  C161     1.0000 0.14089  0.67434  0.11420  Biso   1.000  C
  H183     1.0000 0.19692  0.61321  0.10262  Biso   1.000  H
  C162     1.0000 0.08816  0.66458  0.19803  Biso   1.000  C
  H184     1.0000 0.10950  0.59899  0.24401  Biso   1.000  H
  C163     1.0000 0.33208  0.72407  0.44064  Biso   1.000  C
  C164     1.0000 0.38243  0.69655  0.35602  Biso   1.000  C
  C165     1.0000 0.44064  0.66792  0.27593  Biso   1.000  C
  C166     1.0000 0.15255  0.70532  0.06299  Biso   1.000  C
  C167     1.0000 0.10011  0.69420  0.15012  Biso   1.000  C
  C168     1.0000 0.04350  0.68411  0.23453  Biso   1.000  C
  N27      1.0000 0.29468  0.71579  0.47528  Biso   1.000  N
  H185     1.0000 0.35672  0.75402  0.44599  Biso   1.000  H
  H186     1.0000 0.40669  0.72670  0.36179  Biso   1.000  H
  N28      1.0000 0.47528  0.70532  0.28421  Biso   1.000  N
  H187     1.0000 0.44599  0.64328  0.24598  Biso   1.000  H
  N29      1.0000 0.19041  0.68930  0.03020  Biso   1.000  N
  H188     1.0000 0.13170  0.73741  0.05450  Biso   1.000  H
  H189     1.0000 0.08091  0.72728  0.14188  Biso   1.000  H
  N30      1.0000 0.01615  0.72769  0.22468  Biso   1.000  N
  H190     1.0000 0.03489  0.66330  0.26658  Biso   1.000  H
  C169     1.0000 0.29447  0.75245  0.52303  Biso   1.000  C
  C170     1.0000 0.52303  0.70553  0.24755  Biso   1.000  C
  C171     1.0000 0.19626  0.72065  0.97981  Biso   1.000  C
  C172     1.0000 0.97199  0.74347  0.26238  Biso   1.000  C
  C173     1.0000 0.23762  0.77890  0.52768  Biso   1.000  C
  C174     1.0000 0.30868  0.71986  0.57473  Biso   1.000  C
  H191     1.0000 0.32269  0.78199  0.51751  Biso   1.000  H
  C175     1.0000 0.52768  0.76238  0.22110  Biso   1.000  C
  C176     1.0000 0.57473  0.69132  0.28014  Biso   1.000  C
  H192     1.0000 0.51751  0.67731  0.21801  Biso   1.000  H
  C177     1.0000 0.25653  0.73762  0.97199  Biso   1.000  C
  C178     1.0000 0.17624  0.68505  0.93157  Biso   1.000  C
  H193     1.0000 0.17290  0.75451  0.98220  Biso   1.000  H
  C179     1.0000 0.97981  0.80374  0.27935  Biso   1.000  C
  C180     1.0000 0.91670  0.73535  0.23379  Biso   1.000  C
  H194     1.0000 0.97359  0.71962  0.29591  Biso   1.000  H
  N31      1.0000 0.23008  0.81581  0.48047  Biso   1.000  N
  C181     1.0000 0.23181  0.81198  0.58058  Biso   1.000  C
  H195     1.0000 0.20878  0.74949  0.52682  Biso   1.000  H
  C182     1.0000 0.30407  0.75571  0.62606  Biso   1.000  C
  H196     1.0000 0.34671  0.70540  0.57160  Biso   1.000  H
  H197     1.0000 0.28331  0.68810  0.57811  Biso   1.000  H
  N32      1.0000 0.48047  0.76992  0.18419  Biso   1.000  N
  C183     1.0000 0.58058  0.76819  0.18802  Biso   1.000  C
  H198     1.0000 0.52682  0.79122  0.25051  Biso   1.000  H
  C184     1.0000 0.62606  0.69593  0.24429  Biso   1.000  C
  H199     1.0000 0.57160  0.65329  0.29460  Biso   1.000  H
  H200     1.0000 0.57811  0.71669  0.31190  Biso   1.000  H
  N33      1.0000 0.27231  0.77532  0.01615  Biso   1.000  N
  C185     1.0000 0.26465  0.76621  0.91670  Biso   1.000  C
  H201     1.0000 0.28038  0.70409  0.97359  Biso   1.000  H
  C186     1.0000 0.18308  0.71488  0.87715  Biso   1.000  C
  H202     1.0000 0.19750  0.65020  0.93071  Biso   1.000  H
  H203     1.0000 0.13690  0.67570  0.93701  Biso   1.000  H
  N34      1.0000 0.03020  0.80959  0.31070  Biso   1.000  N
  C187     1.0000 0.93157  0.82376  0.31495  Biso   1.000  C
  H204     1.0000 0.98220  0.82710  0.24549  Biso   1.000  H
  C188     1.0000 0.86879  0.75645  0.26868  Biso   1.000  C
  H205     1.0000 0.91699  0.75501  0.19811  Biso   1.000  H
  H206     1.0000 0.91130  0.69560  0.22621  Biso   1.000  H
  C189     1.0000 0.18786  0.80930  0.45209  Biso   1.000  C
  C190     1.0000 0.24689  0.77639  0.63105  Biso   1.000  C
  H207     1.0000 0.25628  0.84448  0.57910  Biso   1.000  H
  H208     1.0000 0.19342  0.82520  0.58421  Biso   1.000  H
  H209     1.0000 0.31379  0.73379  0.65910  Biso   1.000  H
  H210     1.0000 0.32998  0.78710  0.62338  Biso   1.000  H
  C191     1.0000 0.45209  0.81214  0.19070  Biso   1.000  C
  C192     1.0000 0.63105  0.75311  0.22361  Biso   1.000  C
  H211     1.0000 0.57910  0.74372  0.15552  Biso   1.000  H
  H212     1.0000 0.58421  0.80658  0.17480  Biso   1.000  H
  H213     1.0000 0.65910  0.68621  0.26621  Biso   1.000  H
  H214     1.0000 0.62338  0.67002  0.21290  Biso   1.000  H
  C193     1.0000 0.31589  0.76547  0.04350  Biso   1.000  C
  C194     1.0000 0.24355  0.73132  0.86879  Biso   1.000  C
  H215     1.0000 0.24499  0.80189  0.91699  Biso   1.000  H
  H216     1.0000 0.30440  0.77379  0.91130  Biso   1.000  H
  H217     1.0000 0.17109  0.69062  0.84658  Biso   1.000  H
  H218     1.0000 0.15959  0.74821  0.87678  Biso   1.000  H
  C195     1.0000 0.06299  0.84745  0.29468  Biso   1.000  C
  C196     1.0000 0.87715  0.81692  0.28512  Biso   1.000  C
  H219     1.0000 0.93071  0.80250  0.34980  Biso   1.000  H
  H220     1.0000 0.93701  0.86310  0.32430  Biso   1.000  H
  H221     1.0000 0.86549  0.73358  0.30230  Biso   1.000  H
  H222     1.0000 0.83410  0.75290  0.24759  Biso   1.000  H
  C197     1.0000 0.17525  0.84234  0.40249  Biso   1.000  C
  H223     1.0000 0.16240  0.78162  0.46288  Biso   1.000  H
  H224     1.0000 0.24331  0.79871  0.66499  Biso   1.000  H
  H225     1.0000 0.22110  0.74491  0.63368  Biso   1.000  H
  C198     1.0000 0.40249  0.82475  0.15766  Biso   1.000  C
  H226     1.0000 0.46288  0.83760  0.21838  Biso   1.000  H
  H227     1.0000 0.66499  0.75669  0.20129  Biso   1.000  H
  H228     1.0000 0.63368  0.77890  0.25509  Biso   1.000  H
  C199     1.0000 0.33542  0.80197  0.08816  Biso   1.000  C
  H229     1.0000 0.33670  0.73342  0.03489  Biso   1.000  H
  H230     1.0000 0.26642  0.69770  0.86549  Biso   1.000  H
  H231     1.0000 0.24710  0.75241  0.83410  Biso   1.000  H
  C200     1.0000 0.11420  0.85911  0.32566  Biso   1.000  C
  H232     1.0000 0.05450  0.86830  0.26259  Biso   1.000  H
  H233     1.0000 0.84658  0.82891  0.30938  Biso   1.000  H
  H234     1.0000 0.87678  0.84041  0.25179  Biso   1.000  H
  C201     1.0000 0.12693  0.83072  0.37357  Biso   1.000  C
  C202     1.0000 0.21055  0.88288  0.38210  Biso   1.000  C
  C203     1.0000 0.38210  0.78945  0.11712  Biso   1.000  C
  C204     1.0000 0.37357  0.87307  0.16928  Biso   1.000  C
  C205     1.0000 0.30580  0.84988  0.10011  Biso   1.000  C
  C206     1.0000 0.15012  0.89989  0.30580  Biso   1.000  C
  H235     1.0000 0.10262  0.80308  0.38679  Biso   1.000  H
  C207     1.0000 0.19803  0.91184  0.33542  Biso   1.000  C
  H236     1.0000 0.24401  0.89050  0.40101  Biso   1.000  H
  H237     1.0000 0.40101  0.75599  0.10950  Biso   1.000  H
  C208     1.0000 0.32566  0.88580  0.14089  Biso   1.000  C
  H238     1.0000 0.38679  0.89738  0.19692  Biso   1.000  H
  H239     1.0000 0.27272  0.85812  0.08091  Biso   1.000  H
  H240     1.0000 0.14188  0.91909  0.27272  Biso   1.000  H
  C209     1.0000 0.23453  0.95650  0.31589  Biso   1.000  C
  C210     1.0000 0.29468  0.93701  0.15255  Biso   1.000  C
  N35      1.0000 0.22468  0.98385  0.27231  Biso   1.000  N
  H241     1.0000 0.26658  0.96511  0.33670  Biso   1.000  H
  N36      1.0000 0.31070  0.96980  0.19041  Biso   1.000  N
  H242     1.0000 0.26259  0.94550  0.13170  Biso   1.000  H
  C211     1.0000 0.26238  0.02801  0.25653  Biso   1.000  C
  C212     1.0000 0.27935  0.02019  0.19626  Biso   1.000  C
  C213     1.0000 0.23379  0.08330  0.26465  Biso   1.000  C
  H243     1.0000 0.29591  0.02641  0.28038  Biso   1.000  H
  C214     1.0000 0.31495  0.06843  0.17624  Biso   1.000  C
  H244     1.0000 0.24549  0.01780  0.17290  Biso   1.000  H
  C215     1.0000 0.26868  0.13121  0.24355  Biso   1.000  C
  H245     1.0000 0.19811  0.08301  0.24499  Biso   1.000  H
  H246     1.0000 0.22621  0.08870  0.30440  Biso   1.000  H
  C216     1.0000 0.28512  0.12285  0.18308  Biso   1.000  C
  H247     1.0000 0.34980  0.06929  0.19750  Biso   1.000  H
  H248     1.0000 0.32430  0.06299  0.13690  Biso   1.000  H
  H249     1.0000 0.30230  0.13451  0.26642  Biso   1.000  H
  H250     1.0000 0.24759  0.16590  0.24710  Biso   1.000  H
  H251     1.0000 0.30938  0.15342  0.17109  Biso   1.000  H
  H252     1.0000 0.25179  0.12322  0.15959  Biso   1.000  H
  C217     1.0000 0.49209  0.27659  0.46960  Biso   1.000  C
  N37      1.0000 0.45781  0.22946  0.45728  Biso   1.000  N
  C218     1.0000 0.50791  0.27659  0.53040  Biso   1.000  C
  H253     1.0000 0.47190  0.31091  0.46078  Biso   1.000  H
  H254     1.0000 0.52579  0.27540  0.44669  Biso   1.000  H
  C219     1.0000 0.47211  0.19951  0.41629  Biso   1.000  C
  N38      1.0000 0.54219  0.22946  0.54272  Biso   1.000  N
  H255     1.0000 0.52810  0.31091  0.53922  Biso   1.000  H
  H256     1.0000 0.47421  0.27540  0.55331  Biso   1.000  H
  C220     1.0000 0.44047  0.14983  0.40105  Biso   1.000  C
  H257     1.0000 0.50358  0.20940  0.39532  Biso   1.000  H
  C221     1.0000 0.52789  0.19951  0.58371  Biso   1.000  C
  C222     1.0000 0.45081  0.12025  0.35305  Biso   1.000  C
  C223     1.0000 0.39796  0.13286  0.43495  Biso   1.000  C
  C224     1.0000 0.55953  0.14983  0.59895  Biso   1.000  C
  H258     1.0000 0.49642  0.20940  0.60468  Biso   1.000  H
  C225     1.0000 0.42041  0.07337  0.33905  Biso   1.000  C
  H259     1.0000 0.47940  0.13220  0.32912  Biso   1.000  H
  C226     1.0000 0.36558  0.08832  0.42181  Biso   1.000  C
  H260     1.0000 0.39099  0.15251  0.46811  Biso   1.000  H
  C227     1.0000 0.54919  0.12025  0.64695  Biso   1.000  C
  C228     1.0000 0.60204  0.13286  0.56505  Biso   1.000  C
  C229     1.0000 0.37748  0.05821  0.37303  Biso   1.000  C
  C230     1.0000 0.43149  0.04021  0.28899  Biso   1.000  C
  C231     1.0000 0.31861  0.07321  0.45724  Biso   1.000  C
  C232     1.0000 0.57959  0.07337  0.66095  Biso   1.000  C
  H261     1.0000 0.52060  0.13220  0.67088  Biso   1.000  H
  C233     1.0000 0.63442  0.08832  0.57819  Biso   1.000  C
  H262     1.0000 0.60901  0.15251  0.53189  Biso   1.000  H
  H263     1.0000 0.35561  0.02711  0.36368  Biso   1.000  H
  N39      1.0000 0.46951  0.05203  0.25550  Biso   1.000  N
  H264     1.0000 0.40920  0.00890  0.28178  Biso   1.000  H
  N40      1.0000 0.28578  0.03234  0.44780  Biso   1.000  N
  H265     1.0000 0.31210  0.09492  0.48908  Biso   1.000  H
  C234     1.0000 0.62252  0.05821  0.62697  Biso   1.000  C
  C235     1.0000 0.56851  0.04021  0.71101  Biso   1.000  C
  C236     1.0000 0.68139  0.07321  0.54276  Biso   1.000  C
  C237     1.0000 0.47265  0.01598  0.20825  Biso   1.000  C
  C238     1.0000 0.24001  0.02711  0.48472  Biso   1.000  C
  H266     1.0000 0.64439  0.02711  0.63632  Biso   1.000  H
  N41      1.0000 0.53049  0.05203  0.74450  Biso   1.000  N
  H267     1.0000 0.59080  0.00890  0.71822  Biso   1.000  H
  N42      1.0000 0.71422  0.03234  0.55220  Biso   1.000  N
  H268     1.0000 0.68790  0.09492  0.51092  Biso   1.000  H
  H269     1.0000 0.46980  0.03811  0.17410  Biso   1.000  H
  C239     1.0000 0.52735  0.98402  0.20825  Biso   1.000  C
  H270     1.0000 0.44142  0.98978  0.20899  Biso   1.000  H
  H271     1.0000 0.20540  0.03049  0.46350  Biso   1.000  H
  H272     1.0000 0.24108  0.05772  0.51170  Biso   1.000  H
  C240     1.0000 0.24001  0.97289  0.51528  Biso   1.000  C
  C241     1.0000 0.52735  0.01598  0.79175  Biso   1.000  C
  C242     1.0000 0.75999  0.02711  0.51528  Biso   1.000  C
  H273     1.0000 0.55858  0.01022  0.20899  Biso   1.000  H
  N43      1.0000 0.53049  0.94797  0.25550  Biso   1.000  N
  H274     1.0000 0.53020  0.96189  0.17410  Biso   1.000  H
  N44      1.0000 0.28578  0.96766  0.55220  Biso   1.000  N
  H275     1.0000 0.20540  0.96951  0.53650  Biso   1.000  H
  H276     1.0000 0.24108  0.94228  0.48830  Biso   1.000  H
  H277     1.0000 0.53020  0.03811  0.82590  Biso   1.000  H
  C243     1.0000 0.47265  0.98402  0.79175  Biso   1.000  C
  H278     1.0000 0.55858  0.98978  0.79101  Biso   1.000  H
  C244     1.0000 0.75999  0.97289  0.48472  Biso   1.000  C
  H279     1.0000 0.79460  0.03049  0.53650  Biso   1.000  H
  H280     1.0000 0.75892  0.05772  0.48830  Biso   1.000  H
  C245     1.0000 0.56851  0.95979  0.28899  Biso   1.000  C
  C246     1.0000 0.31861  0.92679  0.54276  Biso   1.000  C
  N45      1.0000 0.46951  0.94797  0.74450  Biso   1.000  N
  H281     1.0000 0.44142  0.01022  0.79101  Biso   1.000  H
  H282     1.0000 0.46980  0.96189  0.82590  Biso   1.000  H
  N46      1.0000 0.71422  0.96766  0.44780  Biso   1.000  N
  H283     1.0000 0.79460  0.96951  0.46350  Biso   1.000  H
  H284     1.0000 0.75892  0.94228  0.51170  Biso   1.000  H
  C247     1.0000 0.57959  0.92663  0.33905  Biso   1.000  C
  H285     1.0000 0.59080  0.99110  0.28178  Biso   1.000  H
  C248     1.0000 0.36558  0.91168  0.57819  Biso   1.000  C
  H286     1.0000 0.31210  0.90508  0.51092  Biso   1.000  H
  C249     1.0000 0.43149  0.95979  0.71101  Biso   1.000  C
  C250     1.0000 0.68139  0.92679  0.45724  Biso   1.000  C
  C251     1.0000 0.62252  0.94179  0.37303  Biso   1.000  C
  C252     1.0000 0.54919  0.87975  0.35305  Biso   1.000  C
  C253     1.0000 0.37748  0.94179  0.62697  Biso   1.000  C
  C254     1.0000 0.39796  0.86714  0.56505  Biso   1.000  C
  C255     1.0000 0.42041  0.92663  0.66095  Biso   1.000  C
  H287     1.0000 0.40920  0.99110  0.71822  Biso   1.000  H
  C256     1.0000 0.63442  0.91168  0.42181  Biso   1.000  C
  H288     1.0000 0.68790  0.90508  0.48908  Biso   1.000  H
  H289     1.0000 0.64439  0.97289  0.36368  Biso   1.000  H
  C257     1.0000 0.55953  0.85017  0.40105  Biso   1.000  C
  H290     1.0000 0.52060  0.86780  0.32912  Biso   1.000  H
  H291     1.0000 0.35561  0.97289  0.63632  Biso   1.000  H
  C258     1.0000 0.44047  0.85017  0.59895  Biso   1.000  C
  H292     1.0000 0.39099  0.84749  0.53189  Biso   1.000  H
  C259     1.0000 0.45081  0.87975  0.64695  Biso   1.000  C
  C260     1.0000 0.60204  0.86714  0.43495  Biso   1.000  C
  C261     1.0000 0.52789  0.80049  0.41629  Biso   1.000  C
  C262     1.0000 0.47211  0.80049  0.58371  Biso   1.000  C
  H293     1.0000 0.47940  0.86780  0.67088  Biso   1.000  H
  H294     1.0000 0.60901  0.84749  0.46811  Biso   1.000  H
  N47      1.0000 0.54219  0.77054  0.45728  Biso   1.000  N
  H295     1.0000 0.49642  0.79060  0.39532  Biso   1.000  H
  N48      1.0000 0.45781  0.77054  0.54272  Biso   1.000  N
  H296     1.0000 0.50358  0.79060  0.60468  Biso   1.000  H
  C263     1.0000 0.50791  0.72341  0.46960  Biso   1.000  C
  C264     1.0000 0.49209  0.72341  0.53040  Biso   1.000  C
  H297     1.0000 0.52810  0.68909  0.46078  Biso   1.000  H
  H298     1.0000 0.47421  0.72460  0.44669  Biso   1.000  H
  H299     1.0000 0.47190  0.68909  0.53922  Biso   1.000  H
  H300     1.0000 0.52579  0.72460  0.55331  Biso   1.000  H
  C265     1.0000 0.46960  0.49209  0.27659  Biso   1.000  C
  N49      1.0000 0.45728  0.45781  0.22946  Biso   1.000  N
  C266     1.0000 0.53040  0.50791  0.27659  Biso   1.000  C
  H301     1.0000 0.46078  0.47190  0.31091  Biso   1.000  H
  H302     1.0000 0.44669  0.52579  0.27540  Biso   1.000  H
  C267     1.0000 0.41629  0.47211  0.19951  Biso   1.000  C
  N50      1.0000 0.54272  0.54219  0.22946  Biso   1.000  N
  H303     1.0000 0.53922  0.52810  0.31091  Biso   1.000  H
  H304     1.0000 0.55331  0.47421  0.27540  Biso   1.000  H
  C268     1.0000 0.40105  0.44047  0.14983  Biso   1.000  C
  H305     1.0000 0.39532  0.50358  0.20940  Biso   1.000  H
  C269     1.0000 0.58371  0.52789  0.19951  Biso   1.000  C
  C270     1.0000 0.43495  0.39796  0.13286  Biso   1.000  C
  C271     1.0000 0.35305  0.45081  0.12025  Biso   1.000  C
  C272     1.0000 0.59895  0.55953  0.14983  Biso   1.000  C
  H306     1.0000 0.60468  0.49642  0.20940  Biso   1.000  H
  C273     1.0000 0.42181  0.36558  0.08832  Biso   1.000  C
  H307     1.0000 0.46811  0.39099  0.15251  Biso   1.000  H
  C274     1.0000 0.33905  0.42041  0.07337  Biso   1.000  C
  H308     1.0000 0.32912  0.47940  0.13220  Biso   1.000  H
  C275     1.0000 0.64695  0.54919  0.12025  Biso   1.000  C
  C276     1.0000 0.56505  0.60204  0.13286  Biso   1.000  C
  C277     1.0000 0.45724  0.31861  0.07321  Biso   1.000  C
  C278     1.0000 0.37303  0.37748  0.05821  Biso   1.000  C
  C279     1.0000 0.28899  0.43149  0.04021  Biso   1.000  C
  C280     1.0000 0.66095  0.57959  0.07337  Biso   1.000  C
  H309     1.0000 0.67088  0.52060  0.13220  Biso   1.000  H
  C281     1.0000 0.57819  0.63442  0.08832  Biso   1.000  C
  H310     1.0000 0.53189  0.60901  0.15251  Biso   1.000  H
  N51      1.0000 0.44780  0.28578  0.03234  Biso   1.000  N
  H311     1.0000 0.48908  0.31210  0.09492  Biso   1.000  H
  H312     1.0000 0.36368  0.35561  0.02711  Biso   1.000  H
  N52      1.0000 0.25550  0.46951  0.05203  Biso   1.000  N
  H313     1.0000 0.28178  0.40920  0.00890  Biso   1.000  H
  C282     1.0000 0.62697  0.62252  0.05821  Biso   1.000  C
  C283     1.0000 0.71101  0.56851  0.04021  Biso   1.000  C
  C284     1.0000 0.54276  0.68139  0.07321  Biso   1.000  C
  C285     1.0000 0.48472  0.24001  0.02711  Biso   1.000  C
  C286     1.0000 0.20825  0.47265  0.01598  Biso   1.000  C
  H314     1.0000 0.63632  0.64439  0.02711  Biso   1.000  H
  N53      1.0000 0.74450  0.53049  0.05203  Biso   1.000  N
  H315     1.0000 0.71822  0.59080  0.00890  Biso   1.000  H
  N54      1.0000 0.55220  0.71422  0.03234  Biso   1.000  N
  H316     1.0000 0.51092  0.68790  0.09492  Biso   1.000  H
  H317     1.0000 0.46350  0.20540  0.03049  Biso   1.000  H
  H318     1.0000 0.51170  0.24108  0.05772  Biso   1.000  H
  C287     1.0000 0.51528  0.24001  0.97289  Biso   1.000  C
  H319     1.0000 0.17410  0.46980  0.03811  Biso   1.000  H
  C288     1.0000 0.20825  0.52735  0.98402  Biso   1.000  C
  H320     1.0000 0.20899  0.44142  0.98978  Biso   1.000  H
  C289     1.0000 0.79175  0.52735  0.01598  Biso   1.000  C
  C290     1.0000 0.51528  0.75999  0.02711  Biso   1.000  C
  N55      1.0000 0.55220  0.28578  0.96766  Biso   1.000  N
  H321     1.0000 0.53650  0.20540  0.96951  Biso   1.000  H
  H322     1.0000 0.48830  0.24108  0.94228  Biso   1.000  H
  H323     1.0000 0.20899  0.55858  0.01022  Biso   1.000  H
  N56      1.0000 0.25550  0.53049  0.94797  Biso   1.000  N
  H324     1.0000 0.17410  0.53020  0.96189  Biso   1.000  H
  C291     1.0000 0.79175  0.47265  0.98402  Biso   1.000  C
  H325     1.0000 0.82590  0.53020  0.03811  Biso   1.000  H
  H326     1.0000 0.79101  0.55858  0.98978  Biso   1.000  H
  C292     1.0000 0.48472  0.75999  0.97289  Biso   1.000  C
  H327     1.0000 0.53650  0.79460  0.03049  Biso   1.000  H
  H328     1.0000 0.48830  0.75892  0.05772  Biso   1.000  H
  C293     1.0000 0.54276  0.31861  0.92679  Biso   1.000  C
  C294     1.0000 0.28899  0.56851  0.95979  Biso   1.000  C
  N57      1.0000 0.74450  0.46951  0.94797  Biso   1.000  N
  H329     1.0000 0.79101  0.44142  0.01022  Biso   1.000  H
  H330     1.0000 0.82590  0.46980  0.96189  Biso   1.000  H
  N58      1.0000 0.44780  0.71422  0.96766  Biso   1.000  N
  H331     1.0000 0.46350  0.79460  0.96951  Biso   1.000  H
  H332     1.0000 0.51170  0.75892  0.94228  Biso   1.000  H
  C295     1.0000 0.57819  0.36558  0.91168  Biso   1.000  C
  H333     1.0000 0.51092  0.31210  0.90508  Biso   1.000  H
  C296     1.0000 0.33905  0.57959  0.92663  Biso   1.000  C
  H334     1.0000 0.28178  0.59080  0.99110  Biso   1.000  H
  C297     1.0000 0.71101  0.43149  0.95979  Biso   1.000  C
  C298     1.0000 0.45724  0.68139  0.92679  Biso   1.000  C
  C299     1.0000 0.62697  0.37748  0.94179  Biso   1.000  C
  C300     1.0000 0.56505  0.39796  0.86714  Biso   1.000  C
  C301     1.0000 0.37303  0.62252  0.94179  Biso   1.000  C
  C302     1.0000 0.35305  0.54919  0.87975  Biso   1.000  C
  C303     1.0000 0.66095  0.42041  0.92663  Biso   1.000  C
  H335     1.0000 0.71822  0.40920  0.99110  Biso   1.000  H
  C304     1.0000 0.42181  0.63442  0.91168  Biso   1.000  C
  H336     1.0000 0.48908  0.68790  0.90508  Biso   1.000  H
  H337     1.0000 0.63632  0.35561  0.97289  Biso   1.000  H
  C305     1.0000 0.59895  0.44047  0.85017  Biso   1.000  C
  H338     1.0000 0.53189  0.39099  0.84749  Biso   1.000  H
  H339     1.0000 0.36368  0.64439  0.97289  Biso   1.000  H
  C306     1.0000 0.40105  0.55953  0.85017  Biso   1.000  C
  H340     1.0000 0.32912  0.52060  0.86780  Biso   1.000  H
  C307     1.0000 0.64695  0.45081  0.87975  Biso   1.000  C
  C308     1.0000 0.43495  0.60204  0.86714  Biso   1.000  C
  C309     1.0000 0.58371  0.47211  0.80049  Biso   1.000  C
  C310     1.0000 0.41629  0.52789  0.80049  Biso   1.000  C
  H341     1.0000 0.67088  0.47940  0.86780  Biso   1.000  H
  H342     1.0000 0.46811  0.60901  0.84749  Biso   1.000  H
  N59      1.0000 0.54272  0.45781  0.77054  Biso   1.000  N
  H343     1.0000 0.60468  0.50358  0.79060  Biso   1.000  H
  N60      1.0000 0.45728  0.54219  0.77054  Biso   1.000  N
  H344     1.0000 0.39532  0.49642  0.79060  Biso   1.000  H
  C311     1.0000 0.53040  0.49209  0.72341  Biso   1.000  C
  C312     1.0000 0.46960  0.50791  0.72341  Biso   1.000  C
  H345     1.0000 0.53922  0.47190  0.68909  Biso   1.000  H
  H346     1.0000 0.55331  0.52579  0.72460  Biso   1.000  H
  H347     1.0000 0.46078  0.52810  0.68909  Biso   1.000  H
  H348     1.0000 0.44669  0.47421  0.72460  Biso   1.000  H
  C313     1.0000 0.27659  0.46960  0.49209  Biso   1.000  C
  N61      1.0000 0.22946  0.45728  0.45781  Biso   1.000  N
  C314     1.0000 0.27659  0.53040  0.50791  Biso   1.000  C
  H349     1.0000 0.31091  0.46078  0.47190  Biso   1.000  H
  H350     1.0000 0.27540  0.44669  0.52579  Biso   1.000  H
  C315     1.0000 0.19951  0.41629  0.47211  Biso   1.000  C
  N62      1.0000 0.22946  0.54272  0.54219  Biso   1.000  N
  H351     1.0000 0.31091  0.53922  0.52810  Biso   1.000  H
  H352     1.0000 0.27540  0.55331  0.47421  Biso   1.000  H
  C316     1.0000 0.14983  0.40105  0.44047  Biso   1.000  C
  H353     1.0000 0.20940  0.39532  0.50358  Biso   1.000  H
  C317     1.0000 0.19951  0.58371  0.52789  Biso   1.000  C
  C318     1.0000 0.12025  0.35305  0.45081  Biso   1.000  C
  C319     1.0000 0.13286  0.43495  0.39796  Biso   1.000  C
  C320     1.0000 0.14983  0.59895  0.55953  Biso   1.000  C
  H354     1.0000 0.20940  0.60468  0.49642  Biso   1.000  H
  C321     1.0000 0.07337  0.33905  0.42041  Biso   1.000  C
  H355     1.0000 0.13220  0.32912  0.47940  Biso   1.000  H
  C322     1.0000 0.08832  0.42181  0.36558  Biso   1.000  C
  H356     1.0000 0.15251  0.46811  0.39099  Biso   1.000  H
  C323     1.0000 0.12025  0.64695  0.54919  Biso   1.000  C
  C324     1.0000 0.13286  0.56505  0.60204  Biso   1.000  C
  C325     1.0000 0.05821  0.37303  0.37748  Biso   1.000  C
  C326     1.0000 0.04021  0.28899  0.43149  Biso   1.000  C
  C327     1.0000 0.07321  0.45724  0.31861  Biso   1.000  C
  C328     1.0000 0.07337  0.66095  0.57959  Biso   1.000  C
  H357     1.0000 0.13220  0.67088  0.52060  Biso   1.000  H
  C329     1.0000 0.08832  0.57819  0.63442  Biso   1.000  C
  H358     1.0000 0.15251  0.53189  0.60901  Biso   1.000  H
  H359     1.0000 0.02711  0.36368  0.35561  Biso   1.000  H
  N63      1.0000 0.05203  0.25550  0.46951  Biso   1.000  N
  H360     1.0000 0.00890  0.28178  0.40920  Biso   1.000  H
  N64      1.0000 0.03234  0.44780  0.28578  Biso   1.000  N
  H361     1.0000 0.09492  0.48908  0.31210  Biso   1.000  H
  C330     1.0000 0.05821  0.62697  0.62252  Biso   1.000  C
  C331     1.0000 0.04021  0.71101  0.56851  Biso   1.000  C
  C332     1.0000 0.07321  0.54276  0.68139  Biso   1.000  C
  C333     1.0000 0.01598  0.20825  0.47265  Biso   1.000  C
  C334     1.0000 0.02711  0.48472  0.24001  Biso   1.000  C
  H362     1.0000 0.02711  0.63632  0.64439  Biso   1.000  H
  N65      1.0000 0.05203  0.74450  0.53049  Biso   1.000  N
  H363     1.0000 0.00890  0.71822  0.59080  Biso   1.000  H
  N66      1.0000 0.03234  0.55220  0.71422  Biso   1.000  N
  H364     1.0000 0.09492  0.51092  0.68790  Biso   1.000  H
  H365     1.0000 0.03811  0.17410  0.46980  Biso   1.000  H
  C335     1.0000 0.98402  0.20825  0.52735  Biso   1.000  C
  H366     1.0000 0.98978  0.20899  0.44142  Biso   1.000  H
  H367     1.0000 0.03049  0.46350  0.20540  Biso   1.000  H
  H368     1.0000 0.05772  0.51170  0.24108  Biso   1.000  H
  C336     1.0000 0.97289  0.51528  0.24001  Biso   1.000  C
  C337     1.0000 0.01598  0.79175  0.52735  Biso   1.000  C
  C338     1.0000 0.02711  0.51528  0.75999  Biso   1.000  C
  H369     1.0000 0.01022  0.20899  0.55858  Biso   1.000  H
  N67      1.0000 0.94797  0.25550  0.53049  Biso   1.000  N
  H370     1.0000 0.96189  0.17410  0.53020  Biso   1.000  H
  N68      1.0000 0.96766  0.55220  0.28578  Biso   1.000  N
  H371     1.0000 0.96951  0.53650  0.20540  Biso   1.000  H
  H372     1.0000 0.94228  0.48830  0.24108  Biso   1.000  H
  H373     1.0000 0.03811  0.82590  0.53020  Biso   1.000  H
  C339     1.0000 0.98402  0.79175  0.47265  Biso   1.000  C
  H374     1.0000 0.98978  0.79101  0.55858  Biso   1.000  H
  C340     1.0000 0.97289  0.48472  0.75999  Biso   1.000  C
  H375     1.0000 0.03049  0.53650  0.79460  Biso   1.000  H
  H376     1.0000 0.05772  0.48830  0.75892  Biso   1.000  H
  C341     1.0000 0.95979  0.28899  0.56851  Biso   1.000  C
  C342     1.0000 0.92679  0.54276  0.31861  Biso   1.000  C
  N69      1.0000 0.94797  0.74450  0.46951  Biso   1.000  N
  H377     1.0000 0.01022  0.79101  0.44142  Biso   1.000  H
  H378     1.0000 0.96189  0.82590  0.46980  Biso   1.000  H
  N70      1.0000 0.96766  0.44780  0.71422  Biso   1.000  N
  H379     1.0000 0.96951  0.46350  0.79460  Biso   1.000  H
  H380     1.0000 0.94228  0.51170  0.75892  Biso   1.000  H
  C343     1.0000 0.92663  0.33905  0.57959  Biso   1.000  C
  H381     1.0000 0.99110  0.28178  0.59080  Biso   1.000  H
  C344     1.0000 0.91168  0.57819  0.36558  Biso   1.000  C
  H382     1.0000 0.90508  0.51092  0.31210  Biso   1.000  H
  C345     1.0000 0.95979  0.71101  0.43149  Biso   1.000  C
  C346     1.0000 0.92679  0.45724  0.68139  Biso   1.000  C
  C347     1.0000 0.94179  0.37303  0.62252  Biso   1.000  C
  C348     1.0000 0.87975  0.35305  0.54919  Biso   1.000  C
  C349     1.0000 0.94179  0.62697  0.37748  Biso   1.000  C
  C350     1.0000 0.86714  0.56505  0.39796  Biso   1.000  C
  C351     1.0000 0.92663  0.66095  0.42041  Biso   1.000  C
  H383     1.0000 0.99110  0.71822  0.40920  Biso   1.000  H
  C352     1.0000 0.91168  0.42181  0.63442  Biso   1.000  C
  H384     1.0000 0.90508  0.48908  0.68790  Biso   1.000  H
  H385     1.0000 0.97289  0.36368  0.64439  Biso   1.000  H
  C353     1.0000 0.85017  0.40105  0.55953  Biso   1.000  C
  H386     1.0000 0.86780  0.32912  0.52060  Biso   1.000  H
  H387     1.0000 0.97289  0.63632  0.35561  Biso   1.000  H
  C354     1.0000 0.85017  0.59895  0.44047  Biso   1.000  C
  H388     1.0000 0.84749  0.53189  0.39099  Biso   1.000  H
  C355     1.0000 0.87975  0.64695  0.45081  Biso   1.000  C
  C356     1.0000 0.86714  0.43495  0.60204  Biso   1.000  C
  C357     1.0000 0.80049  0.41629  0.52789  Biso   1.000  C
  C358     1.0000 0.80049  0.58371  0.47211  Biso   1.000  C
  H389     1.0000 0.86780  0.67088  0.47940  Biso   1.000  H
  H390     1.0000 0.84749  0.46811  0.60901  Biso   1.000  H
  N71      1.0000 0.77054  0.45728  0.54219  Biso   1.000  N
  H391     1.0000 0.79060  0.39532  0.49642  Biso   1.000  H
  N72      1.0000 0.77054  0.54272  0.45781  Biso   1.000  N
  H392     1.0000 0.79060  0.60468  0.50358  Biso   1.000  H
  C359     1.0000 0.72341  0.46960  0.50791  Biso   1.000  C
  C360     1.0000 0.72341  0.53040  0.49209  Biso   1.000  C
  H393     1.0000 0.68909  0.46078  0.52810  Biso   1.000  H
  H394     1.0000 0.72460  0.44669  0.47421  Biso   1.000  H
  H395     1.0000 0.68909  0.53922  0.47190  Biso   1.000  H
  H396     1.0000 0.72460  0.55331  0.52579  Biso   1.000  H
  C361     1.0000 0.71986  0.42527  0.69132  Biso   1.000  C
  C362     1.0000 0.75245  0.47697  0.70553  Biso   1.000  C
  C363     1.0000 0.75571  0.37394  0.69593  Biso   1.000  C
  H397     1.0000 0.70540  0.42840  0.65329  Biso   1.000  H
  H398     1.0000 0.68810  0.42189  0.71669  Biso   1.000  H
  N73      1.0000 0.71579  0.52472  0.70532  Biso   1.000  N
  C364     1.0000 0.77890  0.47232  0.76238  Biso   1.000  C
  H399     1.0000 0.78199  0.48249  0.67731  Biso   1.000  H
  C365     1.0000 0.77639  0.36895  0.75311  Biso   1.000  C
  H400     1.0000 0.73379  0.34090  0.68621  Biso   1.000  H
  H401     1.0000 0.78710  0.37662  0.67002  Biso   1.000  H
  C366     1.0000 0.72407  0.55936  0.66792  Biso   1.000  C
  N74      1.0000 0.81581  0.51953  0.76992  Biso   1.000  N
  C367     1.0000 0.81198  0.41942  0.76819  Biso   1.000  C
  H402     1.0000 0.74949  0.47318  0.79122  Biso   1.000  H
  H403     1.0000 0.79871  0.33501  0.75669  Biso   1.000  H
  H404     1.0000 0.74491  0.36632  0.77890  Biso   1.000  H
  C368     1.0000 0.68851  0.60839  0.66104  Biso   1.000  C
  H405     1.0000 0.75402  0.55401  0.64328  Biso   1.000  H
  C369     1.0000 0.80930  0.54791  0.81214  Biso   1.000  C
  H406     1.0000 0.84448  0.42090  0.74372  Biso   1.000  H
  H407     1.0000 0.82520  0.41579  0.80658  Biso   1.000  H
  C370     1.0000 0.69655  0.64398  0.61757  Biso   1.000  C
  C371     1.0000 0.64398  0.61757  0.69655  Biso   1.000  C
  C372     1.0000 0.84234  0.59751  0.82475  Biso   1.000  C
  H408     1.0000 0.78162  0.53712  0.83760  Biso   1.000  H
  C373     1.0000 0.66104  0.68851  0.60839  Biso   1.000  C
  H409     1.0000 0.72670  0.63821  0.59331  Biso   1.000  H
  C374     1.0000 0.60839  0.66104  0.68851  Biso   1.000  C
  H410     1.0000 0.63821  0.59331  0.72670  Biso   1.000  H
  C375     1.0000 0.83072  0.62643  0.87307  Biso   1.000  C
  C376     1.0000 0.88288  0.61790  0.78945  Biso   1.000  C
  C377     1.0000 0.66792  0.72407  0.55936  Biso   1.000  C
  C378     1.0000 0.61757  0.69655  0.64398  Biso   1.000  C
  C379     1.0000 0.55936  0.66792  0.72407  Biso   1.000  C
  C380     1.0000 0.85911  0.67434  0.88580  Biso   1.000  C
  H411     1.0000 0.80308  0.61321  0.89738  Biso   1.000  H
  C381     1.0000 0.91184  0.66458  0.80197  Biso   1.000  C
  H412     1.0000 0.89050  0.59899  0.75599  Biso   1.000  H
  N75      1.0000 0.70532  0.71579  0.52472  Biso   1.000  N
  H413     1.0000 0.64328  0.75402  0.55401  Biso   1.000  H
  H414     1.0000 0.59331  0.72670  0.63821  Biso   1.000  H
  N76      1.0000 0.52472  0.70532  0.71579  Biso   1.000  N
  H415     1.0000 0.55401  0.64328  0.75402  Biso   1.000  H
  C382     1.0000 0.84745  0.70532  0.93701  Biso   1.000  C
  C383     1.0000 0.89989  0.69420  0.84988  Biso   1.000  C
  C384     1.0000 0.95650  0.68411  0.76547  Biso   1.000  C
  C385     1.0000 0.70553  0.75245  0.47697  Biso   1.000  C
  C386     1.0000 0.47697  0.70553  0.75245  Biso   1.000  C
  N77      1.0000 0.80959  0.68930  0.96980  Biso   1.000  N
  H416     1.0000 0.86830  0.73741  0.94550  Biso   1.000  H
  H417     1.0000 0.91909  0.72728  0.85812  Biso   1.000  H
  N78      1.0000 0.98385  0.72769  0.77532  Biso   1.000  N
  H418     1.0000 0.96511  0.66330  0.73342  Biso   1.000  H
  C387     1.0000 0.76238  0.77890  0.47232  Biso   1.000  C
  C388     1.0000 0.69132  0.71986  0.42527  Biso   1.000  C
  H419     1.0000 0.67731  0.78199  0.48249  Biso   1.000  H
  C389     1.0000 0.47232  0.76238  0.77890  Biso   1.000  C
  C390     1.0000 0.42527  0.69132  0.71986  Biso   1.000  C
  H420     1.0000 0.48249  0.67731  0.78199  Biso   1.000  H
  C391     1.0000 0.80374  0.72065  0.02019  Biso   1.000  C
  C392     1.0000 0.02801  0.74347  0.73762  Biso   1.000  C
  N79      1.0000 0.76992  0.81581  0.51953  Biso   1.000  N
  C393     1.0000 0.76819  0.81198  0.41942  Biso   1.000  C
  H421     1.0000 0.79122  0.74949  0.47318  Biso   1.000  H
  C394     1.0000 0.69593  0.75571  0.37394  Biso   1.000  C
  H422     1.0000 0.65329  0.70540  0.42840  Biso   1.000  H
  H423     1.0000 0.71669  0.68810  0.42189  Biso   1.000  H
  N80      1.0000 0.51953  0.76992  0.81581  Biso   1.000  N
  C395     1.0000 0.41942  0.76819  0.81198  Biso   1.000  C
  H424     1.0000 0.47318  0.79122  0.74949  Biso   1.000  H
  C396     1.0000 0.37394  0.69593  0.75571  Biso   1.000  C
  H425     1.0000 0.42840  0.65329  0.70540  Biso   1.000  H
  H426     1.0000 0.42189  0.71669  0.68810  Biso   1.000  H
  C397     1.0000 0.74347  0.73762  0.02801  Biso   1.000  C
  C398     1.0000 0.82376  0.68505  0.06843  Biso   1.000  C
  H427     1.0000 0.82710  0.75451  0.01780  Biso   1.000  H
  C399     1.0000 0.02019  0.80374  0.72065  Biso   1.000  C
  C400     1.0000 0.08330  0.73535  0.76621  Biso   1.000  C
  H428     1.0000 0.02641  0.71962  0.70409  Biso   1.000  H
  C401     1.0000 0.81214  0.80930  0.54791  Biso   1.000  C
  C402     1.0000 0.75311  0.77639  0.36895  Biso   1.000  C
  H429     1.0000 0.74372  0.84448  0.42090  Biso   1.000  H
  H430     1.0000 0.80658  0.82520  0.41579  Biso   1.000  H
  H431     1.0000 0.68621  0.73379  0.34090  Biso   1.000  H
  H432     1.0000 0.67002  0.78710  0.37662  Biso   1.000  H
  C403     1.0000 0.54791  0.81214  0.80930  Biso   1.000  C
  C404     1.0000 0.36895  0.75311  0.77639  Biso   1.000  C
  H433     1.0000 0.42090  0.74372  0.84448  Biso   1.000  H
  H434     1.0000 0.41579  0.80658  0.82520  Biso   1.000  H
  H435     1.0000 0.34090  0.68621  0.73379  Biso   1.000  H
  H436     1.0000 0.37662  0.67002  0.78710  Biso   1.000  H
  N81      1.0000 0.72769  0.77532  0.98385  Biso   1.000  N
  C405     1.0000 0.73535  0.76621  0.08330  Biso   1.000  C
  H437     1.0000 0.71962  0.70409  0.02641  Biso   1.000  H
  C406     1.0000 0.81692  0.71488  0.12285  Biso   1.000  C
  H438     1.0000 0.80250  0.65020  0.06929  Biso   1.000  H
  H439     1.0000 0.86310  0.67570  0.06299  Biso   1.000  H
  N82      1.0000 0.96980  0.80959  0.68930  Biso   1.000  N
  C407     1.0000 0.06843  0.82376  0.68505  Biso   1.000  C
  H440     1.0000 0.01780  0.82710  0.75451  Biso   1.000  H
  C408     1.0000 0.13121  0.75645  0.73132  Biso   1.000  C
  H441     1.0000 0.08301  0.75501  0.80189  Biso   1.000  H
  H442     1.0000 0.08870  0.69560  0.77379  Biso   1.000  H
  C409     1.0000 0.82475  0.84234  0.59751  Biso   1.000  C
  H443     1.0000 0.83760  0.78162  0.53712  Biso   1.000  H
  H444     1.0000 0.75669  0.79871  0.33501  Biso   1.000  H
  H445     1.0000 0.77890  0.74491  0.36632  Biso   1.000  H
  C410     1.0000 0.59751  0.82475  0.84234  Biso   1.000  C
  H446     1.0000 0.53712  0.83760  0.78162  Biso   1.000  H
  H447     1.0000 0.33501  0.75669  0.79871  Biso   1.000  H
  H448     1.0000 0.36632  0.77890  0.74491  Biso   1.000  H
  C411     1.0000 0.68411  0.76547  0.95650  Biso   1.000  C
  C412     1.0000 0.75645  0.73132  0.13121  Biso   1.000  C
  H449     1.0000 0.75501  0.80189  0.08301  Biso   1.000  H
  H450     1.0000 0.69560  0.77379  0.08870  Biso   1.000  H
  H451     1.0000 0.82891  0.69062  0.15342  Biso   1.000  H
  H452     1.0000 0.84041  0.74821  0.12322  Biso   1.000  H
  C413     1.0000 0.93701  0.84745  0.70532  Biso   1.000  C
  C414     1.0000 0.12285  0.81692  0.71488  Biso   1.000  C
  H453     1.0000 0.06929  0.80250  0.65020  Biso   1.000  H
  H454     1.0000 0.06299  0.86310  0.67570  Biso   1.000  H
  H455     1.0000 0.13451  0.73358  0.69770  Biso   1.000  H
  H456     1.0000 0.16590  0.75290  0.75241  Biso   1.000  H
  C415     1.0000 0.87307  0.83072  0.62643  Biso   1.000  C
  C416     1.0000 0.78945  0.88288  0.61790  Biso   1.000  C
  C417     1.0000 0.62643  0.87307  0.83072  Biso   1.000  C
  C418     1.0000 0.61790  0.78945  0.88288  Biso   1.000  C
  C419     1.0000 0.66458  0.80197  0.91184  Biso   1.000  C
  H457     1.0000 0.66330  0.73342  0.96511  Biso   1.000  H
  H458     1.0000 0.73358  0.69770  0.13451  Biso   1.000  H
  H459     1.0000 0.75290  0.75241  0.16590  Biso   1.000  H
  C420     1.0000 0.88580  0.85911  0.67434  Biso   1.000  C
  H460     1.0000 0.94550  0.86830  0.73741  Biso   1.000  H
  H461     1.0000 0.15342  0.82891  0.69062  Biso   1.000  H
  H462     1.0000 0.12322  0.84041  0.74821  Biso   1.000  H
  H463     1.0000 0.89738  0.80308  0.61321  Biso   1.000  H
  C421     1.0000 0.80197  0.91184  0.66458  Biso   1.000  C
  H464     1.0000 0.75599  0.89050  0.59899  Biso   1.000  H
  C422     1.0000 0.67434  0.88580  0.85911  Biso   1.000  C
  H465     1.0000 0.61321  0.89738  0.80308  Biso   1.000  H
  H466     1.0000 0.59899  0.75599  0.89050  Biso   1.000  H
  C423     1.0000 0.69420  0.84988  0.89989  Biso   1.000  C
  C424     1.0000 0.84988  0.89989  0.69420  Biso   1.000  C
  C425     1.0000 0.76547  0.95650  0.68411  Biso   1.000  C
  C426     1.0000 0.70532  0.93701  0.84745  Biso   1.000  C
  H467     1.0000 0.72728  0.85812  0.91909  Biso   1.000  H
  H468     1.0000 0.85812  0.91909  0.72728  Biso   1.000  H
  N83      1.0000 0.77532  0.98385  0.72769  Biso   1.000  N
  H469     1.0000 0.73342  0.96511  0.66330  Biso   1.000  H
  N84      1.0000 0.68930  0.96980  0.80959  Biso   1.000  N
  H470     1.0000 0.73741  0.94550  0.86830  Biso   1.000  H
  C427     1.0000 0.73762  0.02801  0.74347  Biso   1.000  C
  C428     1.0000 0.72065  0.02019  0.80374  Biso   1.000  C
  C429     1.0000 0.76621  0.08330  0.73535  Biso   1.000  C
  H471     1.0000 0.70409  0.02641  0.71962  Biso   1.000  H
  C430     1.0000 0.68505  0.06843  0.82376  Biso   1.000  C
  H472     1.0000 0.75451  0.01780  0.82710  Biso   1.000  H
  C431     1.0000 0.73132  0.13121  0.75645  Biso   1.000  C
  H473     1.0000 0.80189  0.08301  0.75501  Biso   1.000  H
  H474     1.0000 0.77379  0.08870  0.69560  Biso   1.000  H
  C432     1.0000 0.71488  0.12285  0.81692  Biso   1.000  C
  H475     1.0000 0.65020  0.06929  0.80250  Biso   1.000  H
  H476     1.0000 0.67570  0.06299  0.86310  Biso   1.000  H
  H477     1.0000 0.69770  0.13451  0.73358  Biso   1.000  H
  H478     1.0000 0.75241  0.16590  0.75290  Biso   1.000  H
  H479     1.0000 0.69062  0.15342  0.82891  Biso   1.000  H
  H480     1.0000 0.74821  0.12322  0.84041  Biso   1.000  H
  C433     1.0000 0.13924  0.06196  0.12153  Biso   1.000  C
  C434     1.0000 0.09310  0.07543  0.15313  Biso   1.000  C
  C435     1.0000 0.15313  0.09310  0.07543  Biso   1.000  C
  H481     1.0000 0.16141  0.03131  0.13158  Biso   1.000  H
  C436     1.0000 0.07922  0.04091  0.20133  Biso   1.000  C
  C437     1.0000 0.06196  0.12153  0.13924  Biso   1.000  C
  C438     1.0000 0.20133  0.07922  0.04091  Biso   1.000  C
  C439     1.0000 0.12153  0.13924  0.06196  Biso   1.000  C
  N85      1.0000 0.03687  0.04939  0.22983  Biso   1.000  N
  H482     1.0000 0.10299  0.01141  0.21101  Biso   1.000  H
  C440     1.0000 0.07543  0.15313  0.09310  Biso   1.000  C
  H483     1.0000 0.03131  0.13158  0.16141  Biso   1.000  H
  N86      1.0000 0.22983  0.03687  0.04939  Biso   1.000  N
  H484     1.0000 0.21101  0.10299  0.01141  Biso   1.000  H
  H485     1.0000 0.13158  0.16141  0.03131  Biso   1.000  H
  C441     1.0000 0.02900  0.01228  0.27705  Biso   1.000  C
  C442     1.0000 0.04091  0.20133  0.07922  Biso   1.000  C
  C443     1.0000 0.27705  0.02900  0.01228  Biso   1.000  C
  H486     1.0000 0.03502  0.03300  0.31169  Biso   1.000  H
  C444     1.0000 0.97100  0.98772  0.27705  Biso   1.000  C
  H487     1.0000 0.05648  0.98220  0.27540  Biso   1.000  H
  N87      1.0000 0.04939  0.22983  0.03687  Biso   1.000  N
  H488     1.0000 0.01141  0.21101  0.10299  Biso   1.000  H
  H489     1.0000 0.31169  0.03502  0.03300  Biso   1.000  H
  C445     1.0000 0.27705  0.97100  0.98772  Biso   1.000  C
  H490     1.0000 0.27540  0.05648  0.98220  Biso   1.000  H
  N88      1.0000 0.96313  0.95061  0.22983  Biso   1.000  N
  H491     1.0000 0.96498  0.96700  0.31169  Biso   1.000  H
  H492     1.0000 0.94352  0.01780  0.27540  Biso   1.000  H
  C446     1.0000 0.01228  0.27705  0.02900  Biso   1.000  C
  N89      1.0000 0.22983  0.96313  0.95061  Biso   1.000  N
  H493     1.0000 0.31169  0.96498  0.96700  Biso   1.000  H
  H494     1.0000 0.27540  0.94352  0.01780  Biso   1.000  H
  C447     1.0000 0.92078  0.95909  0.20133  Biso   1.000  C
  H495     1.0000 0.03300  0.31169  0.03502  Biso   1.000  H
  C448     1.0000 0.98772  0.27705  0.97100  Biso   1.000  C
  H496     1.0000 0.98220  0.27540  0.05648  Biso   1.000  H
  C449     1.0000 0.20133  0.92078  0.95909  Biso   1.000  C
  C450     1.0000 0.90690  0.92457  0.15313  Biso   1.000  C
  H497     1.0000 0.89701  0.98859  0.21101  Biso   1.000  H
  N90      1.0000 0.95061  0.22983  0.96313  Biso   1.000  N
  H498     1.0000 0.96700  0.31169  0.96498  Biso   1.000  H
  H499     1.0000 0.01780  0.27540  0.94352  Biso   1.000  H
  C451     1.0000 0.15313  0.90690  0.92457  Biso   1.000  C
  H500     1.0000 0.21101  0.89701  0.98859  Biso   1.000  H
  C452     1.0000 0.86076  0.93804  0.12153  Biso   1.000  C
  C453     1.0000 0.93804  0.87847  0.13924  Biso   1.000  C
  C454     1.0000 0.95909  0.20133  0.92078  Biso   1.000  C
  C455     1.0000 0.13924  0.93804  0.87847  Biso   1.000  C
  C456     1.0000 0.12153  0.86076  0.93804  Biso   1.000  C
  C457     1.0000 0.84687  0.90690  0.07543  Biso   1.000  C
  H501     1.0000 0.83859  0.96869  0.13158  Biso   1.000  H
  C458     1.0000 0.92457  0.84687  0.09310  Biso   1.000  C
  H502     1.0000 0.96869  0.86842  0.16141  Biso   1.000  H
  C459     1.0000 0.92457  0.15313  0.90690  Biso   1.000  C
  H503     1.0000 0.98859  0.21101  0.89701  Biso   1.000  H
  C460     1.0000 0.09310  0.92457  0.84687  Biso   1.000  C
  H504     1.0000 0.16141  0.96869  0.86842  Biso   1.000  H
  C461     1.0000 0.07543  0.84687  0.90690  Biso   1.000  C
  H505     1.0000 0.13158  0.83859  0.96869  Biso   1.000  H
  C462     1.0000 0.79867  0.92078  0.04091  Biso   1.000  C
  C463     1.0000 0.87847  0.86076  0.06196  Biso   1.000  C
  C464     1.0000 0.95909  0.79867  0.07922  Biso   1.000  C
  C465     1.0000 0.87847  0.13924  0.93804  Biso   1.000  C
  C466     1.0000 0.93804  0.12153  0.86076  Biso   1.000  C
  C467     1.0000 0.07922  0.95909  0.79867  Biso   1.000  C
  C468     1.0000 0.06196  0.87847  0.86076  Biso   1.000  C
  C469     1.0000 0.04091  0.79867  0.92078  Biso   1.000  C
  N91      1.0000 0.77017  0.96313  0.04939  Biso   1.000  N
  H506     1.0000 0.78899  0.89701  0.01141  Biso   1.000  H
  H507     1.0000 0.86842  0.83859  0.03131  Biso   1.000  H
  N92      1.0000 0.95061  0.77017  0.03687  Biso   1.000  N
  H508     1.0000 0.98859  0.78899  0.10299  Biso   1.000  H
  C470     1.0000 0.84687  0.09310  0.92457  Biso   1.000  C
  H509     1.0000 0.86842  0.16141  0.96869  Biso   1.000  H
  C471     1.0000 0.90690  0.07543  0.84687  Biso   1.000  C
  H510     1.0000 0.96869  0.13158  0.83859  Biso   1.000  H
  N93      1.0000 0.03687  0.95061  0.77017  Biso   1.000  N
  H511     1.0000 0.10299  0.98859  0.78899  Biso   1.000  H
  H512     1.0000 0.03131  0.86842  0.83859  Biso   1.000  H
  N94      1.0000 0.04939  0.77017  0.96313  Biso   1.000  N
  H513     1.0000 0.01141  0.78899  0.89701  Biso   1.000  H
  C472     1.0000 0.72295  0.97100  0.01228  Biso   1.000  C
  C473     1.0000 0.98772  0.72295  0.02900  Biso   1.000  C
  C474     1.0000 0.79867  0.07922  0.95909  Biso   1.000  C
  C475     1.0000 0.86076  0.06196  0.87847  Biso   1.000  C
  C476     1.0000 0.92078  0.04091  0.79867  Biso   1.000  C
  C477     1.0000 0.02900  0.98772  0.72295  Biso   1.000  C
  C478     1.0000 0.01228  0.72295  0.97100  Biso   1.000  C
  H514     1.0000 0.72460  0.94352  0.98220  Biso   1.000  H
  H515     1.0000 0.68831  0.96498  0.03300  Biso   1.000  H
  C479     1.0000 0.72295  0.02900  0.98772  Biso   1.000  C
  H516     1.0000 0.96700  0.68831  0.03502  Biso   1.000  H
  H517     1.0000 0.01780  0.72460  0.05648  Biso   1.000  H
  N95      1.0000 0.77017  0.03687  0.95061  Biso   1.000  N
  H518     1.0000 0.78899  0.10299  0.98859  Biso   1.000  H
  H519     1.0000 0.83859  0.03131  0.86842  Biso   1.000  H
  N96      1.0000 0.96313  0.04939  0.77017  Biso   1.000  N
  H520     1.0000 0.89701  0.01141  0.78899  Biso   1.000  H
  C480     1.0000 0.97100  0.01228  0.72295  Biso   1.000  C
  H521     1.0000 0.03502  0.96700  0.68831  Biso   1.000  H
  H522     1.0000 0.05648  0.01780  0.72460  Biso   1.000  H
  H523     1.0000 0.98220  0.72460  0.94352  Biso   1.000  H
  H524     1.0000 0.03300  0.68831  0.96498  Biso   1.000  H
  H525     1.0000 0.68831  0.03502  0.96700  Biso   1.000  H
  H526     1.0000 0.72460  0.05648  0.01780  Biso   1.000  H
  H527     1.0000 0.94352  0.98220  0.72460  Biso   1.000  H
  H528     1.0000 0.96498  0.03300  0.68831  Biso   1.000  H
  Ne1      1.0000 0.75073  0.24927  0.24927  Biso   1.000  Ne
  He1      1.0000 0.82300  0.30139  0.32231  Biso   1.000  He
  He2      1.0000 0.67106  0.17156  0.30622  Biso   1.000  He
  He3      1.0000 0.70090  0.31917  0.17957  Biso   1.000  He
  He4      1.0000 0.81512  0.18488  0.18487  Biso   1.000  He
  Ar1      1.0000 0.75404  0.24596  0.24596  Biso   1.000  Ar
  Ne2      1.0000 0.24927  0.24927  0.75073  Biso   1.000  Ne
  He5      1.0000 0.18169  0.18168  0.81832  Biso   1.000  He
  He6      1.0000 0.30388  0.32574  0.82581  Biso   1.000  He
  He7      1.0000 0.31902  0.17970  0.70101  Biso   1.000  He
  He8      1.0000 0.18033  0.29843  0.68175  Biso   1.000  He
  Ar2      1.0000 0.24596  0.24596  0.75404  Biso   1.000  Ar
  Ne3      1.0000 0.24927  0.75073  0.24927  Biso   1.000  Ne
  He9      1.0000 0.17857  0.70001  0.32040  Biso   1.000  He
  He10     1.0000 0.32437  0.82469  0.30289  Biso   1.000  He
  He11     1.0000 0.30547  0.67208  0.17240  Biso   1.000  He
  He12     1.0000 0.18127  0.81873  0.18127  Biso   1.000  He
  Ar3      1.0000 0.24596  0.75404  0.24596  Biso   1.000  Ar
  Ne4      1.0000 0.50000  0.00000  0.50000  Biso   1.000  Ne
  He13     1.0000 0.43844  0.06334  0.56226  Biso   1.000  He
  He14     1.0000 0.56409  0.93444  0.56419  Biso   1.000  He
  He15     1.0000 0.43890  0.93706  0.43810  Biso   1.000  He
  He16     1.0000 0.56338  0.06493  0.43635  Biso   1.000  He
  Ar4      1.0000 0.50000  0.00000  0.50000  Biso   1.000  Ar
  Ne5      1.0000 0.50000  0.50000  0.00000  Biso   1.000  Ne
  He17     1.0000 0.56429  0.43577  0.06567  Biso   1.000  He
  He18     1.0000 0.42394  0.57960  0.07915  Biso   1.000  He
  He19     1.0000 0.56379  0.56357  0.93490  Biso   1.000  He
  He20     1.0000 0.42461  0.42127  0.92162  Biso   1.000  He
  Ar5      1.0000 0.50000  0.50000  0.00000  Biso   1.000  Ar
  Ne6      1.0000 0.00000  0.00000  0.00000  Biso   1.000  Ne
  He21     1.0000 0.92803  0.07197  0.07197  Biso   1.000  He
  He22     1.0000 0.06769  0.93230  0.06770  Biso   1.000  He
  He23     1.0000 0.93022  0.93022  0.93022  Biso   1.000  He
  He24     1.0000 0.06748  0.06748  0.93252  Biso   1.000  He
  Ar6      1.0000 0.00000  0.00000  0.00000  Biso   1.000  Ar
  Ne7      1.0000 0.00000  0.50000  0.50000  Biso   1.000  Ne
  He25     1.0000 0.93690  0.56205  0.56129  Biso   1.000  He
  He26     1.0000 0.05869  0.44180  0.55626  Biso   1.000  He
  He27     1.0000 0.93764  0.43860  0.43956  Biso   1.000  He
  He28     1.0000 0.07389  0.57147  0.42640  Biso   1.000  He
  Ar7      1.0000 0.00000  0.50000  0.50000  Biso   1.000  Ar
  Ne8      1.0000 0.75073  0.75073  0.75073  Biso   1.000  Ne
  He29     1.0000 0.81900  0.81900  0.81900  Biso   1.000  He
  He30     1.0000 0.69588  0.67395  0.82607  Biso   1.000  He
  He31     1.0000 0.67971  0.82135  0.70008  Biso   1.000  He
  He32     1.0000 0.82601  0.69594  0.67402  Biso   1.000  He
  Ar8      1.0000 0.75404  0.75404  0.75404  Biso   1.000  Ar
