data_image0
_cell_length_a       30.115
_cell_length_b       30.115
_cell_length_c       30.115
_cell_angle_alpha    90
_cell_angle_beta     90
_cell_angle_gamma    90

_symmetry_space_group_name_H-M    "P 1"
_symmetry_int_tables_number       1

loop_
  _symmetry_equiv_pos_as_xyz
  'x, y, z'

loop_
  _atom_site_label
  _atom_site_occupancy
  _atom_site_fract_x
  _atom_site_fract_y
  _atom_site_fract_z
  _atom_site_thermal_displace_type
  _atom_site_B_iso_or_equiv
  _atom_site_type_symbol
  C1       1.0000 0.49391  0.40740  0.48849  Biso   1.000  C
  C2       1.0000 0.53522  0.38097  0.48152  Biso   1.000  C
  C3       1.0000 0.46478  0.38097  0.51848  Biso   1.000  C
  H1       1.0000 0.50111  0.43639  0.50221  Biso   1.000  H
  H2       1.0000 0.49889  0.43639  0.49779  Biso   1.000  H
  H3       1.0000 0.47880  0.41288  0.45980  Biso   1.000  H
  C4       1.0000 0.52572  0.33399  0.49676  Biso   1.000  C
  H4       1.0000 0.55999  0.39379  0.49889  Biso   1.000  H
  H5       1.0000 0.54362  0.38111  0.44971  Biso   1.000  H
  C5       1.0000 0.50609  0.40740  0.51151  Biso   1.000  C
  C6       1.0000 0.47428  0.33399  0.50324  Biso   1.000  C
  H6       1.0000 0.44001  0.39379  0.50111  Biso   1.000  H
  H7       1.0000 0.45638  0.38111  0.55029  Biso   1.000  H
  N1       1.0000 0.54016  0.30078  0.46469  Biso   1.000  N
  H8       1.0000 0.54059  0.32851  0.52588  Biso   1.000  H
  H9       1.0000 0.52120  0.41288  0.54020  Biso   1.000  H
  N2       1.0000 0.45984  0.30078  0.53531  Biso   1.000  N
  H10      1.0000 0.45941  0.32851  0.47412  Biso   1.000  H
  C7       1.0000 0.56178  0.26897  0.47946  Biso   1.000  C
  C8       1.0000 0.43822  0.26897  0.52054  Biso   1.000  C
  C9       1.0000 0.57941  0.23287  0.45134  Biso   1.000  C
  H11      1.0000 0.56729  0.26781  0.51051  Biso   1.000  H
  H12      1.0000 0.43271  0.26781  0.48949  Biso   1.000  H
  C10      1.0000 0.42059  0.23287  0.54866  Biso   1.000  C
  C11      1.0000 0.59681  0.19442  0.47036  Biso   1.000  C
  C12      1.0000 0.57964  0.23580  0.40505  Biso   1.000  C
  C13      1.0000 0.42036  0.23580  0.59495  Biso   1.000  C
  C14      1.0000 0.40319  0.19442  0.52964  Biso   1.000  C
  C15      1.0000 0.61315  0.16029  0.44473  Biso   1.000  C
  H13      1.0000 0.59741  0.19170  0.50181  Biso   1.000  H
  C16      1.0000 0.59611  0.20159  0.37955  Biso   1.000  C
  H14      1.0000 0.56829  0.26170  0.39100  Biso   1.000  H
  C17      1.0000 0.40389  0.20159  0.62045  Biso   1.000  C
  H15      1.0000 0.43171  0.26170  0.60900  Biso   1.000  H
  C18      1.0000 0.38685  0.16029  0.55527  Biso   1.000  C
  H16      1.0000 0.40259  0.19170  0.49819  Biso   1.000  H
  C19      1.0000 0.61302  0.16304  0.39861  Biso   1.000  C
  H17      1.0000 0.62471  0.13448  0.45871  Biso   1.000  H
  H18      1.0000 0.59602  0.20442  0.34810  Biso   1.000  H
  C20      1.0000 0.38698  0.16304  0.60139  Biso   1.000  C
  H19      1.0000 0.40398  0.20442  0.65190  Biso   1.000  H
  H20      1.0000 0.37529  0.13448  0.54129  Biso   1.000  H
  N3       1.0000 0.62915  0.12917  0.37085  Biso   1.000  N
  N4       1.0000 0.37085  0.12917  0.62915  Biso   1.000  N
  C21      1.0000 0.60139  0.11303  0.33697  Biso   1.000  C
  C22      1.0000 0.66303  0.10141  0.38698  Biso   1.000  C
  C23      1.0000 0.33697  0.10141  0.61302  Biso   1.000  C
  C24      1.0000 0.39861  0.11303  0.66303  Biso   1.000  C
  C25      1.0000 0.55527  0.11313  0.33973  Biso   1.000  C
  C26      1.0000 0.62045  0.09613  0.29839  Biso   1.000  C
  C27      1.0000 0.66027  0.05529  0.38685  Biso   1.000  C
  C28      1.0000 0.70161  0.12047  0.40389  Biso   1.000  C
  C29      1.0000 0.33973  0.05529  0.61315  Biso   1.000  C
  C30      1.0000 0.29839  0.12047  0.59611  Biso   1.000  C
  C31      1.0000 0.44473  0.11313  0.66027  Biso   1.000  C
  C32      1.0000 0.37955  0.09613  0.70161  Biso   1.000  C
  C33      1.0000 0.52964  0.09683  0.30560  Biso   1.000  C
  H21      1.0000 0.54129  0.12469  0.36550  Biso   1.000  H
  C34      1.0000 0.59495  0.07963  0.26419  Biso   1.000  C
  H22      1.0000 0.65190  0.09600  0.29560  Biso   1.000  H
  H23      1.0000 0.63450  0.04131  0.37529  Biso   1.000  H
  C35      1.0000 0.69440  0.02965  0.40319  Biso   1.000  C
  H24      1.0000 0.70440  0.15188  0.40398  Biso   1.000  H
  C36      1.0000 0.73581  0.09494  0.42036  Biso   1.000  C
  H25      1.0000 0.36550  0.04131  0.62471  Biso   1.000  H
  C37      1.0000 0.30560  0.02965  0.59681  Biso   1.000  C
  H26      1.0000 0.29560  0.15188  0.59602  Biso   1.000  H
  C38      1.0000 0.26419  0.09494  0.57964  Biso   1.000  C
  H27      1.0000 0.45871  0.12469  0.63450  Biso   1.000  H
  C39      1.0000 0.47036  0.09683  0.69440  Biso   1.000  C
  H28      1.0000 0.34810  0.09600  0.70440  Biso   1.000  H
  C40      1.0000 0.40505  0.07963  0.73581  Biso   1.000  C
  C41      1.0000 0.54866  0.07940  0.26714  Biso   1.000  C
  H29      1.0000 0.49819  0.09739  0.30828  Biso   1.000  H
  H30      1.0000 0.60900  0.06830  0.23829  Biso   1.000  H
  C42      1.0000 0.73286  0.04865  0.42059  Biso   1.000  C
  H31      1.0000 0.69172  0.99821  0.40259  Biso   1.000  H
  H32      1.0000 0.76171  0.10902  0.43171  Biso   1.000  H
  C43      1.0000 0.26714  0.04865  0.57941  Biso   1.000  C
  H33      1.0000 0.30828  0.99821  0.59741  Biso   1.000  H
  H34      1.0000 0.23829  0.10902  0.56829  Biso   1.000  H
  C44      1.0000 0.45134  0.07940  0.73286  Biso   1.000  C
  H35      1.0000 0.50181  0.09739  0.69172  Biso   1.000  H
  H36      1.0000 0.39100  0.06830  0.76171  Biso   1.000  H
  C45      1.0000 0.52054  0.06176  0.23101  Biso   1.000  C
  C46      1.0000 0.76899  0.02055  0.43822  Biso   1.000  C
  C47      1.0000 0.23101  0.02055  0.56178  Biso   1.000  C
  C48      1.0000 0.47946  0.06176  0.76899  Biso   1.000  C
  N5       1.0000 0.53531  0.04015  0.19920  Biso   1.000  N
  H37      1.0000 0.48949  0.06731  0.23221  Biso   1.000  H
  N6       1.0000 0.80080  0.03533  0.45984  Biso   1.000  N
  H38      1.0000 0.76779  0.98951  0.43271  Biso   1.000  H
  N7       1.0000 0.19920  0.03533  0.54016  Biso   1.000  N
  H39      1.0000 0.23221  0.98951  0.56729  Biso   1.000  H
  N8       1.0000 0.46469  0.04015  0.80080  Biso   1.000  N
  H40      1.0000 0.51051  0.06731  0.76779  Biso   1.000  H
  C49      1.0000 0.50324  0.02570  0.16600  Biso   1.000  C
  C50      1.0000 0.83400  0.00322  0.47428  Biso   1.000  C
  C51      1.0000 0.16600  0.00322  0.52572  Biso   1.000  C
  C52      1.0000 0.49676  0.02570  0.83400  Biso   1.000  C
  H41      1.0000 0.47412  0.04061  0.17151  Biso   1.000  H
  C53      1.0000 0.51848  0.03523  0.11904  Biso   1.000  C
  C54      1.0000 0.49676  0.97430  0.16600  Biso   1.000  C
  C55      1.0000 0.88096  0.01846  0.46478  Biso   1.000  C
  C56      1.0000 0.83400  0.99678  0.52572  Biso   1.000  C
  H42      1.0000 0.82849  0.97410  0.45941  Biso   1.000  H
  C57      1.0000 0.16600  0.99678  0.47428  Biso   1.000  C
  C58      1.0000 0.11904  0.01846  0.53522  Biso   1.000  C
  H43      1.0000 0.17151  0.97410  0.54059  Biso   1.000  H
  C59      1.0000 0.50324  0.97430  0.83400  Biso   1.000  C
  H44      1.0000 0.52588  0.04061  0.82849  Biso   1.000  H
  C60      1.0000 0.48152  0.03523  0.88096  Biso   1.000  C
  H45      1.0000 0.50111  0.06000  0.10619  Biso   1.000  H
  H46      1.0000 0.55029  0.04360  0.11891  Biso   1.000  H
  C61      1.0000 0.48849  0.00608  0.09261  Biso   1.000  C
  C62      1.0000 0.51151  0.99392  0.09261  Biso   1.000  C
  N9       1.0000 0.46469  0.95985  0.19920  Biso   1.000  N
  H47      1.0000 0.52588  0.95939  0.17151  Biso   1.000  H
  C63      1.0000 0.48152  0.96477  0.11904  Biso   1.000  C
  H48      1.0000 0.89381  0.00110  0.44001  Biso   1.000  H
  H49      1.0000 0.88109  0.05031  0.45638  Biso   1.000  H
  C64      1.0000 0.90739  0.01149  0.50609  Biso   1.000  C
  C65      1.0000 0.90739  0.98851  0.49391  Biso   1.000  C
  H50      1.0000 0.82849  0.02590  0.54059  Biso   1.000  H
  N10      1.0000 0.80080  0.96467  0.54016  Biso   1.000  N
  C66      1.0000 0.88096  0.98154  0.53522  Biso   1.000  C
  N11      1.0000 0.19920  0.96467  0.45984  Biso   1.000  N
  H51      1.0000 0.17151  0.02590  0.45941  Biso   1.000  H
  C67      1.0000 0.11904  0.98154  0.46478  Biso   1.000  C
  C68      1.0000 0.09261  0.01149  0.49391  Biso   1.000  C
  C69      1.0000 0.09261  0.98851  0.50609  Biso   1.000  C
  H52      1.0000 0.10619  0.00110  0.55999  Biso   1.000  H
  H53      1.0000 0.11891  0.05031  0.54362  Biso   1.000  H
  N12      1.0000 0.53531  0.95985  0.80080  Biso   1.000  N
  H54      1.0000 0.47412  0.95939  0.82849  Biso   1.000  H
  C70      1.0000 0.51848  0.96477  0.88096  Biso   1.000  C
  C71      1.0000 0.51151  0.00608  0.90739  Biso   1.000  C
  C72      1.0000 0.48849  0.99392  0.90739  Biso   1.000  C
  H55      1.0000 0.49889  0.06000  0.89381  Biso   1.000  H
  H56      1.0000 0.44971  0.04360  0.88109  Biso   1.000  H
  H57      1.0000 0.49779  0.00110  0.06359  Biso   1.000  H
  H58      1.0000 0.45980  0.02119  0.08710  Biso   1.000  H
  H59      1.0000 0.50221  0.99890  0.06359  Biso   1.000  H
  H60      1.0000 0.54020  0.97881  0.08710  Biso   1.000  H
  C73      1.0000 0.47946  0.93824  0.23101  Biso   1.000  C
  H61      1.0000 0.49889  0.94000  0.10619  Biso   1.000  H
  H62      1.0000 0.44971  0.95640  0.11891  Biso   1.000  H
  H63      1.0000 0.93641  0.00219  0.50111  Biso   1.000  H
  H64      1.0000 0.91290  0.04021  0.52120  Biso   1.000  H
  H65      1.0000 0.93641  0.99781  0.49889  Biso   1.000  H
  H66      1.0000 0.91290  0.95979  0.47880  Biso   1.000  H
  C74      1.0000 0.76899  0.97945  0.56178  Biso   1.000  C
  H67      1.0000 0.89381  0.99890  0.55999  Biso   1.000  H
  H68      1.0000 0.88109  0.94969  0.54362  Biso   1.000  H
  C75      1.0000 0.23101  0.97945  0.43822  Biso   1.000  C
  H69      1.0000 0.10619  0.99890  0.44001  Biso   1.000  H
  H70      1.0000 0.11891  0.94969  0.45638  Biso   1.000  H
  H71      1.0000 0.06359  0.00219  0.49889  Biso   1.000  H
  H72      1.0000 0.08710  0.04021  0.47880  Biso   1.000  H
  H73      1.0000 0.06359  0.99781  0.50111  Biso   1.000  H
  H74      1.0000 0.08710  0.95979  0.52120  Biso   1.000  H
  C76      1.0000 0.52054  0.93824  0.76899  Biso   1.000  C
  H75      1.0000 0.50111  0.94000  0.89381  Biso   1.000  H
  H76      1.0000 0.55029  0.95640  0.88109  Biso   1.000  H
  H77      1.0000 0.50221  0.00110  0.93641  Biso   1.000  H
  H78      1.0000 0.54020  0.02119  0.91290  Biso   1.000  H
  H79      1.0000 0.49779  0.99890  0.93641  Biso   1.000  H
  H80      1.0000 0.45980  0.97881  0.91290  Biso   1.000  H
  H81      1.0000 0.51051  0.93269  0.23221  Biso   1.000  H
  C77      1.0000 0.45134  0.92060  0.26714  Biso   1.000  C
  H82      1.0000 0.76779  0.01049  0.56729  Biso   1.000  H
  C78      1.0000 0.73286  0.95135  0.57941  Biso   1.000  C
  C79      1.0000 0.26714  0.95135  0.42059  Biso   1.000  C
  H83      1.0000 0.23221  0.01049  0.43271  Biso   1.000  H
  C80      1.0000 0.54866  0.92060  0.73286  Biso   1.000  C
  H84      1.0000 0.48949  0.93269  0.76779  Biso   1.000  H
  C81      1.0000 0.40505  0.92037  0.26419  Biso   1.000  C
  C82      1.0000 0.47036  0.90317  0.30560  Biso   1.000  C
  C83      1.0000 0.73581  0.90506  0.57964  Biso   1.000  C
  C84      1.0000 0.69440  0.97035  0.59681  Biso   1.000  C
  C85      1.0000 0.30560  0.97035  0.40319  Biso   1.000  C
  C86      1.0000 0.26419  0.90506  0.42036  Biso   1.000  C
  C87      1.0000 0.52964  0.90317  0.69440  Biso   1.000  C
  C88      1.0000 0.59495  0.92037  0.73581  Biso   1.000  C
  C89      1.0000 0.37955  0.90387  0.29839  Biso   1.000  C
  H85      1.0000 0.39100  0.93170  0.23829  Biso   1.000  H
  C90      1.0000 0.44473  0.88687  0.33973  Biso   1.000  C
  H86      1.0000 0.50181  0.90261  0.30828  Biso   1.000  H
  C91      1.0000 0.70161  0.87953  0.59611  Biso   1.000  C
  H87      1.0000 0.76171  0.89098  0.56829  Biso   1.000  H
  H88      1.0000 0.69172  0.00179  0.59741  Biso   1.000  H
  C92      1.0000 0.66027  0.94471  0.61315  Biso   1.000  C
  C93      1.0000 0.33973  0.94471  0.38685  Biso   1.000  C
  H89      1.0000 0.30828  0.00179  0.40259  Biso   1.000  H
  C94      1.0000 0.29839  0.87953  0.40389  Biso   1.000  C
  H90      1.0000 0.23829  0.89098  0.43171  Biso   1.000  H
  C95      1.0000 0.55527  0.88687  0.66027  Biso   1.000  C
  H91      1.0000 0.49819  0.90261  0.69172  Biso   1.000  H
  C96      1.0000 0.62045  0.90387  0.70161  Biso   1.000  C
  H92      1.0000 0.60900  0.93170  0.76171  Biso   1.000  H
  C97      1.0000 0.39861  0.88697  0.33697  Biso   1.000  C
  H93      1.0000 0.34810  0.90400  0.29560  Biso   1.000  H
  H94      1.0000 0.45871  0.87531  0.36550  Biso   1.000  H
  C98      1.0000 0.66303  0.89859  0.61302  Biso   1.000  C
  H95      1.0000 0.70440  0.84812  0.59602  Biso   1.000  H
  H96      1.0000 0.63450  0.95869  0.62471  Biso   1.000  H
  C99      1.0000 0.33697  0.89859  0.38698  Biso   1.000  C
  H97      1.0000 0.36550  0.95869  0.37529  Biso   1.000  H
  H98      1.0000 0.29560  0.84812  0.40398  Biso   1.000  H
  C100     1.0000 0.60139  0.88697  0.66303  Biso   1.000  C
  H99      1.0000 0.54129  0.87531  0.63450  Biso   1.000  H
  H100     1.0000 0.65190  0.90400  0.70440  Biso   1.000  H
  N13      1.0000 0.37085  0.87083  0.37085  Biso   1.000  N
  N14      1.0000 0.62915  0.87083  0.62915  Biso   1.000  N
  C101     1.0000 0.38698  0.83696  0.39861  Biso   1.000  C
  C102     1.0000 0.61302  0.83696  0.60139  Biso   1.000  C
  C103     1.0000 0.38685  0.83971  0.44473  Biso   1.000  C
  C104     1.0000 0.40389  0.79841  0.37955  Biso   1.000  C
  C105     1.0000 0.61315  0.83971  0.55527  Biso   1.000  C
  C106     1.0000 0.59611  0.79841  0.62045  Biso   1.000  C
  H101     1.0000 0.37529  0.86552  0.45871  Biso   1.000  H
  C107     1.0000 0.40319  0.80558  0.47036  Biso   1.000  C
  H102     1.0000 0.40398  0.79558  0.34810  Biso   1.000  H
  C108     1.0000 0.42036  0.76420  0.40505  Biso   1.000  C
  H103     1.0000 0.62471  0.86552  0.54129  Biso   1.000  H
  C109     1.0000 0.59681  0.80558  0.52964  Biso   1.000  C
  H104     1.0000 0.59602  0.79558  0.65190  Biso   1.000  H
  C110     1.0000 0.57964  0.76420  0.59495  Biso   1.000  C
  C111     1.0000 0.42059  0.76713  0.45134  Biso   1.000  C
  H105     1.0000 0.40259  0.80830  0.50181  Biso   1.000  H
  H106     1.0000 0.43171  0.73830  0.39100  Biso   1.000  H
  C112     1.0000 0.57941  0.76713  0.54866  Biso   1.000  C
  H107     1.0000 0.59741  0.80830  0.49819  Biso   1.000  H
  H108     1.0000 0.56829  0.73830  0.60900  Biso   1.000  H
  C113     1.0000 0.43822  0.73103  0.47946  Biso   1.000  C
  C114     1.0000 0.56178  0.73103  0.52054  Biso   1.000  C
  N15      1.0000 0.45984  0.69922  0.46469  Biso   1.000  N
  H109     1.0000 0.43271  0.73219  0.51051  Biso   1.000  H
  N16      1.0000 0.54016  0.69922  0.53531  Biso   1.000  N
  H110     1.0000 0.56729  0.73219  0.48949  Biso   1.000  H
  C115     1.0000 0.47428  0.66601  0.49676  Biso   1.000  C
  C116     1.0000 0.52572  0.66601  0.50324  Biso   1.000  C
  H111     1.0000 0.45941  0.67149  0.52588  Biso   1.000  H
  C117     1.0000 0.46478  0.61903  0.48152  Biso   1.000  C
  H112     1.0000 0.54059  0.67149  0.47412  Biso   1.000  H
  C118     1.0000 0.53522  0.61903  0.51848  Biso   1.000  C
  H113     1.0000 0.44001  0.60621  0.49889  Biso   1.000  H
  H114     1.0000 0.45638  0.61889  0.44971  Biso   1.000  H
  C119     1.0000 0.49391  0.59260  0.51151  Biso   1.000  C
  C120     1.0000 0.50609  0.59260  0.48849  Biso   1.000  C
  H115     1.0000 0.55999  0.60621  0.50111  Biso   1.000  H
  H116     1.0000 0.54362  0.61889  0.55029  Biso   1.000  H
  H117     1.0000 0.50111  0.56361  0.49779  Biso   1.000  H
  H118     1.0000 0.49889  0.56361  0.50221  Biso   1.000  H
  H119     1.0000 0.47880  0.58712  0.54020  Biso   1.000  H
  H120     1.0000 0.52120  0.58712  0.45980  Biso   1.000  H
  C121     1.0000 0.48849  0.49391  0.40740  Biso   1.000  C
  C122     1.0000 0.51848  0.46478  0.38097  Biso   1.000  C
  C123     1.0000 0.48152  0.53522  0.38097  Biso   1.000  C
  H121     1.0000 0.50221  0.50111  0.43639  Biso   1.000  H
  H122     1.0000 0.49779  0.49889  0.43639  Biso   1.000  H
  H123     1.0000 0.45980  0.47880  0.41288  Biso   1.000  H
  C124     1.0000 0.50324  0.47428  0.33399  Biso   1.000  C
  H124     1.0000 0.50111  0.44001  0.39379  Biso   1.000  H
  H125     1.0000 0.55029  0.45638  0.38111  Biso   1.000  H
  C125     1.0000 0.51151  0.50609  0.40740  Biso   1.000  C
  C126     1.0000 0.49676  0.52572  0.33399  Biso   1.000  C
  H126     1.0000 0.49889  0.55999  0.39379  Biso   1.000  H
  H127     1.0000 0.44971  0.54362  0.38111  Biso   1.000  H
  N17      1.0000 0.53531  0.45984  0.30078  Biso   1.000  N
  H128     1.0000 0.47412  0.45941  0.32851  Biso   1.000  H
  H129     1.0000 0.54020  0.52120  0.41288  Biso   1.000  H
  N18      1.0000 0.46469  0.54016  0.30078  Biso   1.000  N
  H130     1.0000 0.52588  0.54059  0.32851  Biso   1.000  H
  C127     1.0000 0.52054  0.43822  0.26897  Biso   1.000  C
  C128     1.0000 0.47946  0.56178  0.26897  Biso   1.000  C
  C129     1.0000 0.54866  0.42059  0.23287  Biso   1.000  C
  H131     1.0000 0.48949  0.43271  0.26781  Biso   1.000  H
  H132     1.0000 0.51051  0.56729  0.26781  Biso   1.000  H
  C130     1.0000 0.45134  0.57941  0.23287  Biso   1.000  C
  C131     1.0000 0.52964  0.40319  0.19442  Biso   1.000  C
  C132     1.0000 0.59495  0.42036  0.23580  Biso   1.000  C
  C133     1.0000 0.40505  0.57964  0.23580  Biso   1.000  C
  C134     1.0000 0.47036  0.59681  0.19442  Biso   1.000  C
  C135     1.0000 0.55527  0.38685  0.16029  Biso   1.000  C
  H133     1.0000 0.49819  0.40259  0.19170  Biso   1.000  H
  C136     1.0000 0.62045  0.40389  0.20159  Biso   1.000  C
  H134     1.0000 0.60900  0.43171  0.26170  Biso   1.000  H
  C137     1.0000 0.37955  0.59611  0.20159  Biso   1.000  C
  H135     1.0000 0.39100  0.56829  0.26170  Biso   1.000  H
  C138     1.0000 0.44473  0.61315  0.16029  Biso   1.000  C
  H136     1.0000 0.50181  0.59741  0.19170  Biso   1.000  H
  C139     1.0000 0.60139  0.38698  0.16304  Biso   1.000  C
  H137     1.0000 0.54129  0.37529  0.13448  Biso   1.000  H
  H138     1.0000 0.65190  0.40398  0.20442  Biso   1.000  H
  C140     1.0000 0.39861  0.61302  0.16304  Biso   1.000  C
  H139     1.0000 0.34810  0.59602  0.20442  Biso   1.000  H
  H140     1.0000 0.45871  0.62471  0.13448  Biso   1.000  H
  N19      1.0000 0.62915  0.37085  0.12917  Biso   1.000  N
  N20      1.0000 0.37085  0.62915  0.12917  Biso   1.000  N
  C141     1.0000 0.66303  0.39861  0.11303  Biso   1.000  C
  C142     1.0000 0.61302  0.33697  0.10141  Biso   1.000  C
  C143     1.0000 0.33697  0.60139  0.11303  Biso   1.000  C
  C144     1.0000 0.38698  0.66303  0.10141  Biso   1.000  C
  C145     1.0000 0.66027  0.44473  0.11313  Biso   1.000  C
  C146     1.0000 0.70161  0.37955  0.09613  Biso   1.000  C
  C147     1.0000 0.61315  0.33973  0.05529  Biso   1.000  C
  C148     1.0000 0.59611  0.29839  0.12047  Biso   1.000  C
  C149     1.0000 0.33973  0.55527  0.11313  Biso   1.000  C
  C150     1.0000 0.29839  0.62045  0.09613  Biso   1.000  C
  C151     1.0000 0.38685  0.66027  0.05529  Biso   1.000  C
  C152     1.0000 0.40389  0.70161  0.12047  Biso   1.000  C
  H141     1.0000 0.63450  0.45871  0.12469  Biso   1.000  H
  C153     1.0000 0.69440  0.47036  0.09683  Biso   1.000  C
  H142     1.0000 0.70440  0.34810  0.09600  Biso   1.000  H
  C154     1.0000 0.73581  0.40505  0.07963  Biso   1.000  C
  H143     1.0000 0.62471  0.36550  0.04131  Biso   1.000  H
  C155     1.0000 0.59681  0.30560  0.02965  Biso   1.000  C
  H144     1.0000 0.59602  0.29560  0.15188  Biso   1.000  H
  C156     1.0000 0.57964  0.26419  0.09494  Biso   1.000  C
  H145     1.0000 0.36550  0.54129  0.12469  Biso   1.000  H
  C157     1.0000 0.30560  0.52964  0.09683  Biso   1.000  C
  H146     1.0000 0.29560  0.65190  0.09600  Biso   1.000  H
  C158     1.0000 0.26419  0.59495  0.07963  Biso   1.000  C
  H147     1.0000 0.37529  0.63450  0.04131  Biso   1.000  H
  C159     1.0000 0.40319  0.69440  0.02965  Biso   1.000  C
  H148     1.0000 0.40398  0.70440  0.15188  Biso   1.000  H
  C160     1.0000 0.42036  0.73581  0.09494  Biso   1.000  C
  C161     1.0000 0.73286  0.45134  0.07940  Biso   1.000  C
  H149     1.0000 0.69172  0.50181  0.09739  Biso   1.000  H
  H150     1.0000 0.76171  0.39100  0.06830  Biso   1.000  H
  C162     1.0000 0.57941  0.26714  0.04865  Biso   1.000  C
  H151     1.0000 0.59741  0.30828  0.99821  Biso   1.000  H
  H152     1.0000 0.56829  0.23829  0.10902  Biso   1.000  H
  C163     1.0000 0.26714  0.54866  0.07940  Biso   1.000  C
  H153     1.0000 0.30828  0.49819  0.09739  Biso   1.000  H
  H154     1.0000 0.23829  0.60900  0.06830  Biso   1.000  H
  C164     1.0000 0.42059  0.73286  0.04865  Biso   1.000  C
  H155     1.0000 0.40259  0.69172  0.99821  Biso   1.000  H
  H156     1.0000 0.43171  0.76171  0.10902  Biso   1.000  H
  C165     1.0000 0.76899  0.47946  0.06176  Biso   1.000  C
  C166     1.0000 0.56178  0.23101  0.02055  Biso   1.000  C
  C167     1.0000 0.23101  0.52054  0.06176  Biso   1.000  C
  C168     1.0000 0.43822  0.76899  0.02055  Biso   1.000  C
  N21      1.0000 0.80080  0.46469  0.04015  Biso   1.000  N
  H157     1.0000 0.76779  0.51051  0.06731  Biso   1.000  H
  N22      1.0000 0.54016  0.19920  0.03533  Biso   1.000  N
  H158     1.0000 0.56729  0.23221  0.98951  Biso   1.000  H
  N23      1.0000 0.19920  0.53531  0.04015  Biso   1.000  N
  H159     1.0000 0.23221  0.48949  0.06731  Biso   1.000  H
  N24      1.0000 0.45984  0.80080  0.03533  Biso   1.000  N
  H160     1.0000 0.43271  0.76779  0.98951  Biso   1.000  H
  C169     1.0000 0.83400  0.49676  0.02570  Biso   1.000  C
  C170     1.0000 0.52572  0.16600  0.00322  Biso   1.000  C
  C171     1.0000 0.16600  0.50324  0.02570  Biso   1.000  C
  C172     1.0000 0.47428  0.83400  0.00322  Biso   1.000  C
  H161     1.0000 0.82849  0.52588  0.04061  Biso   1.000  H
  C173     1.0000 0.88096  0.48152  0.03523  Biso   1.000  C
  C174     1.0000 0.83400  0.50324  0.97430  Biso   1.000  C
  C175     1.0000 0.53522  0.11904  0.01846  Biso   1.000  C
  C176     1.0000 0.47428  0.16600  0.99678  Biso   1.000  C
  H162     1.0000 0.54059  0.17151  0.97410  Biso   1.000  H
  H163     1.0000 0.17151  0.47412  0.04061  Biso   1.000  H
  C177     1.0000 0.11904  0.51848  0.03523  Biso   1.000  C
  C178     1.0000 0.16600  0.49676  0.97430  Biso   1.000  C
  C179     1.0000 0.46478  0.88096  0.01846  Biso   1.000  C
  C180     1.0000 0.52572  0.83400  0.99678  Biso   1.000  C
  H164     1.0000 0.45941  0.82849  0.97410  Biso   1.000  H
  H165     1.0000 0.89381  0.49889  0.06000  Biso   1.000  H
  H166     1.0000 0.88109  0.44971  0.04360  Biso   1.000  H
  C181     1.0000 0.90739  0.51151  0.00608  Biso   1.000  C
  C182     1.0000 0.90739  0.48849  0.99392  Biso   1.000  C
  N25      1.0000 0.80080  0.53531  0.95985  Biso   1.000  N
  H167     1.0000 0.82849  0.47412  0.95939  Biso   1.000  H
  C183     1.0000 0.88096  0.51848  0.96477  Biso   1.000  C
  H168     1.0000 0.55999  0.10619  0.00110  Biso   1.000  H
  H169     1.0000 0.54362  0.11891  0.05031  Biso   1.000  H
  C184     1.0000 0.49391  0.09261  0.01149  Biso   1.000  C
  C185     1.0000 0.50609  0.09261  0.98851  Biso   1.000  C
  H170     1.0000 0.45941  0.17151  0.02590  Biso   1.000  H
  N26      1.0000 0.45984  0.19920  0.96467  Biso   1.000  N
  C186     1.0000 0.46478  0.11904  0.98154  Biso   1.000  C
  H171     1.0000 0.10619  0.50111  0.06000  Biso   1.000  H
  H172     1.0000 0.11891  0.55029  0.04360  Biso   1.000  H
  C187     1.0000 0.09261  0.48849  0.00608  Biso   1.000  C
  C188     1.0000 0.09261  0.51151  0.99392  Biso   1.000  C
  N27      1.0000 0.19920  0.46469  0.95985  Biso   1.000  N
  H173     1.0000 0.17151  0.52588  0.95939  Biso   1.000  H
  C189     1.0000 0.11904  0.48152  0.96477  Biso   1.000  C
  H174     1.0000 0.44001  0.89381  0.00110  Biso   1.000  H
  H175     1.0000 0.45638  0.88109  0.05031  Biso   1.000  H
  C190     1.0000 0.50609  0.90739  0.01149  Biso   1.000  C
  C191     1.0000 0.49391  0.90739  0.98851  Biso   1.000  C
  H176     1.0000 0.54059  0.82849  0.02590  Biso   1.000  H
  N28      1.0000 0.54016  0.80080  0.96467  Biso   1.000  N
  C192     1.0000 0.53522  0.88096  0.98154  Biso   1.000  C
  H177     1.0000 0.93641  0.50221  0.00110  Biso   1.000  H
  H178     1.0000 0.91290  0.54020  0.02119  Biso   1.000  H
  H179     1.0000 0.93641  0.49779  0.99890  Biso   1.000  H
  H180     1.0000 0.91290  0.45980  0.97881  Biso   1.000  H
  C193     1.0000 0.76899  0.52054  0.93824  Biso   1.000  C
  H181     1.0000 0.89381  0.50111  0.94000  Biso   1.000  H
  H182     1.0000 0.88109  0.55029  0.95640  Biso   1.000  H
  H183     1.0000 0.49889  0.06359  0.00219  Biso   1.000  H
  H184     1.0000 0.47880  0.08710  0.04021  Biso   1.000  H
  H185     1.0000 0.50111  0.06359  0.99781  Biso   1.000  H
  H186     1.0000 0.52120  0.08710  0.95979  Biso   1.000  H
  C194     1.0000 0.43822  0.23101  0.97945  Biso   1.000  C
  H187     1.0000 0.44001  0.10619  0.99890  Biso   1.000  H
  H188     1.0000 0.45638  0.11891  0.94969  Biso   1.000  H
  H189     1.0000 0.06359  0.49779  0.00110  Biso   1.000  H
  H190     1.0000 0.08710  0.45980  0.02119  Biso   1.000  H
  H191     1.0000 0.06359  0.50221  0.99890  Biso   1.000  H
  H192     1.0000 0.08710  0.54020  0.97881  Biso   1.000  H
  C195     1.0000 0.23101  0.47946  0.93824  Biso   1.000  C
  H193     1.0000 0.10619  0.49889  0.94000  Biso   1.000  H
  H194     1.0000 0.11891  0.44971  0.95640  Biso   1.000  H
  H195     1.0000 0.50111  0.93641  0.00219  Biso   1.000  H
  H196     1.0000 0.52120  0.91290  0.04021  Biso   1.000  H
  H197     1.0000 0.49889  0.93641  0.99781  Biso   1.000  H
  H198     1.0000 0.47880  0.91290  0.95979  Biso   1.000  H
  C196     1.0000 0.56178  0.76899  0.97945  Biso   1.000  C
  H199     1.0000 0.55999  0.89381  0.99890  Biso   1.000  H
  H200     1.0000 0.54362  0.88109  0.94969  Biso   1.000  H
  H201     1.0000 0.76779  0.48949  0.93269  Biso   1.000  H
  C197     1.0000 0.73286  0.54866  0.92060  Biso   1.000  C
  H202     1.0000 0.43271  0.23221  0.01049  Biso   1.000  H
  C198     1.0000 0.42059  0.26714  0.95135  Biso   1.000  C
  C199     1.0000 0.26714  0.45134  0.92060  Biso   1.000  C
  H203     1.0000 0.23221  0.51051  0.93269  Biso   1.000  H
  C200     1.0000 0.57941  0.73286  0.95135  Biso   1.000  C
  H204     1.0000 0.56729  0.76779  0.01049  Biso   1.000  H
  C201     1.0000 0.73581  0.59495  0.92037  Biso   1.000  C
  C202     1.0000 0.69440  0.52964  0.90317  Biso   1.000  C
  C203     1.0000 0.42036  0.26419  0.90506  Biso   1.000  C
  C204     1.0000 0.40319  0.30560  0.97035  Biso   1.000  C
  C205     1.0000 0.30560  0.47036  0.90317  Biso   1.000  C
  C206     1.0000 0.26419  0.40505  0.92037  Biso   1.000  C
  C207     1.0000 0.59681  0.69440  0.97035  Biso   1.000  C
  C208     1.0000 0.57964  0.73581  0.90506  Biso   1.000  C
  C209     1.0000 0.70161  0.62045  0.90387  Biso   1.000  C
  H205     1.0000 0.76171  0.60900  0.93170  Biso   1.000  H
  C210     1.0000 0.66027  0.55527  0.88687  Biso   1.000  C
  H206     1.0000 0.69172  0.49819  0.90261  Biso   1.000  H
  C211     1.0000 0.40389  0.29839  0.87953  Biso   1.000  C
  H207     1.0000 0.43171  0.23829  0.89098  Biso   1.000  H
  H208     1.0000 0.40259  0.30828  0.00179  Biso   1.000  H
  C212     1.0000 0.38685  0.33973  0.94471  Biso   1.000  C
  C213     1.0000 0.33973  0.44473  0.88687  Biso   1.000  C
  H209     1.0000 0.30828  0.50181  0.90261  Biso   1.000  H
  C214     1.0000 0.29839  0.37955  0.90387  Biso   1.000  C
  H210     1.0000 0.23829  0.39100  0.93170  Biso   1.000  H
  C215     1.0000 0.61315  0.66027  0.94471  Biso   1.000  C
  H211     1.0000 0.59741  0.69172  0.00179  Biso   1.000  H
  C216     1.0000 0.59611  0.70161  0.87953  Biso   1.000  C
  H212     1.0000 0.56829  0.76171  0.89098  Biso   1.000  H
  C217     1.0000 0.66303  0.60139  0.88697  Biso   1.000  C
  H213     1.0000 0.70440  0.65190  0.90400  Biso   1.000  H
  H214     1.0000 0.63450  0.54129  0.87531  Biso   1.000  H
  C218     1.0000 0.38698  0.33697  0.89859  Biso   1.000  C
  H215     1.0000 0.40398  0.29560  0.84812  Biso   1.000  H
  H216     1.0000 0.37529  0.36550  0.95869  Biso   1.000  H
  C219     1.0000 0.33697  0.39861  0.88697  Biso   1.000  C
  H217     1.0000 0.36550  0.45871  0.87531  Biso   1.000  H
  H218     1.0000 0.29560  0.34810  0.90400  Biso   1.000  H
  C220     1.0000 0.61302  0.66303  0.89859  Biso   1.000  C
  H219     1.0000 0.62471  0.63450  0.95869  Biso   1.000  H
  H220     1.0000 0.59602  0.70440  0.84812  Biso   1.000  H
  N29      1.0000 0.62915  0.62915  0.87083  Biso   1.000  N
  N30      1.0000 0.37085  0.37085  0.87083  Biso   1.000  N
  C221     1.0000 0.60139  0.61302  0.83696  Biso   1.000  C
  C222     1.0000 0.39861  0.38698  0.83696  Biso   1.000  C
  C223     1.0000 0.55527  0.61315  0.83971  Biso   1.000  C
  C224     1.0000 0.62045  0.59611  0.79841  Biso   1.000  C
  C225     1.0000 0.44473  0.38685  0.83971  Biso   1.000  C
  C226     1.0000 0.37955  0.40389  0.79841  Biso   1.000  C
  H221     1.0000 0.54129  0.62471  0.86552  Biso   1.000  H
  C227     1.0000 0.52964  0.59681  0.80558  Biso   1.000  C
  H222     1.0000 0.65190  0.59602  0.79558  Biso   1.000  H
  C228     1.0000 0.59495  0.57964  0.76420  Biso   1.000  C
  H223     1.0000 0.45871  0.37529  0.86552  Biso   1.000  H
  C229     1.0000 0.47036  0.40319  0.80558  Biso   1.000  C
  H224     1.0000 0.34810  0.40398  0.79558  Biso   1.000  H
  C230     1.0000 0.40505  0.42036  0.76420  Biso   1.000  C
  C231     1.0000 0.54866  0.57941  0.76713  Biso   1.000  C
  H225     1.0000 0.49819  0.59741  0.80830  Biso   1.000  H
  H226     1.0000 0.60900  0.56829  0.73830  Biso   1.000  H
  C232     1.0000 0.45134  0.42059  0.76713  Biso   1.000  C
  H227     1.0000 0.50181  0.40259  0.80830  Biso   1.000  H
  H228     1.0000 0.39100  0.43171  0.73830  Biso   1.000  H
  C233     1.0000 0.52054  0.56178  0.73103  Biso   1.000  C
  C234     1.0000 0.47946  0.43822  0.73103  Biso   1.000  C
  N31      1.0000 0.53531  0.54016  0.69922  Biso   1.000  N
  H229     1.0000 0.48949  0.56729  0.73219  Biso   1.000  H
  N32      1.0000 0.46469  0.45984  0.69922  Biso   1.000  N
  H230     1.0000 0.51051  0.43271  0.73219  Biso   1.000  H
  C235     1.0000 0.50324  0.52572  0.66601  Biso   1.000  C
  C236     1.0000 0.49676  0.47428  0.66601  Biso   1.000  C
  H231     1.0000 0.47412  0.54059  0.67149  Biso   1.000  H
  C237     1.0000 0.51848  0.53522  0.61903  Biso   1.000  C
  H232     1.0000 0.52588  0.45941  0.67149  Biso   1.000  H
  C238     1.0000 0.48152  0.46478  0.61903  Biso   1.000  C
  H233     1.0000 0.50111  0.55999  0.60621  Biso   1.000  H
  H234     1.0000 0.55029  0.54362  0.61889  Biso   1.000  H
  C239     1.0000 0.51151  0.49391  0.59260  Biso   1.000  C
  C240     1.0000 0.48849  0.50609  0.59260  Biso   1.000  C
  H235     1.0000 0.49889  0.44001  0.60621  Biso   1.000  H
  H236     1.0000 0.44971  0.45638  0.61889  Biso   1.000  H
  H237     1.0000 0.49779  0.50111  0.56361  Biso   1.000  H
  H238     1.0000 0.50221  0.49889  0.56361  Biso   1.000  H
  H239     1.0000 0.54020  0.47880  0.58712  Biso   1.000  H
  H240     1.0000 0.45980  0.52120  0.58712  Biso   1.000  H
  C241     1.0000 0.40740  0.48849  0.49391  Biso   1.000  C
  C242     1.0000 0.38097  0.51848  0.46478  Biso   1.000  C
  C243     1.0000 0.38097  0.48152  0.53522  Biso   1.000  C
  H241     1.0000 0.43639  0.50221  0.50111  Biso   1.000  H
  H242     1.0000 0.43639  0.49779  0.49889  Biso   1.000  H
  H243     1.0000 0.41288  0.45980  0.47880  Biso   1.000  H
  C244     1.0000 0.33399  0.50324  0.47428  Biso   1.000  C
  H244     1.0000 0.39379  0.50111  0.44001  Biso   1.000  H
  H245     1.0000 0.38111  0.55029  0.45638  Biso   1.000  H
  C245     1.0000 0.40740  0.51151  0.50609  Biso   1.000  C
  C246     1.0000 0.33399  0.49676  0.52572  Biso   1.000  C
  H246     1.0000 0.39379  0.49889  0.55999  Biso   1.000  H
  H247     1.0000 0.38111  0.44971  0.54362  Biso   1.000  H
  N33      1.0000 0.30078  0.53531  0.45984  Biso   1.000  N
  H248     1.0000 0.32851  0.47412  0.45941  Biso   1.000  H
  H249     1.0000 0.41288  0.54020  0.52120  Biso   1.000  H
  N34      1.0000 0.30078  0.46469  0.54016  Biso   1.000  N
  H250     1.0000 0.32851  0.52588  0.54059  Biso   1.000  H
  C247     1.0000 0.26897  0.52054  0.43822  Biso   1.000  C
  C248     1.0000 0.26897  0.47946  0.56178  Biso   1.000  C
  C249     1.0000 0.23287  0.54866  0.42059  Biso   1.000  C
  H251     1.0000 0.26781  0.48949  0.43271  Biso   1.000  H
  H252     1.0000 0.26781  0.51051  0.56729  Biso   1.000  H
  C250     1.0000 0.23287  0.45134  0.57941  Biso   1.000  C
  C251     1.0000 0.19442  0.52964  0.40319  Biso   1.000  C
  C252     1.0000 0.23580  0.59495  0.42036  Biso   1.000  C
  C253     1.0000 0.23580  0.40505  0.57964  Biso   1.000  C
  C254     1.0000 0.19442  0.47036  0.59681  Biso   1.000  C
  C255     1.0000 0.16029  0.55527  0.38685  Biso   1.000  C
  H253     1.0000 0.19170  0.49819  0.40259  Biso   1.000  H
  C256     1.0000 0.20159  0.62045  0.40389  Biso   1.000  C
  H254     1.0000 0.26170  0.60900  0.43171  Biso   1.000  H
  C257     1.0000 0.20159  0.37955  0.59611  Biso   1.000  C
  H255     1.0000 0.26170  0.39100  0.56829  Biso   1.000  H
  C258     1.0000 0.16029  0.44473  0.61315  Biso   1.000  C
  H256     1.0000 0.19170  0.50181  0.59741  Biso   1.000  H
  C259     1.0000 0.16304  0.60139  0.38698  Biso   1.000  C
  H257     1.0000 0.13448  0.54129  0.37529  Biso   1.000  H
  H258     1.0000 0.20442  0.65190  0.40398  Biso   1.000  H
  C260     1.0000 0.16304  0.39861  0.61302  Biso   1.000  C
  H259     1.0000 0.20442  0.34810  0.59602  Biso   1.000  H
  H260     1.0000 0.13448  0.45871  0.62471  Biso   1.000  H
  N35      1.0000 0.12917  0.62915  0.37085  Biso   1.000  N
  N36      1.0000 0.12917  0.37085  0.62915  Biso   1.000  N
  C261     1.0000 0.10141  0.61302  0.33697  Biso   1.000  C
  C262     1.0000 0.11303  0.66303  0.39861  Biso   1.000  C
  C263     1.0000 0.11303  0.33697  0.60139  Biso   1.000  C
  C264     1.0000 0.10141  0.38698  0.66303  Biso   1.000  C
  C265     1.0000 0.05529  0.61315  0.33973  Biso   1.000  C
  C266     1.0000 0.12047  0.59611  0.29839  Biso   1.000  C
  C267     1.0000 0.11313  0.66027  0.44473  Biso   1.000  C
  C268     1.0000 0.09613  0.70161  0.37955  Biso   1.000  C
  C269     1.0000 0.11313  0.33973  0.55527  Biso   1.000  C
  C270     1.0000 0.09613  0.29839  0.62045  Biso   1.000  C
  C271     1.0000 0.05529  0.38685  0.66027  Biso   1.000  C
  C272     1.0000 0.12047  0.40389  0.70161  Biso   1.000  C
  H261     1.0000 0.04131  0.62471  0.36550  Biso   1.000  H
  C273     1.0000 0.02965  0.59681  0.30560  Biso   1.000  C
  H262     1.0000 0.15188  0.59602  0.29560  Biso   1.000  H
  C274     1.0000 0.09494  0.57964  0.26419  Biso   1.000  C
  H263     1.0000 0.12469  0.63450  0.45871  Biso   1.000  H
  C275     1.0000 0.09683  0.69440  0.47036  Biso   1.000  C
  H264     1.0000 0.09600  0.70440  0.34810  Biso   1.000  H
  C276     1.0000 0.07963  0.73581  0.40505  Biso   1.000  C
  H265     1.0000 0.12469  0.36550  0.54129  Biso   1.000  H
  C277     1.0000 0.09683  0.30560  0.52964  Biso   1.000  C
  H266     1.0000 0.09600  0.29560  0.65190  Biso   1.000  H
  C278     1.0000 0.07963  0.26419  0.59495  Biso   1.000  C
  H267     1.0000 0.04131  0.37529  0.63450  Biso   1.000  H
  C279     1.0000 0.02965  0.40319  0.69440  Biso   1.000  C
  H268     1.0000 0.15188  0.40398  0.70440  Biso   1.000  H
  C280     1.0000 0.09494  0.42036  0.73581  Biso   1.000  C
  C281     1.0000 0.04865  0.57941  0.26714  Biso   1.000  C
  H269     1.0000 0.99821  0.59741  0.30828  Biso   1.000  H
  H270     1.0000 0.10902  0.56829  0.23829  Biso   1.000  H
  C282     1.0000 0.07940  0.73286  0.45134  Biso   1.000  C
  H271     1.0000 0.09739  0.69172  0.50181  Biso   1.000  H
  H272     1.0000 0.06830  0.76171  0.39100  Biso   1.000  H
  C283     1.0000 0.07940  0.26714  0.54866  Biso   1.000  C
  H273     1.0000 0.09739  0.30828  0.49819  Biso   1.000  H
  H274     1.0000 0.06830  0.23829  0.60900  Biso   1.000  H
  C284     1.0000 0.04865  0.42059  0.73286  Biso   1.000  C
  H275     1.0000 0.99821  0.40259  0.69172  Biso   1.000  H
  H276     1.0000 0.10902  0.43171  0.76171  Biso   1.000  H
  C285     1.0000 0.02055  0.56178  0.23101  Biso   1.000  C
  C286     1.0000 0.06176  0.76899  0.47946  Biso   1.000  C
  C287     1.0000 0.06176  0.23101  0.52054  Biso   1.000  C
  C288     1.0000 0.02055  0.43822  0.76899  Biso   1.000  C
  N37      1.0000 0.03533  0.54016  0.19920  Biso   1.000  N
  H277     1.0000 0.98951  0.56729  0.23221  Biso   1.000  H
  N38      1.0000 0.04015  0.80080  0.46469  Biso   1.000  N
  H278     1.0000 0.06731  0.76779  0.51051  Biso   1.000  H
  N39      1.0000 0.04015  0.19920  0.53531  Biso   1.000  N
  H279     1.0000 0.06731  0.23221  0.48949  Biso   1.000  H
  N40      1.0000 0.03533  0.45984  0.80080  Biso   1.000  N
  H280     1.0000 0.98951  0.43271  0.76779  Biso   1.000  H
  C289     1.0000 0.00322  0.52572  0.16600  Biso   1.000  C
  C290     1.0000 0.02570  0.83400  0.49676  Biso   1.000  C
  C291     1.0000 0.02570  0.16600  0.50324  Biso   1.000  C
  C292     1.0000 0.00322  0.47428  0.83400  Biso   1.000  C
  C293     1.0000 0.01846  0.53522  0.11904  Biso   1.000  C
  C294     1.0000 0.99678  0.47428  0.16600  Biso   1.000  C
  H281     1.0000 0.97410  0.54059  0.17151  Biso   1.000  H
  H282     1.0000 0.04061  0.82849  0.52588  Biso   1.000  H
  C295     1.0000 0.03523  0.88096  0.48152  Biso   1.000  C
  C296     1.0000 0.97430  0.83400  0.50324  Biso   1.000  C
  H283     1.0000 0.04061  0.17151  0.47412  Biso   1.000  H
  C297     1.0000 0.03523  0.11904  0.51848  Biso   1.000  C
  C298     1.0000 0.97430  0.16600  0.49676  Biso   1.000  C
  C299     1.0000 0.01846  0.46478  0.88096  Biso   1.000  C
  C300     1.0000 0.99678  0.52572  0.83400  Biso   1.000  C
  H284     1.0000 0.97410  0.45941  0.82849  Biso   1.000  H
  H285     1.0000 0.00110  0.55999  0.10619  Biso   1.000  H
  H286     1.0000 0.05031  0.54362  0.11891  Biso   1.000  H
  C301     1.0000 0.01149  0.49391  0.09261  Biso   1.000  C
  C302     1.0000 0.98851  0.50609  0.09261  Biso   1.000  C
  H287     1.0000 0.02590  0.45941  0.17151  Biso   1.000  H
  N41      1.0000 0.96467  0.45984  0.19920  Biso   1.000  N
  C303     1.0000 0.98154  0.46478  0.11904  Biso   1.000  C
  H288     1.0000 0.06000  0.89381  0.49889  Biso   1.000  H
  H289     1.0000 0.04360  0.88109  0.44971  Biso   1.000  H
  C304     1.0000 0.00608  0.90739  0.51151  Biso   1.000  C
  C305     1.0000 0.99392  0.90739  0.48849  Biso   1.000  C
  N42      1.0000 0.95985  0.80080  0.53531  Biso   1.000  N
  H290     1.0000 0.95939  0.82849  0.47412  Biso   1.000  H
  C306     1.0000 0.96477  0.88096  0.51848  Biso   1.000  C
  H291     1.0000 0.06000  0.10619  0.50111  Biso   1.000  H
  H292     1.0000 0.04360  0.11891  0.55029  Biso   1.000  H
  C307     1.0000 0.00608  0.09261  0.48849  Biso   1.000  C
  C308     1.0000 0.99392  0.09261  0.51151  Biso   1.000  C
  N43      1.0000 0.95985  0.19920  0.46469  Biso   1.000  N
  H293     1.0000 0.95939  0.17151  0.52588  Biso   1.000  H
  C309     1.0000 0.96477  0.11904  0.48152  Biso   1.000  C
  H294     1.0000 0.00110  0.44001  0.89381  Biso   1.000  H
  H295     1.0000 0.05031  0.45638  0.88109  Biso   1.000  H
  C310     1.0000 0.01149  0.50609  0.90739  Biso   1.000  C
  C311     1.0000 0.98851  0.49391  0.90739  Biso   1.000  C
  H296     1.0000 0.02590  0.54059  0.82849  Biso   1.000  H
  N44      1.0000 0.96467  0.54016  0.80080  Biso   1.000  N
  C312     1.0000 0.98154  0.53522  0.88096  Biso   1.000  C
  H297     1.0000 0.00219  0.49889  0.06359  Biso   1.000  H
  H298     1.0000 0.04021  0.47880  0.08710  Biso   1.000  H
  H299     1.0000 0.99781  0.50111  0.06359  Biso   1.000  H
  H300     1.0000 0.95979  0.52120  0.08710  Biso   1.000  H
  C313     1.0000 0.97945  0.43822  0.23101  Biso   1.000  C
  H301     1.0000 0.99890  0.44001  0.10619  Biso   1.000  H
  H302     1.0000 0.94969  0.45638  0.11891  Biso   1.000  H
  H303     1.0000 0.00110  0.93641  0.50221  Biso   1.000  H
  H304     1.0000 0.02119  0.91290  0.54020  Biso   1.000  H
  H305     1.0000 0.99890  0.93641  0.49779  Biso   1.000  H
  H306     1.0000 0.97881  0.91290  0.45980  Biso   1.000  H
  C314     1.0000 0.93824  0.76899  0.52054  Biso   1.000  C
  H307     1.0000 0.94000  0.89381  0.50111  Biso   1.000  H
  H308     1.0000 0.95640  0.88109  0.55029  Biso   1.000  H
  H309     1.0000 0.00110  0.06359  0.49779  Biso   1.000  H
  H310     1.0000 0.02119  0.08710  0.45980  Biso   1.000  H
  H311     1.0000 0.99890  0.06359  0.50221  Biso   1.000  H
  H312     1.0000 0.97881  0.08710  0.54020  Biso   1.000  H
  C315     1.0000 0.93824  0.23101  0.47946  Biso   1.000  C
  H313     1.0000 0.94000  0.10619  0.49889  Biso   1.000  H
  H314     1.0000 0.95640  0.11891  0.44971  Biso   1.000  H
  H315     1.0000 0.00219  0.50111  0.93641  Biso   1.000  H
  H316     1.0000 0.04021  0.52120  0.91290  Biso   1.000  H
  H317     1.0000 0.99781  0.49889  0.93641  Biso   1.000  H
  H318     1.0000 0.95979  0.47880  0.91290  Biso   1.000  H
  C316     1.0000 0.97945  0.56178  0.76899  Biso   1.000  C
  H319     1.0000 0.99890  0.55999  0.89381  Biso   1.000  H
  H320     1.0000 0.94969  0.54362  0.88109  Biso   1.000  H
  H321     1.0000 0.01049  0.43271  0.23221  Biso   1.000  H
  C317     1.0000 0.95135  0.42059  0.26714  Biso   1.000  C
  H322     1.0000 0.93269  0.76779  0.48949  Biso   1.000  H
  C318     1.0000 0.92060  0.73286  0.54866  Biso   1.000  C
  C319     1.0000 0.92060  0.26714  0.45134  Biso   1.000  C
  H323     1.0000 0.93269  0.23221  0.51051  Biso   1.000  H
  C320     1.0000 0.95135  0.57941  0.73286  Biso   1.000  C
  H324     1.0000 0.01049  0.56729  0.76779  Biso   1.000  H
  C321     1.0000 0.90506  0.42036  0.26419  Biso   1.000  C
  C322     1.0000 0.97035  0.40319  0.30560  Biso   1.000  C
  C323     1.0000 0.92037  0.73581  0.59495  Biso   1.000  C
  C324     1.0000 0.90317  0.69440  0.52964  Biso   1.000  C
  C325     1.0000 0.90317  0.30560  0.47036  Biso   1.000  C
  C326     1.0000 0.92037  0.26419  0.40505  Biso   1.000  C
  C327     1.0000 0.97035  0.59681  0.69440  Biso   1.000  C
  C328     1.0000 0.90506  0.57964  0.73581  Biso   1.000  C
  C329     1.0000 0.87953  0.40389  0.29839  Biso   1.000  C
  H325     1.0000 0.89098  0.43171  0.23829  Biso   1.000  H
  H326     1.0000 0.00179  0.40259  0.30828  Biso   1.000  H
  C330     1.0000 0.94471  0.38685  0.33973  Biso   1.000  C
  C331     1.0000 0.90387  0.70161  0.62045  Biso   1.000  C
  H327     1.0000 0.93170  0.76171  0.60900  Biso   1.000  H
  C332     1.0000 0.88687  0.66027  0.55527  Biso   1.000  C
  H328     1.0000 0.90261  0.69172  0.49819  Biso   1.000  H
  C333     1.0000 0.88687  0.33973  0.44473  Biso   1.000  C
  H329     1.0000 0.90261  0.30828  0.50181  Biso   1.000  H
  C334     1.0000 0.90387  0.29839  0.37955  Biso   1.000  C
  H330     1.0000 0.93170  0.23829  0.39100  Biso   1.000  H
  C335     1.0000 0.94471  0.61315  0.66027  Biso   1.000  C
  H331     1.0000 0.00179  0.59741  0.69172  Biso   1.000  H
  C336     1.0000 0.87953  0.59611  0.70161  Biso   1.000  C
  H332     1.0000 0.89098  0.56829  0.76171  Biso   1.000  H
  C337     1.0000 0.89859  0.38698  0.33697  Biso   1.000  C
  H333     1.0000 0.84812  0.40398  0.29560  Biso   1.000  H
  H334     1.0000 0.95869  0.37529  0.36550  Biso   1.000  H
  C338     1.0000 0.88697  0.66303  0.60139  Biso   1.000  C
  H335     1.0000 0.90400  0.70440  0.65190  Biso   1.000  H
  H336     1.0000 0.87531  0.63450  0.54129  Biso   1.000  H
  C339     1.0000 0.88697  0.33697  0.39861  Biso   1.000  C
  H337     1.0000 0.87531  0.36550  0.45871  Biso   1.000  H
  H338     1.0000 0.90400  0.29560  0.34810  Biso   1.000  H
  C340     1.0000 0.89859  0.61302  0.66303  Biso   1.000  C
  H339     1.0000 0.95869  0.62471  0.63450  Biso   1.000  H
  H340     1.0000 0.84812  0.59602  0.70440  Biso   1.000  H
  N45      1.0000 0.87083  0.37085  0.37085  Biso   1.000  N
  N46      1.0000 0.87083  0.62915  0.62915  Biso   1.000  N
  C341     1.0000 0.83696  0.39861  0.38698  Biso   1.000  C
  C342     1.0000 0.83696  0.60139  0.61302  Biso   1.000  C
  C343     1.0000 0.83971  0.44473  0.38685  Biso   1.000  C
  C344     1.0000 0.79841  0.37955  0.40389  Biso   1.000  C
  C345     1.0000 0.83971  0.55527  0.61315  Biso   1.000  C
  C346     1.0000 0.79841  0.62045  0.59611  Biso   1.000  C
  H341     1.0000 0.86552  0.45871  0.37529  Biso   1.000  H
  C347     1.0000 0.80558  0.47036  0.40319  Biso   1.000  C
  H342     1.0000 0.79558  0.34810  0.40398  Biso   1.000  H
  C348     1.0000 0.76420  0.40505  0.42036  Biso   1.000  C
  H343     1.0000 0.86552  0.54129  0.62471  Biso   1.000  H
  C349     1.0000 0.80558  0.52964  0.59681  Biso   1.000  C
  H344     1.0000 0.79558  0.65190  0.59602  Biso   1.000  H
  C350     1.0000 0.76420  0.59495  0.57964  Biso   1.000  C
  C351     1.0000 0.76713  0.45134  0.42059  Biso   1.000  C
  H345     1.0000 0.80830  0.50181  0.40259  Biso   1.000  H
  H346     1.0000 0.73830  0.39100  0.43171  Biso   1.000  H
  C352     1.0000 0.76713  0.54866  0.57941  Biso   1.000  C
  H347     1.0000 0.80830  0.49819  0.59741  Biso   1.000  H
  H348     1.0000 0.73830  0.60900  0.56829  Biso   1.000  H
  C353     1.0000 0.73103  0.47946  0.43822  Biso   1.000  C
  C354     1.0000 0.73103  0.52054  0.56178  Biso   1.000  C
  N47      1.0000 0.69922  0.46469  0.45984  Biso   1.000  N
  H349     1.0000 0.73219  0.51051  0.43271  Biso   1.000  H
  N48      1.0000 0.69922  0.53531  0.54016  Biso   1.000  N
  H350     1.0000 0.73219  0.48949  0.56729  Biso   1.000  H
  C355     1.0000 0.66601  0.49676  0.47428  Biso   1.000  C
  C356     1.0000 0.66601  0.50324  0.52572  Biso   1.000  C
  H351     1.0000 0.67149  0.52588  0.45941  Biso   1.000  H
  C357     1.0000 0.61903  0.48152  0.46478  Biso   1.000  C
  H352     1.0000 0.67149  0.47412  0.54059  Biso   1.000  H
  C358     1.0000 0.61903  0.51848  0.53522  Biso   1.000  C
  H353     1.0000 0.60621  0.49889  0.44001  Biso   1.000  H
  H354     1.0000 0.61889  0.44971  0.45638  Biso   1.000  H
  C359     1.0000 0.59260  0.51151  0.49391  Biso   1.000  C
  C360     1.0000 0.59260  0.48849  0.50609  Biso   1.000  C
  H355     1.0000 0.60621  0.50111  0.55999  Biso   1.000  H
  H356     1.0000 0.61889  0.55029  0.54362  Biso   1.000  H
  H357     1.0000 0.56361  0.49779  0.50111  Biso   1.000  H
  H358     1.0000 0.56361  0.50221  0.49889  Biso   1.000  H
  H359     1.0000 0.58712  0.54020  0.47880  Biso   1.000  H
  H360     1.0000 0.58712  0.45980  0.52120  Biso   1.000  H
  N49      1.0000 0.37918  0.37918  0.37918  Biso   1.000  N
  C361     1.0000 0.41302  0.36301  0.35139  Biso   1.000  C
  C362     1.0000 0.35139  0.41302  0.36301  Biso   1.000  C
  C363     1.0000 0.36301  0.35139  0.41302  Biso   1.000  C
  C364     1.0000 0.45160  0.34614  0.37048  Biso   1.000  C
  C365     1.0000 0.41029  0.36314  0.30530  Biso   1.000  C
  C366     1.0000 0.30530  0.41029  0.36314  Biso   1.000  C
  C367     1.0000 0.37048  0.45160  0.34614  Biso   1.000  C
  C368     1.0000 0.36314  0.30530  0.41029  Biso   1.000  C
  C369     1.0000 0.34614  0.37048  0.45160  Biso   1.000  C
  C370     1.0000 0.48580  0.32964  0.34494  Biso   1.000  C
  H361     1.0000 0.45439  0.34601  0.40189  Biso   1.000  H
  C371     1.0000 0.44440  0.34680  0.27963  Biso   1.000  C
  H362     1.0000 0.38449  0.37470  0.29128  Biso   1.000  H
  H363     1.0000 0.29128  0.38449  0.37470  Biso   1.000  H
  C372     1.0000 0.27963  0.44440  0.34680  Biso   1.000  C
  H364     1.0000 0.40189  0.45439  0.34601  Biso   1.000  H
  C373     1.0000 0.34494  0.48580  0.32964  Biso   1.000  C
  H365     1.0000 0.37470  0.29128  0.38449  Biso   1.000  H
  C374     1.0000 0.34680  0.27963  0.44440  Biso   1.000  C
  H366     1.0000 0.34601  0.40189  0.45439  Biso   1.000  H
  C375     1.0000 0.32964  0.34494  0.48580  Biso   1.000  C
  C376     1.0000 0.48285  0.32940  0.29866  Biso   1.000  C
  H367     1.0000 0.51171  0.31831  0.35899  Biso   1.000  H
  H368     1.0000 0.44171  0.34740  0.24822  Biso   1.000  H
  C377     1.0000 0.29866  0.48285  0.32940  Biso   1.000  C
  H369     1.0000 0.24822  0.44171  0.34740  Biso   1.000  H
  H370     1.0000 0.35899  0.51171  0.31831  Biso   1.000  H
  C378     1.0000 0.32940  0.29866  0.48285  Biso   1.000  C
  H371     1.0000 0.34740  0.24822  0.44171  Biso   1.000  H
  H372     1.0000 0.31831  0.35899  0.51171  Biso   1.000  H
  C379     1.0000 0.51898  0.31177  0.27053  Biso   1.000  C
  C380     1.0000 0.27053  0.51898  0.31177  Biso   1.000  C
  C381     1.0000 0.31177  0.27053  0.51898  Biso   1.000  C
  N50      1.0000 0.55079  0.29015  0.28534  Biso   1.000  N
  H373     1.0000 0.51782  0.31728  0.23952  Biso   1.000  H
  N51      1.0000 0.28534  0.55079  0.29015  Biso   1.000  N
  H374     1.0000 0.23952  0.51782  0.31728  Biso   1.000  H
  N52      1.0000 0.29015  0.28534  0.55079  Biso   1.000  N
  H375     1.0000 0.31728  0.23952  0.51782  Biso   1.000  H
  C382     1.0000 0.58399  0.27571  0.25323  Biso   1.000  C
  C383     1.0000 0.25323  0.58399  0.27571  Biso   1.000  C
  C384     1.0000 0.27571  0.25323  0.58399  Biso   1.000  C
  C385     1.0000 0.58399  0.22427  0.24675  Biso   1.000  C
  H376     1.0000 0.57852  0.29059  0.22411  Biso   1.000  H
  C386     1.0000 0.63095  0.28521  0.26847  Biso   1.000  C
  C387     1.0000 0.24675  0.58399  0.22427  Biso   1.000  C
  H377     1.0000 0.22411  0.57852  0.29059  Biso   1.000  H
  C388     1.0000 0.26847  0.63095  0.28521  Biso   1.000  C
  C389     1.0000 0.22427  0.24675  0.58399  Biso   1.000  C
  H378     1.0000 0.29059  0.22411  0.57852  Biso   1.000  H
  C390     1.0000 0.28521  0.26847  0.63095  Biso   1.000  C
  N53      1.0000 0.55079  0.20986  0.21468  Biso   1.000  N
  H379     1.0000 0.57852  0.20940  0.27591  Biso   1.000  H
  C391     1.0000 0.63095  0.21478  0.23155  Biso   1.000  C
  C392     1.0000 0.65741  0.24390  0.26150  Biso   1.000  C
  C393     1.0000 0.65741  0.25609  0.23849  Biso   1.000  C
  H380     1.0000 0.64380  0.31001  0.25110  Biso   1.000  H
  H381     1.0000 0.63111  0.29361  0.30032  Biso   1.000  H
  N54      1.0000 0.21468  0.55079  0.20986  Biso   1.000  N
  H382     1.0000 0.27591  0.57852  0.20940  Biso   1.000  H
  C394     1.0000 0.23155  0.63095  0.21478  Biso   1.000  C
  H383     1.0000 0.25110  0.64380  0.31001  Biso   1.000  H
  H384     1.0000 0.30032  0.63111  0.29361  Biso   1.000  H
  C395     1.0000 0.26150  0.65741  0.24390  Biso   1.000  C
  C396     1.0000 0.23849  0.65741  0.25609  Biso   1.000  C
  N55      1.0000 0.20986  0.21468  0.55079  Biso   1.000  N
  H385     1.0000 0.20940  0.27591  0.57852  Biso   1.000  H
  C397     1.0000 0.21478  0.23155  0.63095  Biso   1.000  C
  H386     1.0000 0.31001  0.25110  0.64380  Biso   1.000  H
  H387     1.0000 0.29361  0.30032  0.63111  Biso   1.000  H
  C398     1.0000 0.24390  0.26150  0.65741  Biso   1.000  C
  C399     1.0000 0.25609  0.23849  0.65741  Biso   1.000  C
  C400     1.0000 0.51898  0.18825  0.22945  Biso   1.000  C
  H388     1.0000 0.64380  0.19000  0.24891  Biso   1.000  H
  H389     1.0000 0.63111  0.20641  0.19970  Biso   1.000  H
  H390     1.0000 0.68640  0.25110  0.24778  Biso   1.000  H
  H391     1.0000 0.68640  0.24891  0.25220  Biso   1.000  H
  H392     1.0000 0.66289  0.22879  0.29019  Biso   1.000  H
  H393     1.0000 0.66289  0.27119  0.20980  Biso   1.000  H
  C401     1.0000 0.22945  0.51898  0.18825  Biso   1.000  C
  H394     1.0000 0.24891  0.64380  0.19000  Biso   1.000  H
  H395     1.0000 0.19970  0.63111  0.20641  Biso   1.000  H
  H396     1.0000 0.24778  0.68640  0.25110  Biso   1.000  H
  H397     1.0000 0.25220  0.68640  0.24891  Biso   1.000  H
  H398     1.0000 0.29019  0.66289  0.22879  Biso   1.000  H
  H399     1.0000 0.20980  0.66289  0.27119  Biso   1.000  H
  C402     1.0000 0.18825  0.22945  0.51898  Biso   1.000  C
  H400     1.0000 0.19000  0.24891  0.64380  Biso   1.000  H
  H401     1.0000 0.20641  0.19970  0.63111  Biso   1.000  H
  H402     1.0000 0.25110  0.24778  0.68640  Biso   1.000  H
  H403     1.0000 0.24891  0.25220  0.68640  Biso   1.000  H
  H404     1.0000 0.22879  0.29019  0.66289  Biso   1.000  H
  H405     1.0000 0.27119  0.20980  0.66289  Biso   1.000  H
  C403     1.0000 0.48285  0.17058  0.20136  Biso   1.000  C
  H406     1.0000 0.51782  0.18270  0.26050  Biso   1.000  H
  C404     1.0000 0.20136  0.48285  0.17058  Biso   1.000  C
  H407     1.0000 0.26050  0.51782  0.18270  Biso   1.000  H
  C405     1.0000 0.17058  0.20136  0.48285  Biso   1.000  C
  H408     1.0000 0.18270  0.26050  0.51782  Biso   1.000  H
  C406     1.0000 0.44440  0.15318  0.22036  Biso   1.000  C
  C407     1.0000 0.48580  0.17038  0.15504  Biso   1.000  C
  C408     1.0000 0.22036  0.44440  0.15318  Biso   1.000  C
  C409     1.0000 0.15504  0.48580  0.17038  Biso   1.000  C
  C410     1.0000 0.15318  0.22036  0.44440  Biso   1.000  C
  C411     1.0000 0.17038  0.15504  0.48580  Biso   1.000  C
  C412     1.0000 0.41029  0.13688  0.19472  Biso   1.000  C
  H409     1.0000 0.44171  0.15261  0.25180  Biso   1.000  H
  C413     1.0000 0.45160  0.15388  0.12954  Biso   1.000  C
  H410     1.0000 0.51171  0.18170  0.14099  Biso   1.000  H
  C414     1.0000 0.19472  0.41029  0.13688  Biso   1.000  C
  H411     1.0000 0.25180  0.44171  0.15261  Biso   1.000  H
  C415     1.0000 0.12954  0.45160  0.15388  Biso   1.000  C
  H412     1.0000 0.14099  0.51171  0.18170  Biso   1.000  H
  C416     1.0000 0.13688  0.19472  0.41029  Biso   1.000  C
  H413     1.0000 0.15261  0.25180  0.44171  Biso   1.000  H
  C417     1.0000 0.15388  0.12954  0.45160  Biso   1.000  C
  H414     1.0000 0.18170  0.14099  0.51171  Biso   1.000  H
  C418     1.0000 0.41302  0.13697  0.14860  Biso   1.000  C
  H415     1.0000 0.38449  0.12529  0.20870  Biso   1.000  H
  H416     1.0000 0.45439  0.15401  0.09809  Biso   1.000  H
  C419     1.0000 0.14860  0.41302  0.13697  Biso   1.000  C
  H417     1.0000 0.20870  0.38449  0.12529  Biso   1.000  H
  H418     1.0000 0.09809  0.45439  0.15401  Biso   1.000  H
  C420     1.0000 0.13697  0.14860  0.41302  Biso   1.000  C
  H419     1.0000 0.12529  0.20870  0.38449  Biso   1.000  H
  H420     1.0000 0.15401  0.09809  0.45439  Biso   1.000  H
  N56      1.0000 0.37918  0.12084  0.12084  Biso   1.000  N
  N57      1.0000 0.12084  0.37918  0.12084  Biso   1.000  N
  N58      1.0000 0.12084  0.12084  0.37918  Biso   1.000  N
  C421     1.0000 0.35139  0.08697  0.13697  Biso   1.000  C
  C422     1.0000 0.36301  0.14860  0.08697  Biso   1.000  C
  C423     1.0000 0.13697  0.35139  0.08697  Biso   1.000  C
  C424     1.0000 0.08697  0.36301  0.14860  Biso   1.000  C
  C425     1.0000 0.14860  0.08697  0.36301  Biso   1.000  C
  C426     1.0000 0.08697  0.13697  0.35139  Biso   1.000  C
  C427     1.0000 0.30530  0.08972  0.13688  Biso   1.000  C
  C428     1.0000 0.37048  0.04838  0.15388  Biso   1.000  C
  C429     1.0000 0.36314  0.19472  0.08972  Biso   1.000  C
  C430     1.0000 0.34614  0.12954  0.04838  Biso   1.000  C
  C431     1.0000 0.15388  0.37048  0.04838  Biso   1.000  C
  C432     1.0000 0.13688  0.30530  0.08972  Biso   1.000  C
  C433     1.0000 0.08972  0.36314  0.19472  Biso   1.000  C
  C434     1.0000 0.04838  0.34614  0.12954  Biso   1.000  C
  C435     1.0000 0.12954  0.04838  0.34614  Biso   1.000  C
  C436     1.0000 0.19472  0.08972  0.36314  Biso   1.000  C
  C437     1.0000 0.08972  0.13688  0.30530  Biso   1.000  C
  C438     1.0000 0.04838  0.15388  0.37048  Biso   1.000  C
  H421     1.0000 0.29128  0.11549  0.12529  Biso   1.000  H
  C439     1.0000 0.27963  0.05559  0.15318  Biso   1.000  C
  H422     1.0000 0.40189  0.04559  0.15401  Biso   1.000  H
  C440     1.0000 0.34494  0.01418  0.17038  Biso   1.000  C
  H423     1.0000 0.37470  0.20870  0.11549  Biso   1.000  H
  C441     1.0000 0.34680  0.22036  0.05559  Biso   1.000  C
  H424     1.0000 0.34601  0.09809  0.04559  Biso   1.000  H
  C442     1.0000 0.32964  0.15504  0.01418  Biso   1.000  C
  C443     1.0000 0.17038  0.34494  0.01418  Biso   1.000  C
  H425     1.0000 0.15401  0.40189  0.04559  Biso   1.000  H
  C444     1.0000 0.15318  0.27963  0.05559  Biso   1.000  C
  H426     1.0000 0.12529  0.29128  0.11549  Biso   1.000  H
  H427     1.0000 0.11549  0.37470  0.20870  Biso   1.000  H
  C445     1.0000 0.05559  0.34680  0.22036  Biso   1.000  C
  H428     1.0000 0.04559  0.34601  0.09809  Biso   1.000  H
  C446     1.0000 0.01418  0.32964  0.15504  Biso   1.000  C
  C447     1.0000 0.15504  0.01418  0.32964  Biso   1.000  C
  H429     1.0000 0.09809  0.04559  0.34601  Biso   1.000  H
  C448     1.0000 0.22036  0.05559  0.34680  Biso   1.000  C
  H430     1.0000 0.20870  0.11549  0.37470  Biso   1.000  H
  H431     1.0000 0.11549  0.12529  0.29128  Biso   1.000  H
  C449     1.0000 0.05559  0.15318  0.27963  Biso   1.000  C
  H432     1.0000 0.04559  0.15401  0.40189  Biso   1.000  H
  C450     1.0000 0.01418  0.17038  0.34494  Biso   1.000  C
  C451     1.0000 0.29866  0.01713  0.17058  Biso   1.000  C
  H433     1.0000 0.24822  0.05831  0.15261  Biso   1.000  H
  H434     1.0000 0.35899  0.98831  0.18170  Biso   1.000  H
  C452     1.0000 0.32940  0.20136  0.01713  Biso   1.000  C
  H435     1.0000 0.34740  0.25180  0.05831  Biso   1.000  H
  H436     1.0000 0.31831  0.14099  0.98831  Biso   1.000  H
  C453     1.0000 0.17058  0.29866  0.01713  Biso   1.000  C
  H437     1.0000 0.18170  0.35899  0.98831  Biso   1.000  H
  H438     1.0000 0.15261  0.24822  0.05831  Biso   1.000  H
  C454     1.0000 0.01713  0.32940  0.20136  Biso   1.000  C
  H439     1.0000 0.05831  0.34740  0.25180  Biso   1.000  H
  H440     1.0000 0.98831  0.31831  0.14099  Biso   1.000  H
  C455     1.0000 0.20136  0.01713  0.32940  Biso   1.000  C
  H441     1.0000 0.14099  0.98831  0.31831  Biso   1.000  H
  H442     1.0000 0.25180  0.05831  0.34740  Biso   1.000  H
  C456     1.0000 0.01713  0.17058  0.29866  Biso   1.000  C
  H443     1.0000 0.05831  0.15261  0.24822  Biso   1.000  H
  H444     1.0000 0.98831  0.18170  0.35899  Biso   1.000  H
  C457     1.0000 0.27053  0.98104  0.18825  Biso   1.000  C
  C458     1.0000 0.31177  0.22945  0.98104  Biso   1.000  C
  C459     1.0000 0.18825  0.27053  0.98104  Biso   1.000  C
  C460     1.0000 0.98104  0.31177  0.22945  Biso   1.000  C
  C461     1.0000 0.22945  0.98104  0.31177  Biso   1.000  C
  C462     1.0000 0.98104  0.18825  0.27053  Biso   1.000  C
  N59      1.0000 0.28534  0.94919  0.20986  Biso   1.000  N
  H445     1.0000 0.23952  0.98220  0.18270  Biso   1.000  H
  N60      1.0000 0.29015  0.21468  0.94919  Biso   1.000  N
  H446     1.0000 0.31728  0.26050  0.98220  Biso   1.000  H
  N61      1.0000 0.20986  0.28534  0.94919  Biso   1.000  N
  H447     1.0000 0.18270  0.23952  0.98220  Biso   1.000  H
  N62      1.0000 0.94919  0.29015  0.21468  Biso   1.000  N
  H448     1.0000 0.98220  0.31728  0.26050  Biso   1.000  H
  N63      1.0000 0.21468  0.94919  0.29015  Biso   1.000  N
  H449     1.0000 0.26050  0.98220  0.31728  Biso   1.000  H
  N64      1.0000 0.94919  0.20986  0.28534  Biso   1.000  N
  H450     1.0000 0.98220  0.18270  0.23952  Biso   1.000  H
  C463     1.0000 0.25323  0.91602  0.22427  Biso   1.000  C
  C464     1.0000 0.27571  0.24675  0.91602  Biso   1.000  C
  C465     1.0000 0.22427  0.25323  0.91602  Biso   1.000  C
  C466     1.0000 0.91602  0.27571  0.24675  Biso   1.000  C
  C467     1.0000 0.24675  0.91602  0.27571  Biso   1.000  C
  C468     1.0000 0.91602  0.22427  0.25323  Biso   1.000  C
  H451     1.0000 0.22411  0.92150  0.20940  Biso   1.000  H
  C469     1.0000 0.26847  0.86904  0.21478  Biso   1.000  C
  H452     1.0000 0.29059  0.27591  0.92150  Biso   1.000  H
  C470     1.0000 0.28521  0.23155  0.86904  Biso   1.000  C
  H453     1.0000 0.20940  0.22411  0.92150  Biso   1.000  H
  C471     1.0000 0.21478  0.26847  0.86904  Biso   1.000  C
  H454     1.0000 0.92150  0.29059  0.27591  Biso   1.000  H
  C472     1.0000 0.86904  0.28521  0.23155  Biso   1.000  C
  H455     1.0000 0.27591  0.92150  0.29059  Biso   1.000  H
  C473     1.0000 0.23155  0.86904  0.28521  Biso   1.000  C
  H456     1.0000 0.92150  0.20940  0.22411  Biso   1.000  H
  C474     1.0000 0.86904  0.21478  0.26847  Biso   1.000  C
  H457     1.0000 0.25110  0.85618  0.19000  Biso   1.000  H
  H458     1.0000 0.30032  0.86890  0.20641  Biso   1.000  H
  C475     1.0000 0.23849  0.84260  0.24390  Biso   1.000  C
  C476     1.0000 0.26150  0.84260  0.25609  Biso   1.000  C
  H459     1.0000 0.31001  0.24891  0.85618  Biso   1.000  H
  H460     1.0000 0.29361  0.19970  0.86890  Biso   1.000  H
  C477     1.0000 0.25609  0.26150  0.84260  Biso   1.000  C
  C478     1.0000 0.24390  0.23849  0.84260  Biso   1.000  C
  H461     1.0000 0.19000  0.25110  0.85618  Biso   1.000  H
  H462     1.0000 0.20641  0.30032  0.86890  Biso   1.000  H
  C479     1.0000 0.84260  0.25609  0.26150  Biso   1.000  C
  C480     1.0000 0.84260  0.24390  0.23849  Biso   1.000  C
  H463     1.0000 0.85618  0.31001  0.24891  Biso   1.000  H
  H464     1.0000 0.86890  0.29361  0.19970  Biso   1.000  H
  H465     1.0000 0.24891  0.85618  0.31001  Biso   1.000  H
  H466     1.0000 0.19970  0.86890  0.29361  Biso   1.000  H
  H467     1.0000 0.85618  0.19000  0.25110  Biso   1.000  H
  H468     1.0000 0.86890  0.20641  0.30032  Biso   1.000  H
  H469     1.0000 0.25220  0.81361  0.25110  Biso   1.000  H
  H470     1.0000 0.24778  0.81361  0.24891  Biso   1.000  H
  H471     1.0000 0.20980  0.83709  0.22879  Biso   1.000  H
  H472     1.0000 0.29019  0.83709  0.27119  Biso   1.000  H
  H473     1.0000 0.24891  0.24778  0.81361  Biso   1.000  H
  H474     1.0000 0.25110  0.25220  0.81361  Biso   1.000  H
  H475     1.0000 0.27119  0.29019  0.83709  Biso   1.000  H
  H476     1.0000 0.22879  0.20980  0.83709  Biso   1.000  H
  H477     1.0000 0.81361  0.24891  0.24778  Biso   1.000  H
  H478     1.0000 0.81361  0.25110  0.25220  Biso   1.000  H
  H479     1.0000 0.83709  0.27119  0.29019  Biso   1.000  H
  H480     1.0000 0.83709  0.22879  0.20980  Biso   1.000  H
  C481     1.0000 0.62952  0.54840  0.34614  Biso   1.000  C
  C482     1.0000 0.64861  0.58698  0.36301  Biso   1.000  C
  H481     1.0000 0.59811  0.54561  0.34601  Biso   1.000  H
  C483     1.0000 0.65506  0.51420  0.32964  Biso   1.000  C
  N65      1.0000 0.62082  0.62082  0.37918  Biso   1.000  N
  C484     1.0000 0.69470  0.58971  0.36314  Biso   1.000  C
  C485     1.0000 0.70134  0.51715  0.32940  Biso   1.000  C
  H482     1.0000 0.64101  0.48829  0.31831  Biso   1.000  H
  C486     1.0000 0.58698  0.63699  0.35139  Biso   1.000  C
  C487     1.0000 0.63699  0.64861  0.41302  Biso   1.000  C
  H483     1.0000 0.70872  0.61551  0.37470  Biso   1.000  H
  C488     1.0000 0.72037  0.55560  0.34680  Biso   1.000  C
  C489     1.0000 0.72947  0.48102  0.31177  Biso   1.000  C
  C490     1.0000 0.54840  0.65386  0.37048  Biso   1.000  C
  C491     1.0000 0.58971  0.63686  0.30530  Biso   1.000  C
  C492     1.0000 0.63686  0.69470  0.41029  Biso   1.000  C
  C493     1.0000 0.65386  0.62952  0.45160  Biso   1.000  C
  H484     1.0000 0.75178  0.55829  0.34740  Biso   1.000  H
  N66      1.0000 0.71466  0.44921  0.29015  Biso   1.000  N
  H485     1.0000 0.76048  0.48218  0.31728  Biso   1.000  H
  C494     1.0000 0.51420  0.67036  0.34494  Biso   1.000  C
  H486     1.0000 0.54561  0.65399  0.40189  Biso   1.000  H
  C495     1.0000 0.55560  0.65320  0.27963  Biso   1.000  C
  H487     1.0000 0.61551  0.62530  0.29128  Biso   1.000  H
  H488     1.0000 0.62530  0.70872  0.38449  Biso   1.000  H
  C496     1.0000 0.65320  0.72037  0.44440  Biso   1.000  C
  H489     1.0000 0.65399  0.59811  0.45439  Biso   1.000  H
  C497     1.0000 0.67036  0.65506  0.48580  Biso   1.000  C
  C498     1.0000 0.74677  0.41601  0.27571  Biso   1.000  C
  C499     1.0000 0.51715  0.67060  0.29866  Biso   1.000  C
  H490     1.0000 0.48829  0.68169  0.35899  Biso   1.000  H
  H491     1.0000 0.55829  0.65260  0.24822  Biso   1.000  H
  C500     1.0000 0.67060  0.70134  0.48285  Biso   1.000  C
  H492     1.0000 0.65260  0.75178  0.44171  Biso   1.000  H
  H493     1.0000 0.68169  0.64101  0.51171  Biso   1.000  H
  C501     1.0000 0.75325  0.41601  0.22427  Biso   1.000  C
  H494     1.0000 0.77589  0.42148  0.29059  Biso   1.000  H
  C502     1.0000 0.73153  0.36905  0.28521  Biso   1.000  C
  C503     1.0000 0.48102  0.68823  0.27053  Biso   1.000  C
  C504     1.0000 0.68823  0.72947  0.51898  Biso   1.000  C
  N67      1.0000 0.78532  0.44921  0.20986  Biso   1.000  N
  H495     1.0000 0.72409  0.42148  0.20940  Biso   1.000  H
  C505     1.0000 0.76845  0.36905  0.21478  Biso   1.000  C
  H496     1.0000 0.74890  0.35620  0.31001  Biso   1.000  H
  H497     1.0000 0.69968  0.36889  0.29361  Biso   1.000  H
  C506     1.0000 0.73850  0.34259  0.24390  Biso   1.000  C
  C507     1.0000 0.76151  0.34259  0.25609  Biso   1.000  C
  N68      1.0000 0.44921  0.70985  0.28534  Biso   1.000  N
  H498     1.0000 0.48218  0.68272  0.23952  Biso   1.000  H
  N69      1.0000 0.70985  0.71466  0.55079  Biso   1.000  N
  H499     1.0000 0.68272  0.76048  0.51782  Biso   1.000  H
  C508     1.0000 0.77055  0.48102  0.18825  Biso   1.000  C
  H500     1.0000 0.75109  0.35620  0.19000  Biso   1.000  H
  H501     1.0000 0.80030  0.36889  0.20641  Biso   1.000  H
  H502     1.0000 0.75222  0.31360  0.25110  Biso   1.000  H
  H503     1.0000 0.74780  0.31360  0.24891  Biso   1.000  H
  H504     1.0000 0.70981  0.33711  0.22879  Biso   1.000  H
  H505     1.0000 0.79020  0.33711  0.27119  Biso   1.000  H
  C509     1.0000 0.41601  0.72429  0.25323  Biso   1.000  C
  C510     1.0000 0.72429  0.74677  0.58399  Biso   1.000  C
  H506     1.0000 0.73950  0.48218  0.18270  Biso   1.000  H
  C511     1.0000 0.79864  0.51715  0.17058  Biso   1.000  C
  C512     1.0000 0.36905  0.71479  0.26847  Biso   1.000  C
  C513     1.0000 0.41601  0.77573  0.24675  Biso   1.000  C
  H507     1.0000 0.42148  0.70941  0.22411  Biso   1.000  H
  C514     1.0000 0.77573  0.75325  0.58399  Biso   1.000  C
  H508     1.0000 0.70941  0.77589  0.57852  Biso   1.000  H
  C515     1.0000 0.71479  0.73153  0.63095  Biso   1.000  C
  C516     1.0000 0.84496  0.51420  0.17038  Biso   1.000  C
  C517     1.0000 0.77964  0.55560  0.15318  Biso   1.000  C
  H509     1.0000 0.35620  0.68999  0.25110  Biso   1.000  H
  H510     1.0000 0.36889  0.70639  0.30032  Biso   1.000  H
  C518     1.0000 0.34259  0.75610  0.26150  Biso   1.000  C
  C519     1.0000 0.34259  0.74391  0.23849  Biso   1.000  C
  C520     1.0000 0.36905  0.78522  0.23155  Biso   1.000  C
  N70      1.0000 0.44921  0.79014  0.21468  Biso   1.000  N
  H511     1.0000 0.42148  0.79060  0.27591  Biso   1.000  H
  N71      1.0000 0.79014  0.78532  0.55079  Biso   1.000  N
  H512     1.0000 0.79060  0.72409  0.57852  Biso   1.000  H
  C521     1.0000 0.78522  0.76845  0.63095  Biso   1.000  C
  H513     1.0000 0.68999  0.74890  0.64380  Biso   1.000  H
  H514     1.0000 0.70639  0.69968  0.63111  Biso   1.000  H
  C522     1.0000 0.74391  0.76151  0.65741  Biso   1.000  C
  C523     1.0000 0.75610  0.73850  0.65741  Biso   1.000  C
  C524     1.0000 0.87046  0.54840  0.15388  Biso   1.000  C
  H515     1.0000 0.85901  0.48829  0.18170  Biso   1.000  H
  C525     1.0000 0.80528  0.58971  0.13688  Biso   1.000  C
  H516     1.0000 0.74820  0.55829  0.15261  Biso   1.000  H
  H517     1.0000 0.31360  0.74890  0.24778  Biso   1.000  H
  H518     1.0000 0.31360  0.75109  0.25220  Biso   1.000  H
  H519     1.0000 0.33711  0.77121  0.29019  Biso   1.000  H
  H520     1.0000 0.33711  0.72881  0.20980  Biso   1.000  H
  H521     1.0000 0.35620  0.81000  0.24891  Biso   1.000  H
  H522     1.0000 0.36889  0.79359  0.19970  Biso   1.000  H
  C526     1.0000 0.48102  0.81175  0.22945  Biso   1.000  C
  C527     1.0000 0.81175  0.77055  0.51898  Biso   1.000  C
  H523     1.0000 0.81000  0.75109  0.64380  Biso   1.000  H
  H524     1.0000 0.79359  0.80030  0.63111  Biso   1.000  H
  H525     1.0000 0.75109  0.74780  0.68640  Biso   1.000  H
  H526     1.0000 0.74890  0.75222  0.68640  Biso   1.000  H
  H527     1.0000 0.72881  0.79020  0.66289  Biso   1.000  H
  H528     1.0000 0.77121  0.70981  0.66289  Biso   1.000  H
  C528     1.0000 0.85140  0.58698  0.13697  Biso   1.000  C
  H529     1.0000 0.90191  0.54561  0.15401  Biso   1.000  H
  H530     1.0000 0.79130  0.61551  0.12529  Biso   1.000  H
  H531     1.0000 0.48218  0.81730  0.26050  Biso   1.000  H
  C529     1.0000 0.51715  0.82942  0.20136  Biso   1.000  C
  H532     1.0000 0.81730  0.73950  0.51782  Biso   1.000  H
  C530     1.0000 0.82942  0.79864  0.48285  Biso   1.000  C
  N72      1.0000 0.87916  0.62082  0.12084  Biso   1.000  N
  C531     1.0000 0.51420  0.82962  0.15504  Biso   1.000  C
  C532     1.0000 0.55560  0.84682  0.22036  Biso   1.000  C
  C533     1.0000 0.82962  0.84496  0.48580  Biso   1.000  C
  C534     1.0000 0.84682  0.77964  0.44440  Biso   1.000  C
  C535     1.0000 0.86303  0.64861  0.08697  Biso   1.000  C
  C536     1.0000 0.91303  0.63699  0.14860  Biso   1.000  C
  C537     1.0000 0.54840  0.84612  0.12954  Biso   1.000  C
  H533     1.0000 0.48829  0.81830  0.14099  Biso   1.000  H
  C538     1.0000 0.58971  0.86312  0.19472  Biso   1.000  C
  H534     1.0000 0.55829  0.84739  0.25180  Biso   1.000  H
  C539     1.0000 0.84612  0.87046  0.45160  Biso   1.000  C
  H535     1.0000 0.81830  0.85901  0.51171  Biso   1.000  H
  C540     1.0000 0.86312  0.80528  0.41029  Biso   1.000  C
  H536     1.0000 0.84739  0.74820  0.44171  Biso   1.000  H
  C541     1.0000 0.84612  0.62952  0.04838  Biso   1.000  C
  C542     1.0000 0.86312  0.69470  0.08972  Biso   1.000  C
  C543     1.0000 0.91028  0.63686  0.19472  Biso   1.000  C
  C544     1.0000 0.95162  0.65386  0.12954  Biso   1.000  C
  C545     1.0000 0.58698  0.86303  0.14860  Biso   1.000  C
  H537     1.0000 0.54561  0.84599  0.09809  Biso   1.000  H
  H538     1.0000 0.61551  0.87471  0.20870  Biso   1.000  H
  C546     1.0000 0.86303  0.85140  0.41302  Biso   1.000  C
  H539     1.0000 0.84599  0.90191  0.45439  Biso   1.000  H
  H540     1.0000 0.87471  0.79130  0.38449  Biso   1.000  H
  C547     1.0000 0.82962  0.65506  0.01418  Biso   1.000  C
  H541     1.0000 0.84599  0.59811  0.04559  Biso   1.000  H
  C548     1.0000 0.84682  0.72037  0.05559  Biso   1.000  C
  H542     1.0000 0.87471  0.70872  0.11549  Biso   1.000  H
  H543     1.0000 0.88451  0.62530  0.20870  Biso   1.000  H
  C549     1.0000 0.94441  0.65320  0.22036  Biso   1.000  C
  H544     1.0000 0.95441  0.65399  0.09809  Biso   1.000  H
  C550     1.0000 0.98582  0.67036  0.15504  Biso   1.000  C
  N73      1.0000 0.62082  0.87916  0.12084  Biso   1.000  N
  N74      1.0000 0.87916  0.87916  0.37918  Biso   1.000  N
  C551     1.0000 0.82942  0.70134  0.01713  Biso   1.000  C
  H545     1.0000 0.81830  0.64101  0.98831  Biso   1.000  H
  H546     1.0000 0.84739  0.75178  0.05831  Biso   1.000  H
  C552     1.0000 0.98287  0.67060  0.20136  Biso   1.000  C
  H547     1.0000 0.94169  0.65260  0.25180  Biso   1.000  H
  H548     1.0000 0.01169  0.68169  0.14099  Biso   1.000  H
  C553     1.0000 0.63699  0.85140  0.08697  Biso   1.000  C
  C554     1.0000 0.64861  0.91303  0.13697  Biso   1.000  C
  C555     1.0000 0.85140  0.91303  0.36301  Biso   1.000  C
  C556     1.0000 0.91303  0.86303  0.35139  Biso   1.000  C
  C557     1.0000 0.81175  0.72947  0.98104  Biso   1.000  C
  C558     1.0000 0.01896  0.68823  0.22945  Biso   1.000  C
  C559     1.0000 0.63686  0.80528  0.08972  Biso   1.000  C
  C560     1.0000 0.65386  0.87046  0.04838  Biso   1.000  C
  C561     1.0000 0.69470  0.91028  0.13688  Biso   1.000  C
  C562     1.0000 0.62952  0.95162  0.15388  Biso   1.000  C
  C563     1.0000 0.87046  0.95162  0.34614  Biso   1.000  C
  C564     1.0000 0.80528  0.91028  0.36314  Biso   1.000  C
  C565     1.0000 0.91028  0.86312  0.30530  Biso   1.000  C
  C566     1.0000 0.95162  0.84612  0.37048  Biso   1.000  C
  N75      1.0000 0.79014  0.71466  0.94919  Biso   1.000  N
  H549     1.0000 0.81730  0.76048  0.98220  Biso   1.000  H
  N76      1.0000 0.05081  0.70985  0.21468  Biso   1.000  N
  H550     1.0000 0.01780  0.68272  0.26050  Biso   1.000  H
  H551     1.0000 0.62530  0.79130  0.11549  Biso   1.000  H
  C567     1.0000 0.65320  0.77964  0.05559  Biso   1.000  C
  H552     1.0000 0.65399  0.90191  0.04559  Biso   1.000  H
  C568     1.0000 0.67036  0.84496  0.01418  Biso   1.000  C
  H553     1.0000 0.70872  0.88451  0.12529  Biso   1.000  H
  C569     1.0000 0.72037  0.94441  0.15318  Biso   1.000  C
  H554     1.0000 0.59811  0.95441  0.15401  Biso   1.000  H
  C570     1.0000 0.65506  0.98582  0.17038  Biso   1.000  C
  C571     1.0000 0.84496  0.98582  0.32964  Biso   1.000  C
  H555     1.0000 0.90191  0.95441  0.34601  Biso   1.000  H
  C572     1.0000 0.77964  0.94441  0.34680  Biso   1.000  C
  H556     1.0000 0.79130  0.88451  0.37470  Biso   1.000  H
  H557     1.0000 0.88451  0.87471  0.29128  Biso   1.000  H
  C573     1.0000 0.94441  0.84682  0.27963  Biso   1.000  C
  H558     1.0000 0.95441  0.84599  0.40189  Biso   1.000  H
  C574     1.0000 0.98582  0.82962  0.34494  Biso   1.000  C
  C575     1.0000 0.77573  0.74677  0.91602  Biso   1.000  C
  C576     1.0000 0.08398  0.72429  0.24675  Biso   1.000  C
  C577     1.0000 0.67060  0.79864  0.01713  Biso   1.000  C
  H559     1.0000 0.65260  0.74820  0.05831  Biso   1.000  H
  H560     1.0000 0.68169  0.85901  0.98831  Biso   1.000  H
  C578     1.0000 0.70134  0.98287  0.17058  Biso   1.000  C
  H561     1.0000 0.75178  0.94169  0.15261  Biso   1.000  H
  H562     1.0000 0.64101  0.01169  0.18170  Biso   1.000  H
  C579     1.0000 0.79864  0.98287  0.32940  Biso   1.000  C
  H563     1.0000 0.85901  0.01169  0.31831  Biso   1.000  H
  H564     1.0000 0.74820  0.94169  0.34740  Biso   1.000  H
  C580     1.0000 0.98287  0.82942  0.29866  Biso   1.000  C
  H565     1.0000 0.94169  0.84739  0.24822  Biso   1.000  H
  H566     1.0000 0.01169  0.81830  0.35899  Biso   1.000  H
  C581     1.0000 0.72429  0.75325  0.91602  Biso   1.000  C
  H567     1.0000 0.79060  0.77589  0.92150  Biso   1.000  H
  C582     1.0000 0.78522  0.73153  0.86904  Biso   1.000  C
  C583     1.0000 0.08398  0.77573  0.25323  Biso   1.000  C
  H568     1.0000 0.07850  0.70941  0.27591  Biso   1.000  H
  C584     1.0000 0.13096  0.71479  0.23155  Biso   1.000  C
  C585     1.0000 0.68823  0.77055  0.98104  Biso   1.000  C
  C586     1.0000 0.72947  0.01896  0.18825  Biso   1.000  C
  C587     1.0000 0.77055  0.01896  0.31177  Biso   1.000  C
  C588     1.0000 0.01896  0.81175  0.27053  Biso   1.000  C
  N77      1.0000 0.70985  0.78532  0.94919  Biso   1.000  N
  H569     1.0000 0.70941  0.72409  0.92150  Biso   1.000  H
  C589     1.0000 0.71479  0.76845  0.86904  Biso   1.000  C
  C590     1.0000 0.75610  0.76151  0.84260  Biso   1.000  C
  C591     1.0000 0.74391  0.73850  0.84260  Biso   1.000  C
  H570     1.0000 0.81000  0.74890  0.85618  Biso   1.000  H
  H571     1.0000 0.79359  0.69968  0.86890  Biso   1.000  H
  N78      1.0000 0.05081  0.79014  0.28534  Biso   1.000  N
  H572     1.0000 0.07850  0.79060  0.22411  Biso   1.000  H
  C592     1.0000 0.13096  0.78522  0.26847  Biso   1.000  C
  H573     1.0000 0.14382  0.68999  0.24891  Biso   1.000  H
  H574     1.0000 0.13110  0.70639  0.19970  Biso   1.000  H
  C593     1.0000 0.15740  0.74391  0.26150  Biso   1.000  C
  C594     1.0000 0.15740  0.75610  0.23849  Biso   1.000  C
  H575     1.0000 0.68272  0.73950  0.98220  Biso   1.000  H
  N79      1.0000 0.71466  0.05081  0.20986  Biso   1.000  N
  H576     1.0000 0.76048  0.01780  0.18270  Biso   1.000  H
  N80      1.0000 0.78532  0.05081  0.29015  Biso   1.000  N
  H577     1.0000 0.73950  0.01780  0.31728  Biso   1.000  H
  H578     1.0000 0.01780  0.81730  0.23952  Biso   1.000  H
  H579     1.0000 0.68999  0.75109  0.85618  Biso   1.000  H
  H580     1.0000 0.70639  0.80030  0.86890  Biso   1.000  H
  H581     1.0000 0.74890  0.74780  0.81361  Biso   1.000  H
  H582     1.0000 0.75109  0.75222  0.81361  Biso   1.000  H
  H583     1.0000 0.77121  0.79020  0.83709  Biso   1.000  H
  H584     1.0000 0.72881  0.70981  0.83709  Biso   1.000  H
  H585     1.0000 0.14382  0.81000  0.25110  Biso   1.000  H
  H586     1.0000 0.13110  0.79359  0.30032  Biso   1.000  H
  H587     1.0000 0.18639  0.75109  0.24778  Biso   1.000  H
  H588     1.0000 0.18639  0.74890  0.25220  Biso   1.000  H
  H589     1.0000 0.16291  0.72881  0.29019  Biso   1.000  H
  H590     1.0000 0.16291  0.77121  0.20980  Biso   1.000  H
  C595     1.0000 0.74677  0.08398  0.22427  Biso   1.000  C
  C596     1.0000 0.75325  0.08398  0.27571  Biso   1.000  C
  H591     1.0000 0.77589  0.07850  0.20940  Biso   1.000  H
  C597     1.0000 0.73153  0.13096  0.21478  Biso   1.000  C
  H592     1.0000 0.72409  0.07850  0.29059  Biso   1.000  H
  C598     1.0000 0.76845  0.13096  0.28521  Biso   1.000  C
  H593     1.0000 0.74890  0.14382  0.19000  Biso   1.000  H
  H594     1.0000 0.69968  0.13110  0.20641  Biso   1.000  H
  C599     1.0000 0.76151  0.15740  0.24390  Biso   1.000  C
  C600     1.0000 0.73850  0.15740  0.25609  Biso   1.000  C
  H595     1.0000 0.75109  0.14382  0.31001  Biso   1.000  H
  H596     1.0000 0.80030  0.13110  0.29361  Biso   1.000  H
  H597     1.0000 0.74780  0.18639  0.25110  Biso   1.000  H
  H598     1.0000 0.75222  0.18639  0.24891  Biso   1.000  H
  H599     1.0000 0.79020  0.16291  0.22879  Biso   1.000  H
  H600     1.0000 0.70981  0.16291  0.27119  Biso   1.000  H
  C601     1.0000 0.54840  0.34614  0.62952  Biso   1.000  C
  C602     1.0000 0.58698  0.36301  0.64861  Biso   1.000  C
  H601     1.0000 0.54561  0.34601  0.59811  Biso   1.000  H
  C603     1.0000 0.51420  0.32964  0.65506  Biso   1.000  C
  N81      1.0000 0.62082  0.37918  0.62082  Biso   1.000  N
  C604     1.0000 0.58971  0.36314  0.69470  Biso   1.000  C
  C605     1.0000 0.51715  0.32940  0.70134  Biso   1.000  C
  H602     1.0000 0.48829  0.31831  0.64101  Biso   1.000  H
  C606     1.0000 0.63699  0.35139  0.58698  Biso   1.000  C
  C607     1.0000 0.64861  0.41302  0.63699  Biso   1.000  C
  H603     1.0000 0.61551  0.37470  0.70872  Biso   1.000  H
  C608     1.0000 0.55560  0.34680  0.72037  Biso   1.000  C
  C609     1.0000 0.48102  0.31177  0.72947  Biso   1.000  C
  C610     1.0000 0.65386  0.37048  0.54840  Biso   1.000  C
  C611     1.0000 0.63686  0.30530  0.58971  Biso   1.000  C
  C612     1.0000 0.69470  0.41029  0.63686  Biso   1.000  C
  C613     1.0000 0.62952  0.45160  0.65386  Biso   1.000  C
  H604     1.0000 0.55829  0.34740  0.75178  Biso   1.000  H
  N82      1.0000 0.44921  0.29015  0.71466  Biso   1.000  N
  H605     1.0000 0.48218  0.31728  0.76048  Biso   1.000  H
  C614     1.0000 0.67036  0.34494  0.51420  Biso   1.000  C
  H606     1.0000 0.65399  0.40189  0.54561  Biso   1.000  H
  C615     1.0000 0.65320  0.27963  0.55560  Biso   1.000  C
  H607     1.0000 0.62530  0.29128  0.61551  Biso   1.000  H
  H608     1.0000 0.70872  0.38449  0.62530  Biso   1.000  H
  C616     1.0000 0.72037  0.44440  0.65320  Biso   1.000  C
  H609     1.0000 0.59811  0.45439  0.65399  Biso   1.000  H
  C617     1.0000 0.65506  0.48580  0.67036  Biso   1.000  C
  C618     1.0000 0.41601  0.27571  0.74677  Biso   1.000  C
  C619     1.0000 0.67060  0.29866  0.51715  Biso   1.000  C
  H610     1.0000 0.68169  0.35899  0.48829  Biso   1.000  H
  H611     1.0000 0.65260  0.24822  0.55829  Biso   1.000  H
  C620     1.0000 0.70134  0.48285  0.67060  Biso   1.000  C
  H612     1.0000 0.75178  0.44171  0.65260  Biso   1.000  H
  H613     1.0000 0.64101  0.51171  0.68169  Biso   1.000  H
  C621     1.0000 0.41601  0.22427  0.75325  Biso   1.000  C
  H614     1.0000 0.42148  0.29059  0.77589  Biso   1.000  H
  C622     1.0000 0.36905  0.28521  0.73153  Biso   1.000  C
  C623     1.0000 0.68823  0.27053  0.48102  Biso   1.000  C
  C624     1.0000 0.72947  0.51898  0.68823  Biso   1.000  C
  N83      1.0000 0.44921  0.20986  0.78532  Biso   1.000  N
  H615     1.0000 0.42148  0.20940  0.72409  Biso   1.000  H
  C625     1.0000 0.36905  0.21478  0.76845  Biso   1.000  C
  H616     1.0000 0.35620  0.31001  0.74890  Biso   1.000  H
  H617     1.0000 0.36889  0.29361  0.69968  Biso   1.000  H
  C626     1.0000 0.34259  0.25609  0.76151  Biso   1.000  C
  C627     1.0000 0.34259  0.24390  0.73850  Biso   1.000  C
  N84      1.0000 0.70985  0.28534  0.44921  Biso   1.000  N
  H618     1.0000 0.68272  0.23952  0.48218  Biso   1.000  H
  N85      1.0000 0.71466  0.55079  0.70985  Biso   1.000  N
  H619     1.0000 0.76048  0.51782  0.68272  Biso   1.000  H
  C628     1.0000 0.48102  0.18825  0.77055  Biso   1.000  C
  H620     1.0000 0.35620  0.19000  0.75109  Biso   1.000  H
  H621     1.0000 0.36889  0.20641  0.80030  Biso   1.000  H
  H622     1.0000 0.31360  0.24891  0.74780  Biso   1.000  H
  H623     1.0000 0.31360  0.25110  0.75222  Biso   1.000  H
  H624     1.0000 0.33711  0.27119  0.79020  Biso   1.000  H
  H625     1.0000 0.33711  0.22879  0.70981  Biso   1.000  H
  C629     1.0000 0.72429  0.25323  0.41601  Biso   1.000  C
  C630     1.0000 0.74677  0.58399  0.72429  Biso   1.000  C
  H626     1.0000 0.48218  0.18270  0.73950  Biso   1.000  H
  C631     1.0000 0.51715  0.17058  0.79864  Biso   1.000  C
  C632     1.0000 0.71479  0.26847  0.36905  Biso   1.000  C
  C633     1.0000 0.77573  0.24675  0.41601  Biso   1.000  C
  H627     1.0000 0.70941  0.22411  0.42148  Biso   1.000  H
  C634     1.0000 0.75325  0.58399  0.77573  Biso   1.000  C
  H628     1.0000 0.77589  0.57852  0.70941  Biso   1.000  H
  C635     1.0000 0.73153  0.63095  0.71479  Biso   1.000  C
  C636     1.0000 0.51420  0.17038  0.84496  Biso   1.000  C
  C637     1.0000 0.55560  0.15318  0.77964  Biso   1.000  C
  H629     1.0000 0.68999  0.25110  0.35620  Biso   1.000  H
  H630     1.0000 0.70639  0.30032  0.36889  Biso   1.000  H
  C638     1.0000 0.75610  0.26150  0.34259  Biso   1.000  C
  C639     1.0000 0.74391  0.23849  0.34259  Biso   1.000  C
  C640     1.0000 0.78522  0.23155  0.36905  Biso   1.000  C
  N86      1.0000 0.79014  0.21468  0.44921  Biso   1.000  N
  H631     1.0000 0.79060  0.27591  0.42148  Biso   1.000  H
  N87      1.0000 0.78532  0.55079  0.79014  Biso   1.000  N
  H632     1.0000 0.72409  0.57852  0.79060  Biso   1.000  H
  C641     1.0000 0.76845  0.63095  0.78522  Biso   1.000  C
  H633     1.0000 0.74890  0.64380  0.68999  Biso   1.000  H
  H634     1.0000 0.69968  0.63111  0.70639  Biso   1.000  H
  C642     1.0000 0.76151  0.65741  0.74391  Biso   1.000  C
  C643     1.0000 0.73850  0.65741  0.75610  Biso   1.000  C
  C644     1.0000 0.54840  0.15388  0.87046  Biso   1.000  C
  H635     1.0000 0.48829  0.18170  0.85901  Biso   1.000  H
  C645     1.0000 0.58971  0.13688  0.80528  Biso   1.000  C
  H636     1.0000 0.55829  0.15261  0.74820  Biso   1.000  H
  H637     1.0000 0.74890  0.24778  0.31360  Biso   1.000  H
  H638     1.0000 0.75109  0.25220  0.31360  Biso   1.000  H
  H639     1.0000 0.77121  0.29019  0.33711  Biso   1.000  H
  H640     1.0000 0.72881  0.20980  0.33711  Biso   1.000  H
  H641     1.0000 0.81000  0.24891  0.35620  Biso   1.000  H
  H642     1.0000 0.79359  0.19970  0.36889  Biso   1.000  H
  C646     1.0000 0.81175  0.22945  0.48102  Biso   1.000  C
  C647     1.0000 0.77055  0.51898  0.81175  Biso   1.000  C
  H643     1.0000 0.75109  0.64380  0.81000  Biso   1.000  H
  H644     1.0000 0.80030  0.63111  0.79359  Biso   1.000  H
  H645     1.0000 0.74780  0.68640  0.75109  Biso   1.000  H
  H646     1.0000 0.75222  0.68640  0.74890  Biso   1.000  H
  H647     1.0000 0.79020  0.66289  0.72881  Biso   1.000  H
  H648     1.0000 0.70981  0.66289  0.77121  Biso   1.000  H
  C648     1.0000 0.58698  0.13697  0.85140  Biso   1.000  C
  H649     1.0000 0.54561  0.15401  0.90191  Biso   1.000  H
  H650     1.0000 0.61551  0.12529  0.79130  Biso   1.000  H
  H651     1.0000 0.81730  0.26050  0.48218  Biso   1.000  H
  C649     1.0000 0.82942  0.20136  0.51715  Biso   1.000  C
  H652     1.0000 0.73950  0.51782  0.81730  Biso   1.000  H
  C650     1.0000 0.79864  0.48285  0.82942  Biso   1.000  C
  N88      1.0000 0.62082  0.12084  0.87916  Biso   1.000  N
  C651     1.0000 0.82962  0.15504  0.51420  Biso   1.000  C
  C652     1.0000 0.84682  0.22036  0.55560  Biso   1.000  C
  C653     1.0000 0.84496  0.48580  0.82962  Biso   1.000  C
  C654     1.0000 0.77964  0.44440  0.84682  Biso   1.000  C
  C655     1.0000 0.64861  0.08697  0.86303  Biso   1.000  C
  C656     1.0000 0.63699  0.14860  0.91303  Biso   1.000  C
  C657     1.0000 0.84612  0.12954  0.54840  Biso   1.000  C
  H653     1.0000 0.81830  0.14099  0.48829  Biso   1.000  H
  C658     1.0000 0.86312  0.19472  0.58971  Biso   1.000  C
  H654     1.0000 0.84739  0.25180  0.55829  Biso   1.000  H
  C659     1.0000 0.87046  0.45160  0.84612  Biso   1.000  C
  H655     1.0000 0.85901  0.51171  0.81830  Biso   1.000  H
  C660     1.0000 0.80528  0.41029  0.86312  Biso   1.000  C
  H656     1.0000 0.74820  0.44171  0.84739  Biso   1.000  H
  C661     1.0000 0.62952  0.04838  0.84612  Biso   1.000  C
  C662     1.0000 0.69470  0.08972  0.86312  Biso   1.000  C
  C663     1.0000 0.63686  0.19472  0.91028  Biso   1.000  C
  C664     1.0000 0.65386  0.12954  0.95162  Biso   1.000  C
  C665     1.0000 0.86303  0.14860  0.58698  Biso   1.000  C
  H657     1.0000 0.84599  0.09809  0.54561  Biso   1.000  H
  H658     1.0000 0.87471  0.20870  0.61551  Biso   1.000  H
  C666     1.0000 0.85140  0.41302  0.86303  Biso   1.000  C
  H659     1.0000 0.90191  0.45439  0.84599  Biso   1.000  H
  H660     1.0000 0.79130  0.38449  0.87471  Biso   1.000  H
  C667     1.0000 0.65506  0.01418  0.82962  Biso   1.000  C
  H661     1.0000 0.59811  0.04559  0.84599  Biso   1.000  H
  C668     1.0000 0.72037  0.05559  0.84682  Biso   1.000  C
  H662     1.0000 0.70872  0.11549  0.87471  Biso   1.000  H
  H663     1.0000 0.62530  0.20870  0.88451  Biso   1.000  H
  C669     1.0000 0.65320  0.22036  0.94441  Biso   1.000  C
  H664     1.0000 0.65399  0.09809  0.95441  Biso   1.000  H
  C670     1.0000 0.67036  0.15504  0.98582  Biso   1.000  C
  N89      1.0000 0.87916  0.12084  0.62082  Biso   1.000  N
  N90      1.0000 0.87916  0.37918  0.87916  Biso   1.000  N
  C671     1.0000 0.70134  0.01713  0.82942  Biso   1.000  C
  H665     1.0000 0.64101  0.98831  0.81830  Biso   1.000  H
  H666     1.0000 0.75178  0.05831  0.84739  Biso   1.000  H
  C672     1.0000 0.67060  0.20136  0.98287  Biso   1.000  C
  H667     1.0000 0.65260  0.25180  0.94169  Biso   1.000  H
  H668     1.0000 0.68169  0.14099  0.01169  Biso   1.000  H
  C673     1.0000 0.85140  0.08697  0.63699  Biso   1.000  C
  C674     1.0000 0.91303  0.13697  0.64861  Biso   1.000  C
  C675     1.0000 0.91303  0.36301  0.85140  Biso   1.000  C
  C676     1.0000 0.86303  0.35139  0.91303  Biso   1.000  C
  C677     1.0000 0.72947  0.98104  0.81175  Biso   1.000  C
  C678     1.0000 0.68823  0.22945  0.01896  Biso   1.000  C
  C679     1.0000 0.80528  0.08972  0.63686  Biso   1.000  C
  C680     1.0000 0.87046  0.04838  0.65386  Biso   1.000  C
  C681     1.0000 0.91028  0.13688  0.69470  Biso   1.000  C
  C682     1.0000 0.95162  0.15388  0.62952  Biso   1.000  C
  C683     1.0000 0.95162  0.34614  0.87046  Biso   1.000  C
  C684     1.0000 0.91028  0.36314  0.80528  Biso   1.000  C
  C685     1.0000 0.86312  0.30530  0.91028  Biso   1.000  C
  C686     1.0000 0.84612  0.37048  0.95162  Biso   1.000  C
  N91      1.0000 0.71466  0.94919  0.79014  Biso   1.000  N
  H669     1.0000 0.76048  0.98220  0.81730  Biso   1.000  H
  N92      1.0000 0.70985  0.21468  0.05081  Biso   1.000  N
  H670     1.0000 0.68272  0.26050  0.01780  Biso   1.000  H
  H671     1.0000 0.79130  0.11549  0.62530  Biso   1.000  H
  C687     1.0000 0.77964  0.05559  0.65320  Biso   1.000  C
  H672     1.0000 0.90191  0.04559  0.65399  Biso   1.000  H
  C688     1.0000 0.84496  0.01418  0.67036  Biso   1.000  C
  H673     1.0000 0.88451  0.12529  0.70872  Biso   1.000  H
  C689     1.0000 0.94441  0.15318  0.72037  Biso   1.000  C
  H674     1.0000 0.95441  0.15401  0.59811  Biso   1.000  H
  C690     1.0000 0.98582  0.17038  0.65506  Biso   1.000  C
  C691     1.0000 0.98582  0.32964  0.84496  Biso   1.000  C
  H675     1.0000 0.95441  0.34601  0.90191  Biso   1.000  H
  C692     1.0000 0.94441  0.34680  0.77964  Biso   1.000  C
  H676     1.0000 0.88451  0.37470  0.79130  Biso   1.000  H
  H677     1.0000 0.87471  0.29128  0.88451  Biso   1.000  H
  C693     1.0000 0.84682  0.27963  0.94441  Biso   1.000  C
  H678     1.0000 0.84599  0.40189  0.95441  Biso   1.000  H
  C694     1.0000 0.82962  0.34494  0.98582  Biso   1.000  C
  C695     1.0000 0.74677  0.91602  0.77573  Biso   1.000  C
  C696     1.0000 0.72429  0.24675  0.08398  Biso   1.000  C
  C697     1.0000 0.79864  0.01713  0.67060  Biso   1.000  C
  H679     1.0000 0.74820  0.05831  0.65260  Biso   1.000  H
  H680     1.0000 0.85901  0.98831  0.68169  Biso   1.000  H
  C698     1.0000 0.98287  0.17058  0.70134  Biso   1.000  C
  H681     1.0000 0.94169  0.15261  0.75178  Biso   1.000  H
  H682     1.0000 0.01169  0.18170  0.64101  Biso   1.000  H
  C699     1.0000 0.98287  0.32940  0.79864  Biso   1.000  C
  H683     1.0000 0.01169  0.31831  0.85901  Biso   1.000  H
  H684     1.0000 0.94169  0.34740  0.74820  Biso   1.000  H
  C700     1.0000 0.82942  0.29866  0.98287  Biso   1.000  C
  H685     1.0000 0.84739  0.24822  0.94169  Biso   1.000  H
  H686     1.0000 0.81830  0.35899  0.01169  Biso   1.000  H
  C701     1.0000 0.75325  0.91602  0.72429  Biso   1.000  C
  H687     1.0000 0.77589  0.92150  0.79060  Biso   1.000  H
  C702     1.0000 0.73153  0.86904  0.78522  Biso   1.000  C
  C703     1.0000 0.77573  0.25323  0.08398  Biso   1.000  C
  H688     1.0000 0.70941  0.27591  0.07850  Biso   1.000  H
  C704     1.0000 0.71479  0.23155  0.13096  Biso   1.000  C
  C705     1.0000 0.77055  0.98104  0.68823  Biso   1.000  C
  C706     1.0000 0.01896  0.18825  0.72947  Biso   1.000  C
  C707     1.0000 0.01896  0.31177  0.77055  Biso   1.000  C
  C708     1.0000 0.81175  0.27053  0.01896  Biso   1.000  C
  N93      1.0000 0.78532  0.94919  0.70985  Biso   1.000  N
  H689     1.0000 0.72409  0.92150  0.70941  Biso   1.000  H
  C709     1.0000 0.76845  0.86904  0.71479  Biso   1.000  C
  C710     1.0000 0.73850  0.84260  0.74391  Biso   1.000  C
  C711     1.0000 0.76151  0.84260  0.75610  Biso   1.000  C
  H690     1.0000 0.74890  0.85618  0.81000  Biso   1.000  H
  H691     1.0000 0.69968  0.86890  0.79359  Biso   1.000  H
  N94      1.0000 0.79014  0.28534  0.05081  Biso   1.000  N
  H692     1.0000 0.79060  0.22411  0.07850  Biso   1.000  H
  C712     1.0000 0.78522  0.26847  0.13096  Biso   1.000  C
  H693     1.0000 0.68999  0.24891  0.14382  Biso   1.000  H
  H694     1.0000 0.70639  0.19970  0.13110  Biso   1.000  H
  C713     1.0000 0.74391  0.26150  0.15740  Biso   1.000  C
  C714     1.0000 0.75610  0.23849  0.15740  Biso   1.000  C
  H695     1.0000 0.73950  0.98220  0.68272  Biso   1.000  H
  N95      1.0000 0.05081  0.20986  0.71466  Biso   1.000  N
  H696     1.0000 0.01780  0.18270  0.76048  Biso   1.000  H
  N96      1.0000 0.05081  0.29015  0.78532  Biso   1.000  N
  H697     1.0000 0.01780  0.31728  0.73950  Biso   1.000  H
  H698     1.0000 0.81730  0.23952  0.01780  Biso   1.000  H
  H699     1.0000 0.75109  0.85618  0.68999  Biso   1.000  H
  H700     1.0000 0.80030  0.86890  0.70639  Biso   1.000  H
  H701     1.0000 0.75222  0.81361  0.75109  Biso   1.000  H
  H702     1.0000 0.74780  0.81361  0.74890  Biso   1.000  H
  H703     1.0000 0.70981  0.83709  0.72881  Biso   1.000  H
  H704     1.0000 0.79020  0.83709  0.77121  Biso   1.000  H
  H705     1.0000 0.81000  0.25110  0.14382  Biso   1.000  H
  H706     1.0000 0.79359  0.30032  0.13110  Biso   1.000  H
  H707     1.0000 0.75109  0.24778  0.18639  Biso   1.000  H
  H708     1.0000 0.74890  0.25220  0.18639  Biso   1.000  H
  H709     1.0000 0.72881  0.29019  0.16291  Biso   1.000  H
  H710     1.0000 0.77121  0.20980  0.16291  Biso   1.000  H
  C715     1.0000 0.08398  0.22427  0.74677  Biso   1.000  C
  C716     1.0000 0.08398  0.27571  0.75325  Biso   1.000  C
  H711     1.0000 0.07850  0.20940  0.77589  Biso   1.000  H
  C717     1.0000 0.13096  0.21478  0.73153  Biso   1.000  C
  H712     1.0000 0.07850  0.29059  0.72409  Biso   1.000  H
  C718     1.0000 0.13096  0.28521  0.76845  Biso   1.000  C
  H713     1.0000 0.14382  0.19000  0.74890  Biso   1.000  H
  H714     1.0000 0.13110  0.20641  0.69968  Biso   1.000  H
  C719     1.0000 0.15740  0.24390  0.76151  Biso   1.000  C
  C720     1.0000 0.15740  0.25609  0.73850  Biso   1.000  C
  H715     1.0000 0.14382  0.31001  0.75109  Biso   1.000  H
  H716     1.0000 0.13110  0.29361  0.80030  Biso   1.000  H
  H717     1.0000 0.18639  0.25110  0.74780  Biso   1.000  H
  H718     1.0000 0.18639  0.24891  0.75222  Biso   1.000  H
  H719     1.0000 0.16291  0.22879  0.79020  Biso   1.000  H
  H720     1.0000 0.16291  0.27119  0.70981  Biso   1.000  H
  C721     1.0000 0.34614  0.62952  0.54840  Biso   1.000  C
  C722     1.0000 0.36301  0.64861  0.58698  Biso   1.000  C
  H721     1.0000 0.34601  0.59811  0.54561  Biso   1.000  H
  C723     1.0000 0.32964  0.65506  0.51420  Biso   1.000  C
  N97      1.0000 0.37918  0.62082  0.62082  Biso   1.000  N
  C724     1.0000 0.36314  0.69470  0.58971  Biso   1.000  C
  C725     1.0000 0.32940  0.70134  0.51715  Biso   1.000  C
  H722     1.0000 0.31831  0.64101  0.48829  Biso   1.000  H
  C726     1.0000 0.35139  0.58698  0.63699  Biso   1.000  C
  C727     1.0000 0.41302  0.63699  0.64861  Biso   1.000  C
  H723     1.0000 0.37470  0.70872  0.61551  Biso   1.000  H
  C728     1.0000 0.34680  0.72037  0.55560  Biso   1.000  C
  C729     1.0000 0.31177  0.72947  0.48102  Biso   1.000  C
  C730     1.0000 0.37048  0.54840  0.65386  Biso   1.000  C
  C731     1.0000 0.30530  0.58971  0.63686  Biso   1.000  C
  C732     1.0000 0.41029  0.63686  0.69470  Biso   1.000  C
  C733     1.0000 0.45160  0.65386  0.62952  Biso   1.000  C
  H724     1.0000 0.34740  0.75178  0.55829  Biso   1.000  H
  N98      1.0000 0.29015  0.71466  0.44921  Biso   1.000  N
  H725     1.0000 0.31728  0.76048  0.48218  Biso   1.000  H
  C734     1.0000 0.34494  0.51420  0.67036  Biso   1.000  C
  H726     1.0000 0.40189  0.54561  0.65399  Biso   1.000  H
  C735     1.0000 0.27963  0.55560  0.65320  Biso   1.000  C
  H727     1.0000 0.29128  0.61551  0.62530  Biso   1.000  H
  H728     1.0000 0.38449  0.62530  0.70872  Biso   1.000  H
  C736     1.0000 0.44440  0.65320  0.72037  Biso   1.000  C
  H729     1.0000 0.45439  0.65399  0.59811  Biso   1.000  H
  C737     1.0000 0.48580  0.67036  0.65506  Biso   1.000  C
  C738     1.0000 0.27571  0.74677  0.41601  Biso   1.000  C
  C739     1.0000 0.29866  0.51715  0.67060  Biso   1.000  C
  H730     1.0000 0.35899  0.48829  0.68169  Biso   1.000  H
  H731     1.0000 0.24822  0.55829  0.65260  Biso   1.000  H
  C740     1.0000 0.48285  0.67060  0.70134  Biso   1.000  C
  H732     1.0000 0.44171  0.65260  0.75178  Biso   1.000  H
  H733     1.0000 0.51171  0.68169  0.64101  Biso   1.000  H
  C741     1.0000 0.22427  0.75325  0.41601  Biso   1.000  C
  H734     1.0000 0.29059  0.77589  0.42148  Biso   1.000  H
  C742     1.0000 0.28521  0.73153  0.36905  Biso   1.000  C
  C743     1.0000 0.27053  0.48102  0.68823  Biso   1.000  C
  C744     1.0000 0.51898  0.68823  0.72947  Biso   1.000  C
  N99      1.0000 0.20986  0.78532  0.44921  Biso   1.000  N
  H735     1.0000 0.20940  0.72409  0.42148  Biso   1.000  H
  C745     1.0000 0.21478  0.76845  0.36905  Biso   1.000  C
  H736     1.0000 0.31001  0.74890  0.35620  Biso   1.000  H
  H737     1.0000 0.29361  0.69968  0.36889  Biso   1.000  H
  C746     1.0000 0.25609  0.76151  0.34259  Biso   1.000  C
  C747     1.0000 0.24390  0.73850  0.34259  Biso   1.000  C
  N100     1.0000 0.28534  0.44921  0.70985  Biso   1.000  N
  H738     1.0000 0.23952  0.48218  0.68272  Biso   1.000  H
  N101     1.0000 0.55079  0.70985  0.71466  Biso   1.000  N
  H739     1.0000 0.51782  0.68272  0.76048  Biso   1.000  H
  C748     1.0000 0.18825  0.77055  0.48102  Biso   1.000  C
  H740     1.0000 0.19000  0.75109  0.35620  Biso   1.000  H
  H741     1.0000 0.20641  0.80030  0.36889  Biso   1.000  H
  H742     1.0000 0.24891  0.74780  0.31360  Biso   1.000  H
  H743     1.0000 0.25110  0.75222  0.31360  Biso   1.000  H
  H744     1.0000 0.27119  0.79020  0.33711  Biso   1.000  H
  H745     1.0000 0.22879  0.70981  0.33711  Biso   1.000  H
  C749     1.0000 0.25323  0.41601  0.72429  Biso   1.000  C
  C750     1.0000 0.58399  0.72429  0.74677  Biso   1.000  C
  H746     1.0000 0.18270  0.73950  0.48218  Biso   1.000  H
  C751     1.0000 0.17058  0.79864  0.51715  Biso   1.000  C
  C752     1.0000 0.26847  0.36905  0.71479  Biso   1.000  C
  C753     1.0000 0.24675  0.41601  0.77573  Biso   1.000  C
  H747     1.0000 0.22411  0.42148  0.70941  Biso   1.000  H
  C754     1.0000 0.58399  0.77573  0.75325  Biso   1.000  C
  H748     1.0000 0.57852  0.70941  0.77589  Biso   1.000  H
  C755     1.0000 0.63095  0.71479  0.73153  Biso   1.000  C
  C756     1.0000 0.17038  0.84496  0.51420  Biso   1.000  C
  C757     1.0000 0.15318  0.77964  0.55560  Biso   1.000  C
  H749     1.0000 0.25110  0.35620  0.68999  Biso   1.000  H
  H750     1.0000 0.30032  0.36889  0.70639  Biso   1.000  H
  C758     1.0000 0.23849  0.34259  0.74391  Biso   1.000  C
  C759     1.0000 0.26150  0.34259  0.75610  Biso   1.000  C
  C760     1.0000 0.23155  0.36905  0.78522  Biso   1.000  C
  N102     1.0000 0.21468  0.44921  0.79014  Biso   1.000  N
  H751     1.0000 0.27591  0.42148  0.79060  Biso   1.000  H
  N103     1.0000 0.55079  0.79014  0.78532  Biso   1.000  N
  H752     1.0000 0.57852  0.79060  0.72409  Biso   1.000  H
  C761     1.0000 0.63095  0.78522  0.76845  Biso   1.000  C
  H753     1.0000 0.64380  0.68999  0.74890  Biso   1.000  H
  H754     1.0000 0.63111  0.70639  0.69968  Biso   1.000  H
  C762     1.0000 0.65741  0.74391  0.76151  Biso   1.000  C
  C763     1.0000 0.65741  0.75610  0.73850  Biso   1.000  C
  C764     1.0000 0.15388  0.87046  0.54840  Biso   1.000  C
  H755     1.0000 0.18170  0.85901  0.48829  Biso   1.000  H
  C765     1.0000 0.13688  0.80528  0.58971  Biso   1.000  C
  H756     1.0000 0.15261  0.74820  0.55829  Biso   1.000  H
  H757     1.0000 0.25220  0.31360  0.75109  Biso   1.000  H
  H758     1.0000 0.24778  0.31360  0.74890  Biso   1.000  H
  H759     1.0000 0.20980  0.33711  0.72881  Biso   1.000  H
  H760     1.0000 0.29019  0.33711  0.77121  Biso   1.000  H
  H761     1.0000 0.24891  0.35620  0.81000  Biso   1.000  H
  H762     1.0000 0.19970  0.36889  0.79359  Biso   1.000  H
  C766     1.0000 0.22945  0.48102  0.81175  Biso   1.000  C
  C767     1.0000 0.51898  0.81175  0.77055  Biso   1.000  C
  H763     1.0000 0.64380  0.81000  0.75109  Biso   1.000  H
  H764     1.0000 0.63111  0.79359  0.80030  Biso   1.000  H
  H765     1.0000 0.68640  0.75109  0.74780  Biso   1.000  H
  H766     1.0000 0.68640  0.74890  0.75222  Biso   1.000  H
  H767     1.0000 0.66289  0.72881  0.79020  Biso   1.000  H
  H768     1.0000 0.66289  0.77121  0.70981  Biso   1.000  H
  C768     1.0000 0.13697  0.85140  0.58698  Biso   1.000  C
  H769     1.0000 0.15401  0.90191  0.54561  Biso   1.000  H
  H770     1.0000 0.12529  0.79130  0.61551  Biso   1.000  H
  H771     1.0000 0.26050  0.48218  0.81730  Biso   1.000  H
  C769     1.0000 0.20136  0.51715  0.82942  Biso   1.000  C
  H772     1.0000 0.51782  0.81730  0.73950  Biso   1.000  H
  C770     1.0000 0.48285  0.82942  0.79864  Biso   1.000  C
  N104     1.0000 0.12084  0.87916  0.62082  Biso   1.000  N
  C771     1.0000 0.15504  0.51420  0.82962  Biso   1.000  C
  C772     1.0000 0.22036  0.55560  0.84682  Biso   1.000  C
  C773     1.0000 0.48580  0.82962  0.84496  Biso   1.000  C
  C774     1.0000 0.44440  0.84682  0.77964  Biso   1.000  C
  C775     1.0000 0.08697  0.86303  0.64861  Biso   1.000  C
  C776     1.0000 0.14860  0.91303  0.63699  Biso   1.000  C
  C777     1.0000 0.12954  0.54840  0.84612  Biso   1.000  C
  H773     1.0000 0.14099  0.48829  0.81830  Biso   1.000  H
  C778     1.0000 0.19472  0.58971  0.86312  Biso   1.000  C
  H774     1.0000 0.25180  0.55829  0.84739  Biso   1.000  H
  C779     1.0000 0.45160  0.84612  0.87046  Biso   1.000  C
  H775     1.0000 0.51171  0.81830  0.85901  Biso   1.000  H
  C780     1.0000 0.41029  0.86312  0.80528  Biso   1.000  C
  H776     1.0000 0.44171  0.84739  0.74820  Biso   1.000  H
  C781     1.0000 0.04838  0.84612  0.62952  Biso   1.000  C
  C782     1.0000 0.08972  0.86312  0.69470  Biso   1.000  C
  C783     1.0000 0.19472  0.91028  0.63686  Biso   1.000  C
  C784     1.0000 0.12954  0.95162  0.65386  Biso   1.000  C
  C785     1.0000 0.14860  0.58698  0.86303  Biso   1.000  C
  H777     1.0000 0.09809  0.54561  0.84599  Biso   1.000  H
  H778     1.0000 0.20870  0.61551  0.87471  Biso   1.000  H
  C786     1.0000 0.41302  0.86303  0.85140  Biso   1.000  C
  H779     1.0000 0.45439  0.84599  0.90191  Biso   1.000  H
  H780     1.0000 0.38449  0.87471  0.79130  Biso   1.000  H
  C787     1.0000 0.01418  0.82962  0.65506  Biso   1.000  C
  H781     1.0000 0.04559  0.84599  0.59811  Biso   1.000  H
  C788     1.0000 0.05559  0.84682  0.72037  Biso   1.000  C
  H782     1.0000 0.11549  0.87471  0.70872  Biso   1.000  H
  H783     1.0000 0.20870  0.88451  0.62530  Biso   1.000  H
  C789     1.0000 0.22036  0.94441  0.65320  Biso   1.000  C
  H784     1.0000 0.09809  0.95441  0.65399  Biso   1.000  H
  C790     1.0000 0.15504  0.98582  0.67036  Biso   1.000  C
  N105     1.0000 0.12084  0.62082  0.87916  Biso   1.000  N
  N106     1.0000 0.37918  0.87916  0.87916  Biso   1.000  N
  C791     1.0000 0.01713  0.82942  0.70134  Biso   1.000  C
  H785     1.0000 0.98831  0.81830  0.64101  Biso   1.000  H
  H786     1.0000 0.05831  0.84739  0.75178  Biso   1.000  H
  C792     1.0000 0.20136  0.98287  0.67060  Biso   1.000  C
  H787     1.0000 0.25180  0.94169  0.65260  Biso   1.000  H
  H788     1.0000 0.14099  0.01169  0.68169  Biso   1.000  H
  C793     1.0000 0.08697  0.63699  0.85140  Biso   1.000  C
  C794     1.0000 0.13697  0.64861  0.91303  Biso   1.000  C
  C795     1.0000 0.36301  0.85140  0.91303  Biso   1.000  C
  C796     1.0000 0.35139  0.91303  0.86303  Biso   1.000  C
  C797     1.0000 0.98104  0.81175  0.72947  Biso   1.000  C
  C798     1.0000 0.22945  0.01896  0.68823  Biso   1.000  C
  C799     1.0000 0.08972  0.63686  0.80528  Biso   1.000  C
  C800     1.0000 0.04838  0.65386  0.87046  Biso   1.000  C
  C801     1.0000 0.13688  0.69470  0.91028  Biso   1.000  C
  C802     1.0000 0.15388  0.62952  0.95162  Biso   1.000  C
  C803     1.0000 0.34614  0.87046  0.95162  Biso   1.000  C
  C804     1.0000 0.36314  0.80528  0.91028  Biso   1.000  C
  C805     1.0000 0.30530  0.91028  0.86312  Biso   1.000  C
  C806     1.0000 0.37048  0.95162  0.84612  Biso   1.000  C
  N107     1.0000 0.94919  0.79014  0.71466  Biso   1.000  N
  H789     1.0000 0.98220  0.81730  0.76048  Biso   1.000  H
  N108     1.0000 0.21468  0.05081  0.70985  Biso   1.000  N
  H790     1.0000 0.26050  0.01780  0.68272  Biso   1.000  H
  H791     1.0000 0.11549  0.62530  0.79130  Biso   1.000  H
  C807     1.0000 0.05559  0.65320  0.77964  Biso   1.000  C
  H792     1.0000 0.04559  0.65399  0.90191  Biso   1.000  H
  C808     1.0000 0.01418  0.67036  0.84496  Biso   1.000  C
  H793     1.0000 0.12529  0.70872  0.88451  Biso   1.000  H
  C809     1.0000 0.15318  0.72037  0.94441  Biso   1.000  C
  H794     1.0000 0.15401  0.59811  0.95441  Biso   1.000  H
  C810     1.0000 0.17038  0.65506  0.98582  Biso   1.000  C
  C811     1.0000 0.32964  0.84496  0.98582  Biso   1.000  C
  H795     1.0000 0.34601  0.90191  0.95441  Biso   1.000  H
  C812     1.0000 0.34680  0.77964  0.94441  Biso   1.000  C
  H796     1.0000 0.37470  0.79130  0.88451  Biso   1.000  H
  H797     1.0000 0.29128  0.88451  0.87471  Biso   1.000  H
  C813     1.0000 0.27963  0.94441  0.84682  Biso   1.000  C
  H798     1.0000 0.40189  0.95441  0.84599  Biso   1.000  H
  C814     1.0000 0.34494  0.98582  0.82962  Biso   1.000  C
  C815     1.0000 0.91602  0.77573  0.74677  Biso   1.000  C
  C816     1.0000 0.24675  0.08398  0.72429  Biso   1.000  C
  C817     1.0000 0.01713  0.67060  0.79864  Biso   1.000  C
  H799     1.0000 0.05831  0.65260  0.74820  Biso   1.000  H
  H800     1.0000 0.98831  0.68169  0.85901  Biso   1.000  H
  C818     1.0000 0.17058  0.70134  0.98287  Biso   1.000  C
  H801     1.0000 0.15261  0.75178  0.94169  Biso   1.000  H
  H802     1.0000 0.18170  0.64101  0.01169  Biso   1.000  H
  C819     1.0000 0.32940  0.79864  0.98287  Biso   1.000  C
  H803     1.0000 0.31831  0.85901  0.01169  Biso   1.000  H
  H804     1.0000 0.34740  0.74820  0.94169  Biso   1.000  H
  C820     1.0000 0.29866  0.98287  0.82942  Biso   1.000  C
  H805     1.0000 0.24822  0.94169  0.84739  Biso   1.000  H
  H806     1.0000 0.35899  0.01169  0.81830  Biso   1.000  H
  C821     1.0000 0.91602  0.72429  0.75325  Biso   1.000  C
  H807     1.0000 0.92150  0.79060  0.77589  Biso   1.000  H
  C822     1.0000 0.86904  0.78522  0.73153  Biso   1.000  C
  C823     1.0000 0.25323  0.08398  0.77573  Biso   1.000  C
  H808     1.0000 0.27591  0.07850  0.70941  Biso   1.000  H
  C824     1.0000 0.23155  0.13096  0.71479  Biso   1.000  C
  C825     1.0000 0.98104  0.68823  0.77055  Biso   1.000  C
  C826     1.0000 0.18825  0.72947  0.01896  Biso   1.000  C
  C827     1.0000 0.31177  0.77055  0.01896  Biso   1.000  C
  C828     1.0000 0.27053  0.01896  0.81175  Biso   1.000  C
  N109     1.0000 0.94919  0.70985  0.78532  Biso   1.000  N
  H809     1.0000 0.92150  0.70941  0.72409  Biso   1.000  H
  C829     1.0000 0.86904  0.71479  0.76845  Biso   1.000  C
  C830     1.0000 0.84260  0.75610  0.76151  Biso   1.000  C
  C831     1.0000 0.84260  0.74391  0.73850  Biso   1.000  C
  H810     1.0000 0.85618  0.81000  0.74890  Biso   1.000  H
  H811     1.0000 0.86890  0.79359  0.69968  Biso   1.000  H
  N110     1.0000 0.28534  0.05081  0.79014  Biso   1.000  N
  H812     1.0000 0.22411  0.07850  0.79060  Biso   1.000  H
  C832     1.0000 0.26847  0.13096  0.78522  Biso   1.000  C
  C833     1.0000 0.26150  0.15740  0.74391  Biso   1.000  C
  C834     1.0000 0.23849  0.15740  0.75610  Biso   1.000  C
  H813     1.0000 0.24891  0.14382  0.68999  Biso   1.000  H
  H814     1.0000 0.19970  0.13110  0.70639  Biso   1.000  H
  H815     1.0000 0.98220  0.68272  0.73950  Biso   1.000  H
  N111     1.0000 0.20986  0.71466  0.05081  Biso   1.000  N
  H816     1.0000 0.18270  0.76048  0.01780  Biso   1.000  H
  N112     1.0000 0.29015  0.78532  0.05081  Biso   1.000  N
  H817     1.0000 0.31728  0.73950  0.01780  Biso   1.000  H
  H818     1.0000 0.23952  0.01780  0.81730  Biso   1.000  H
  H819     1.0000 0.85618  0.68999  0.75109  Biso   1.000  H
  H820     1.0000 0.86890  0.70639  0.80030  Biso   1.000  H
  H821     1.0000 0.81361  0.74890  0.74780  Biso   1.000  H
  H822     1.0000 0.81361  0.75109  0.75222  Biso   1.000  H
  H823     1.0000 0.83709  0.77121  0.79020  Biso   1.000  H
  H824     1.0000 0.83709  0.72881  0.70981  Biso   1.000  H
  H825     1.0000 0.25110  0.14382  0.81000  Biso   1.000  H
  H826     1.0000 0.30032  0.13110  0.79359  Biso   1.000  H
  H827     1.0000 0.24778  0.18639  0.75109  Biso   1.000  H
  H828     1.0000 0.25220  0.18639  0.74890  Biso   1.000  H
  H829     1.0000 0.29019  0.16291  0.72881  Biso   1.000  H
  H830     1.0000 0.20980  0.16291  0.77121  Biso   1.000  H
  C835     1.0000 0.22427  0.74677  0.08398  Biso   1.000  C
  C836     1.0000 0.27571  0.75325  0.08398  Biso   1.000  C
  H831     1.0000 0.20940  0.77589  0.07850  Biso   1.000  H
  C837     1.0000 0.21478  0.73153  0.13096  Biso   1.000  C
  H832     1.0000 0.29059  0.72409  0.07850  Biso   1.000  H
  C838     1.0000 0.28521  0.76845  0.13096  Biso   1.000  C
  H833     1.0000 0.19000  0.74890  0.14382  Biso   1.000  H
  H834     1.0000 0.20641  0.69968  0.13110  Biso   1.000  H
  C839     1.0000 0.24390  0.76151  0.15740  Biso   1.000  C
  C840     1.0000 0.25609  0.73850  0.15740  Biso   1.000  C
  H835     1.0000 0.31001  0.75109  0.14382  Biso   1.000  H
  H836     1.0000 0.29361  0.80030  0.13110  Biso   1.000  H
  H837     1.0000 0.25110  0.74780  0.18639  Biso   1.000  H
  H838     1.0000 0.24891  0.75222  0.18639  Biso   1.000  H
  H839     1.0000 0.22879  0.79020  0.16291  Biso   1.000  H
  H840     1.0000 0.27119  0.70981  0.16291  Biso   1.000  H
  C841     1.0000 0.40740  0.01149  0.00608  Biso   1.000  C
  H841     1.0000 0.43639  0.00219  0.00110  Biso   1.000  H
  H842     1.0000 0.41288  0.04021  0.02119  Biso   1.000  H
  H843     1.0000 0.43639  0.99781  0.99890  Biso   1.000  H
  C842     1.0000 0.38097  0.98154  0.03523  Biso   1.000  C
  C843     1.0000 0.38097  0.01846  0.96477  Biso   1.000  C
  C844     1.0000 0.40740  0.98851  0.99392  Biso   1.000  C
  C845     1.0000 0.33399  0.99678  0.02570  Biso   1.000  C
  H844     1.0000 0.39379  0.99890  0.06000  Biso   1.000  H
  H845     1.0000 0.38111  0.94969  0.04360  Biso   1.000  H
  C846     1.0000 0.33399  0.00322  0.97430  Biso   1.000  C
  H846     1.0000 0.39379  0.00110  0.94000  Biso   1.000  H
  H847     1.0000 0.38111  0.05031  0.95640  Biso   1.000  H
  H848     1.0000 0.41288  0.95979  0.97881  Biso   1.000  H
  H849     1.0000 0.32851  0.02590  0.04061  Biso   1.000  H
  N113     1.0000 0.30078  0.96467  0.04015  Biso   1.000  N
  H850     1.0000 0.32851  0.97410  0.95939  Biso   1.000  H
  N114     1.0000 0.30078  0.03533  0.95985  Biso   1.000  N
  C847     1.0000 0.26897  0.97945  0.06176  Biso   1.000  C
  C848     1.0000 0.26897  0.02055  0.93824  Biso   1.000  C
  H851     1.0000 0.26781  0.01049  0.06731  Biso   1.000  H
  C849     1.0000 0.23287  0.95135  0.07940  Biso   1.000  C
  H852     1.0000 0.26781  0.98951  0.93269  Biso   1.000  H
  C850     1.0000 0.23287  0.04865  0.92060  Biso   1.000  C
  C851     1.0000 0.23580  0.90506  0.07963  Biso   1.000  C
  C852     1.0000 0.19442  0.97035  0.09683  Biso   1.000  C
  C853     1.0000 0.23580  0.09494  0.92037  Biso   1.000  C
  C854     1.0000 0.19442  0.02965  0.90317  Biso   1.000  C
  C855     1.0000 0.20159  0.87953  0.09613  Biso   1.000  C
  H853     1.0000 0.26170  0.89098  0.06830  Biso   1.000  H
  H854     1.0000 0.19170  0.00179  0.09739  Biso   1.000  H
  C856     1.0000 0.16029  0.94471  0.11313  Biso   1.000  C
  C857     1.0000 0.20159  0.12047  0.90387  Biso   1.000  C
  H855     1.0000 0.26170  0.10902  0.93170  Biso   1.000  H
  H856     1.0000 0.19170  0.99821  0.90261  Biso   1.000  H
  C858     1.0000 0.16029  0.05529  0.88687  Biso   1.000  C
  C859     1.0000 0.16304  0.89859  0.11303  Biso   1.000  C
  H857     1.0000 0.20442  0.84812  0.09600  Biso   1.000  H
  H858     1.0000 0.13448  0.95869  0.12469  Biso   1.000  H
  C860     1.0000 0.16304  0.10141  0.88697  Biso   1.000  C
  H859     1.0000 0.20442  0.15188  0.90400  Biso   1.000  H
  H860     1.0000 0.13448  0.04131  0.87531  Biso   1.000  H
  N115     1.0000 0.12917  0.87083  0.12917  Biso   1.000  N
  N116     1.0000 0.12917  0.12917  0.87083  Biso   1.000  N
  C861     1.0000 0.11303  0.83696  0.10141  Biso   1.000  C
  C862     1.0000 0.10141  0.88697  0.16304  Biso   1.000  C
  C863     1.0000 0.10141  0.11303  0.83696  Biso   1.000  C
  C864     1.0000 0.11303  0.16304  0.89859  Biso   1.000  C
  C865     1.0000 0.11313  0.83971  0.05529  Biso   1.000  C
  C866     1.0000 0.09613  0.79841  0.12047  Biso   1.000  C
  C867     1.0000 0.05529  0.88687  0.16029  Biso   1.000  C
  C868     1.0000 0.12047  0.90387  0.20159  Biso   1.000  C
  C869     1.0000 0.05529  0.11313  0.83971  Biso   1.000  C
  C870     1.0000 0.12047  0.09613  0.79841  Biso   1.000  C
  C871     1.0000 0.11313  0.16029  0.94471  Biso   1.000  C
  C872     1.0000 0.09613  0.20159  0.87953  Biso   1.000  C
  H861     1.0000 0.12469  0.86552  0.04131  Biso   1.000  H
  C873     1.0000 0.09683  0.80558  0.02965  Biso   1.000  C
  H862     1.0000 0.09600  0.79558  0.15188  Biso   1.000  H
  C874     1.0000 0.07963  0.76420  0.09494  Biso   1.000  C
  H863     1.0000 0.04131  0.87531  0.13448  Biso   1.000  H
  C875     1.0000 0.02965  0.90317  0.19442  Biso   1.000  C
  H864     1.0000 0.15188  0.90400  0.20442  Biso   1.000  H
  C876     1.0000 0.09494  0.92037  0.23580  Biso   1.000  C
  H865     1.0000 0.04131  0.12469  0.86552  Biso   1.000  H
  C877     1.0000 0.02965  0.09683  0.80558  Biso   1.000  C
  H866     1.0000 0.15188  0.09600  0.79558  Biso   1.000  H
  C878     1.0000 0.09494  0.07963  0.76420  Biso   1.000  C
  H867     1.0000 0.12469  0.13448  0.95869  Biso   1.000  H
  C879     1.0000 0.09683  0.19442  0.97035  Biso   1.000  C
  H868     1.0000 0.09600  0.20442  0.84812  Biso   1.000  H
  C880     1.0000 0.07963  0.23580  0.90506  Biso   1.000  C
  H869     1.0000 0.09739  0.80830  0.99821  Biso   1.000  H
  C881     1.0000 0.07940  0.76713  0.04865  Biso   1.000  C
  H870     1.0000 0.06830  0.73830  0.10902  Biso   1.000  H
  H871     1.0000 0.99821  0.90261  0.19170  Biso   1.000  H
  C882     1.0000 0.04865  0.92060  0.23287  Biso   1.000  C
  H872     1.0000 0.10902  0.93170  0.26170  Biso   1.000  H
  H873     1.0000 0.99821  0.09739  0.80830  Biso   1.000  H
  C883     1.0000 0.04865  0.07940  0.76713  Biso   1.000  C
  H874     1.0000 0.10902  0.06830  0.73830  Biso   1.000  H
  H875     1.0000 0.09739  0.19170  0.00179  Biso   1.000  H
  C884     1.0000 0.07940  0.23287  0.95135  Biso   1.000  C
  H876     1.0000 0.06830  0.26170  0.89098  Biso   1.000  H
  C885     1.0000 0.06176  0.73103  0.02055  Biso   1.000  C
  C886     1.0000 0.02055  0.93824  0.26897  Biso   1.000  C
  C887     1.0000 0.02055  0.06176  0.73103  Biso   1.000  C
  C888     1.0000 0.06176  0.26897  0.97945  Biso   1.000  C
  H877     1.0000 0.06731  0.73219  0.98951  Biso   1.000  H
  N117     1.0000 0.04015  0.69922  0.03533  Biso   1.000  N
  H878     1.0000 0.98951  0.93269  0.26781  Biso   1.000  H
  N118     1.0000 0.03533  0.95985  0.30078  Biso   1.000  N
  H879     1.0000 0.98951  0.06731  0.73219  Biso   1.000  H
  N119     1.0000 0.03533  0.04015  0.69922  Biso   1.000  N
  H880     1.0000 0.06731  0.26781  0.01049  Biso   1.000  H
  N120     1.0000 0.04015  0.30078  0.96467  Biso   1.000  N
  C889     1.0000 0.02570  0.66601  0.00322  Biso   1.000  C
  C890     1.0000 0.00322  0.97430  0.33399  Biso   1.000  C
  C891     1.0000 0.00322  0.02570  0.66601  Biso   1.000  C
  C892     1.0000 0.02570  0.33399  0.99678  Biso   1.000  C
  C893     1.0000 0.97430  0.66601  0.99678  Biso   1.000  C
  H881     1.0000 0.04061  0.67149  0.97410  Biso   1.000  H
  C894     1.0000 0.03523  0.61903  0.01846  Biso   1.000  C
  H882     1.0000 0.97410  0.95939  0.32851  Biso   1.000  H
  C895     1.0000 0.99678  0.02570  0.33399  Biso   1.000  C
  C896     1.0000 0.01846  0.96477  0.38097  Biso   1.000  C
  C897     1.0000 0.99678  0.97430  0.66601  Biso   1.000  C
  H883     1.0000 0.97410  0.04061  0.67149  Biso   1.000  H
  C898     1.0000 0.01846  0.03523  0.61903  Biso   1.000  C
  H884     1.0000 0.04061  0.32851  0.02590  Biso   1.000  H
  C899     1.0000 0.97430  0.33399  0.00322  Biso   1.000  C
  C900     1.0000 0.03523  0.38097  0.98154  Biso   1.000  C
  N121     1.0000 0.95985  0.69922  0.96467  Biso   1.000  N
  C901     1.0000 0.96477  0.61903  0.98154  Biso   1.000  C
  H885     1.0000 0.95939  0.67149  0.02590  Biso   1.000  H
  C902     1.0000 0.99392  0.59260  0.01149  Biso   1.000  C
  C903     1.0000 0.00608  0.59260  0.98851  Biso   1.000  C
  H886     1.0000 0.06000  0.60621  0.00110  Biso   1.000  H
  H887     1.0000 0.04360  0.61889  0.05031  Biso   1.000  H
  H888     1.0000 0.02590  0.04061  0.32851  Biso   1.000  H
  N122     1.0000 0.96467  0.04015  0.30078  Biso   1.000  N
  C904     1.0000 0.98154  0.03523  0.38097  Biso   1.000  C
  C905     1.0000 0.01149  0.00608  0.40740  Biso   1.000  C
  C906     1.0000 0.98851  0.99392  0.40740  Biso   1.000  C
  H889     1.0000 0.00110  0.94000  0.39379  Biso   1.000  H
  H890     1.0000 0.05031  0.95640  0.38111  Biso   1.000  H
  N123     1.0000 0.96467  0.95985  0.69922  Biso   1.000  N
  C907     1.0000 0.98154  0.96477  0.61903  Biso   1.000  C
  H891     1.0000 0.02590  0.95939  0.67149  Biso   1.000  H
  C908     1.0000 0.98851  0.00608  0.59260  Biso   1.000  C
  C909     1.0000 0.01149  0.99392  0.59260  Biso   1.000  C
  H892     1.0000 0.00110  0.06000  0.60621  Biso   1.000  H
  H893     1.0000 0.05031  0.04360  0.61889  Biso   1.000  H
  H894     1.0000 0.95939  0.32851  0.97410  Biso   1.000  H
  N124     1.0000 0.95985  0.30078  0.03533  Biso   1.000  N
  C910     1.0000 0.96477  0.38097  0.01846  Biso   1.000  C
  C911     1.0000 0.00608  0.40740  0.01149  Biso   1.000  C
  C912     1.0000 0.99392  0.40740  0.98851  Biso   1.000  C
  H895     1.0000 0.06000  0.39379  0.99890  Biso   1.000  H
  H896     1.0000 0.04360  0.38111  0.94969  Biso   1.000  H
  C913     1.0000 0.93824  0.73103  0.97945  Biso   1.000  C
  H897     1.0000 0.94000  0.60621  0.99890  Biso   1.000  H
  H898     1.0000 0.95640  0.61889  0.94969  Biso   1.000  H
  H899     1.0000 0.99890  0.56361  0.00219  Biso   1.000  H
  H900     1.0000 0.97881  0.58712  0.04021  Biso   1.000  H
  H901     1.0000 0.00110  0.56361  0.99781  Biso   1.000  H
  H902     1.0000 0.02119  0.58712  0.95979  Biso   1.000  H
  C914     1.0000 0.97945  0.06176  0.26897  Biso   1.000  C
  H903     1.0000 0.99890  0.06000  0.39379  Biso   1.000  H
  H904     1.0000 0.94969  0.04360  0.38111  Biso   1.000  H
  H905     1.0000 0.00219  0.00110  0.43639  Biso   1.000  H
  H906     1.0000 0.04021  0.02119  0.41288  Biso   1.000  H
  H907     1.0000 0.99781  0.99890  0.43639  Biso   1.000  H
  H908     1.0000 0.95979  0.97881  0.41288  Biso   1.000  H
  C915     1.0000 0.97945  0.93824  0.73103  Biso   1.000  C
  H909     1.0000 0.99890  0.94000  0.60621  Biso   1.000  H
  H910     1.0000 0.94969  0.95640  0.61889  Biso   1.000  H
  H911     1.0000 0.99781  0.00110  0.56361  Biso   1.000  H
  H912     1.0000 0.95979  0.02119  0.58712  Biso   1.000  H
  H913     1.0000 0.00219  0.99890  0.56361  Biso   1.000  H
  H914     1.0000 0.04021  0.97881  0.58712  Biso   1.000  H
  C916     1.0000 0.93824  0.26897  0.02055  Biso   1.000  C
  H915     1.0000 0.94000  0.39379  0.00110  Biso   1.000  H
  H916     1.0000 0.95640  0.38111  0.05031  Biso   1.000  H
  H917     1.0000 0.00110  0.43639  0.00219  Biso   1.000  H
  H918     1.0000 0.02119  0.41288  0.04021  Biso   1.000  H
  H919     1.0000 0.99890  0.43639  0.99781  Biso   1.000  H
  H920     1.0000 0.97881  0.41288  0.95979  Biso   1.000  H
  C917     1.0000 0.92060  0.76713  0.95135  Biso   1.000  C
  H921     1.0000 0.93269  0.73219  0.01049  Biso   1.000  H
  H922     1.0000 0.01049  0.06731  0.26781  Biso   1.000  H
  C918     1.0000 0.95135  0.07940  0.23287  Biso   1.000  C
  C919     1.0000 0.95135  0.92060  0.76713  Biso   1.000  C
  H923     1.0000 0.01049  0.93269  0.73219  Biso   1.000  H
  H924     1.0000 0.93269  0.26781  0.98951  Biso   1.000  H
  C920     1.0000 0.92060  0.23287  0.04865  Biso   1.000  C
  C921     1.0000 0.92037  0.76420  0.90506  Biso   1.000  C
  C922     1.0000 0.90317  0.80558  0.97035  Biso   1.000  C
  C923     1.0000 0.90506  0.07963  0.23580  Biso   1.000  C
  C924     1.0000 0.97035  0.09683  0.19442  Biso   1.000  C
  C925     1.0000 0.90506  0.92037  0.76420  Biso   1.000  C
  C926     1.0000 0.97035  0.90317  0.80558  Biso   1.000  C
  C927     1.0000 0.92037  0.23580  0.09494  Biso   1.000  C
  C928     1.0000 0.90317  0.19442  0.02965  Biso   1.000  C
  C929     1.0000 0.90387  0.79841  0.87953  Biso   1.000  C
  H925     1.0000 0.93170  0.73830  0.89098  Biso   1.000  H
  C930     1.0000 0.88687  0.83971  0.94471  Biso   1.000  C
  H926     1.0000 0.90261  0.80830  0.00179  Biso   1.000  H
  C931     1.0000 0.87953  0.09613  0.20159  Biso   1.000  C
  H927     1.0000 0.89098  0.06830  0.26170  Biso   1.000  H
  H928     1.0000 0.00179  0.09739  0.19170  Biso   1.000  H
  C932     1.0000 0.94471  0.11313  0.16029  Biso   1.000  C
  C933     1.0000 0.87953  0.90387  0.79841  Biso   1.000  C
  H929     1.0000 0.89098  0.93170  0.73830  Biso   1.000  H
  C934     1.0000 0.94471  0.88687  0.83971  Biso   1.000  C
  H930     1.0000 0.00179  0.90261  0.80830  Biso   1.000  H
  C935     1.0000 0.90387  0.20159  0.12047  Biso   1.000  C
  H931     1.0000 0.93170  0.26170  0.10902  Biso   1.000  H
  H932     1.0000 0.90261  0.19170  0.99821  Biso   1.000  H
  C936     1.0000 0.88687  0.16029  0.05529  Biso   1.000  C
  C937     1.0000 0.88697  0.83696  0.89859  Biso   1.000  C
  H933     1.0000 0.90400  0.79558  0.84812  Biso   1.000  H
  H934     1.0000 0.87531  0.86552  0.95869  Biso   1.000  H
  C938     1.0000 0.89859  0.11303  0.16304  Biso   1.000  C
  H935     1.0000 0.84812  0.09600  0.20442  Biso   1.000  H
  H936     1.0000 0.95869  0.12469  0.13448  Biso   1.000  H
  C939     1.0000 0.89859  0.88697  0.83696  Biso   1.000  C
  H937     1.0000 0.84812  0.90400  0.79558  Biso   1.000  H
  H938     1.0000 0.95869  0.87531  0.86552  Biso   1.000  H
  C940     1.0000 0.88697  0.16304  0.10141  Biso   1.000  C
  H939     1.0000 0.90400  0.20442  0.15188  Biso   1.000  H
  H940     1.0000 0.87531  0.13448  0.04131  Biso   1.000  H
  N125     1.0000 0.87083  0.87083  0.87083  Biso   1.000  N
  N126     1.0000 0.87083  0.12917  0.12917  Biso   1.000  N
  C941     1.0000 0.83696  0.89859  0.88697  Biso   1.000  C
  C942     1.0000 0.83696  0.10141  0.11303  Biso   1.000  C
  C943     1.0000 0.83971  0.94471  0.88687  Biso   1.000  C
  C944     1.0000 0.79841  0.87953  0.90387  Biso   1.000  C
  C945     1.0000 0.83971  0.05529  0.11313  Biso   1.000  C
  C946     1.0000 0.79841  0.12047  0.09613  Biso   1.000  C
  H941     1.0000 0.86552  0.95869  0.87531  Biso   1.000  H
  C947     1.0000 0.80558  0.97035  0.90317  Biso   1.000  C
  H942     1.0000 0.79558  0.84812  0.90400  Biso   1.000  H
  C948     1.0000 0.76420  0.90506  0.92037  Biso   1.000  C
  H943     1.0000 0.86552  0.04131  0.12469  Biso   1.000  H
  C949     1.0000 0.80558  0.02965  0.09683  Biso   1.000  C
  H944     1.0000 0.79558  0.15188  0.09600  Biso   1.000  H
  C950     1.0000 0.76420  0.09494  0.07963  Biso   1.000  C
  C951     1.0000 0.76713  0.95135  0.92060  Biso   1.000  C
  H945     1.0000 0.80830  0.00179  0.90261  Biso   1.000  H
  H946     1.0000 0.73830  0.89098  0.93170  Biso   1.000  H
  H947     1.0000 0.80830  0.99821  0.09739  Biso   1.000  H
  C952     1.0000 0.76713  0.04865  0.07940  Biso   1.000  C
  H948     1.0000 0.73830  0.10902  0.06830  Biso   1.000  H
  C953     1.0000 0.73103  0.97945  0.93824  Biso   1.000  C
  C954     1.0000 0.73103  0.02055  0.06176  Biso   1.000  C
  N127     1.0000 0.69922  0.96467  0.95985  Biso   1.000  N
  H949     1.0000 0.73219  0.01049  0.93269  Biso   1.000  H
  H950     1.0000 0.73219  0.98951  0.06731  Biso   1.000  H
  N128     1.0000 0.69922  0.03533  0.04015  Biso   1.000  N
  C955     1.0000 0.66601  0.99678  0.97430  Biso   1.000  C
  C956     1.0000 0.66601  0.00322  0.02570  Biso   1.000  C
  C957     1.0000 0.61903  0.98154  0.96477  Biso   1.000  C
  H951     1.0000 0.67149  0.02590  0.95939  Biso   1.000  H
  H952     1.0000 0.67149  0.97410  0.04061  Biso   1.000  H
  C958     1.0000 0.61903  0.01846  0.03523  Biso   1.000  C
  H953     1.0000 0.60621  0.99890  0.94000  Biso   1.000  H
  H954     1.0000 0.61889  0.94969  0.95640  Biso   1.000  H
  C959     1.0000 0.59260  0.98851  0.00608  Biso   1.000  C
  C960     1.0000 0.59260  0.01149  0.99392  Biso   1.000  C
  H955     1.0000 0.60621  0.00110  0.06000  Biso   1.000  H
  H956     1.0000 0.61889  0.05031  0.04360  Biso   1.000  H
  H957     1.0000 0.56361  0.99781  0.00110  Biso   1.000  H
  H958     1.0000 0.58712  0.95979  0.02119  Biso   1.000  H
  H959     1.0000 0.56361  0.00219  0.99890  Biso   1.000  H
  H960     1.0000 0.58712  0.04021  0.97881  Biso   1.000  H
  Ne1      1.0000 0.25000  0.25000  0.25000  Biso   1.000  Ne
  He1      1.0000 0.35093  0.14909  0.35093  Biso   1.000  He
  He2      1.0000 0.15182  0.34820  0.34820  Biso   1.000  He
  He3      1.0000 0.15185  0.15185  0.15185  Biso   1.000  He
  He4      1.0000 0.34998  0.34998  0.15004  Biso   1.000  He
  Ar1      1.0000 0.25000  0.25000  0.25000  Biso   1.000  Ar
  Ne2      1.0000 0.50000  0.00000  0.50000  Biso   1.000  Ne
  He5      1.0000 0.59938  0.09936  0.59938  Biso   1.000  He
  He6      1.0000 0.39860  0.89862  0.60140  Biso   1.000  He
  He7      1.0000 0.60001  0.90001  0.39999  Biso   1.000  He
  He8      1.0000 0.39739  0.10260  0.39739  Biso   1.000  He
  Ar2      1.0000 0.50000  0.00000  0.50000  Biso   1.000  Ar
  Ne3      1.0000 0.50000  0.50000  0.00000  Biso   1.000  Ne
  He9      1.0000 0.59937  0.59938  0.09936  Biso   1.000  He
  He10     1.0000 0.39860  0.39860  0.10138  Biso   1.000  He
  He11     1.0000 0.60001  0.39999  0.90001  Biso   1.000  He
  He12     1.0000 0.39739  0.60261  0.89741  Biso   1.000  He
  Ar3      1.0000 0.50000  0.50000  0.00000  Biso   1.000  Ar
  Ne4      1.0000 0.00000  0.50000  0.50000  Biso   1.000  Ne
  He13     1.0000 0.09936  0.59938  0.59938  Biso   1.000  He
  He14     1.0000 0.89862  0.39860  0.60140  Biso   1.000  He
  He15     1.0000 0.09999  0.39999  0.39999  Biso   1.000  He
  He16     1.0000 0.89740  0.60261  0.39739  Biso   1.000  He
  Ar4      1.0000 0.00000  0.50000  0.50000  Biso   1.000  Ar
  Ne5      1.0000 0.00000  0.00000  0.00000  Biso   1.000  Ne
  He17     1.0000 0.09936  0.09936  0.09936  Biso   1.000  He
  He18     1.0000 0.89862  0.89862  0.10138  Biso   1.000  He
  He19     1.0000 0.09999  0.90001  0.90001  Biso   1.000  He
  He20     1.0000 0.89740  0.10259  0.89741  Biso   1.000  He
  Ar5      1.0000 0.00000  0.00000  0.00000  Biso   1.000  Ar
  Ne6      1.0000 0.75000  0.25000  0.75000  Biso   1.000  Ne
  He21     1.0000 0.85091  0.14909  0.85091  Biso   1.000  He
  He22     1.0000 0.65180  0.34820  0.84818  Biso   1.000  He
  He23     1.0000 0.65183  0.15185  0.65184  Biso   1.000  He
  He24     1.0000 0.84996  0.34998  0.65002  Biso   1.000  He
  Ar6      1.0000 0.74999  0.25001  0.74999  Biso   1.000  Ar
  Ne7      1.0000 0.75000  0.75000  0.25000  Biso   1.000  Ne
  He25     1.0000 0.85091  0.64907  0.35093  Biso   1.000  He
  He26     1.0000 0.65180  0.84818  0.34820  Biso   1.000  He
  He27     1.0000 0.65183  0.65183  0.15185  Biso   1.000  He
  He28     1.0000 0.84996  0.84996  0.15004  Biso   1.000  He
  Ar7      1.0000 0.74999  0.74999  0.25001  Biso   1.000  Ar
  Ne8      1.0000 0.25000  0.75000  0.75000  Biso   1.000  Ne
  He29     1.0000 0.35093  0.64907  0.85091  Biso   1.000  He
  He30     1.0000 0.15182  0.84818  0.84818  Biso   1.000  He
  He31     1.0000 0.15185  0.65183  0.65184  Biso   1.000  He
  He32     1.0000 0.34998  0.84996  0.65002  Biso   1.000  He
  Ar8      1.0000 0.25001  0.74999  0.74999  Biso   1.000  Ar
