data_image0
_cell_length_a       15.195
_cell_length_b       25.537
_cell_length_c       17.451
_cell_angle_alpha    90
_cell_angle_beta     114.63
_cell_angle_gamma    90

_symmetry_space_group_name_H-M    "P 1"
_symmetry_int_tables_number       1

loop_
  _symmetry_equiv_pos_as_xyz
  'x, y, z'

loop_
  _atom_site_label
  _atom_site_occupancy
  _atom_site_fract_x
  _atom_site_fract_y
  _atom_site_fract_z
  _atom_site_thermal_displace_type
  _atom_site_B_iso_or_equiv
  _atom_site_type_symbol
  C1       1.0000 0.58174  0.46901  0.41587  Biso   1.000  C
  C2       1.0000 0.50477  0.47312  0.32780  Biso   1.000  C
  O1       1.0000 0.65185  0.50879  0.43131  Biso   1.000  O
  H1       1.0000 0.55214  0.47230  0.45659  Biso   1.000  H
  H2       1.0000 0.61343  0.43431  0.42406  Biso   1.000  H
  H3       1.0000 0.46996  0.43901  0.30498  Biso   1.000  H
  H4       1.0000 0.53697  0.48201  0.29099  Biso   1.000  H
  O2       1.0000 0.43720  0.51216  0.32301  Biso   1.000  O
  C3       1.0000 0.72540  0.50699  0.51471  Biso   1.000  C
  C4       1.0000 0.36006  0.51560  0.24119  Biso   1.000  C
  C5       1.0000 0.80873  0.54012  0.52038  Biso   1.000  C
  H5       1.0000 0.69891  0.51901  0.55796  Biso   1.000  H
  H6       1.0000 0.74097  0.47100  0.52896  Biso   1.000  H
  H7       1.0000 0.38901  0.53099  0.20500  Biso   1.000  H
  H8       1.0000 0.33097  0.48498  0.22001  Biso   1.000  H
  C6       1.0000 0.27675  0.54611  0.24478  Biso   1.000  C
  N1       1.0000 0.77725  0.59471  0.49738  Biso   1.000  N
  H9       1.0000 0.83397  0.52802  0.48099  Biso   1.000  H
  H10      1.0000 0.85594  0.54302  0.57901  Biso   1.000  H
  H11      1.0000 0.27100  0.53099  0.30000  Biso   1.000  H
  H12      1.0000 0.21396  0.54102  0.18798  Biso   1.000  H
  N2       1.0000 0.28705  0.60301  0.25159  Biso   1.000  N
  N3       1.0000 0.33394  0.59702  0.26596  Biso   1.000  N
  C7       1.0000 0.84897  0.62909  0.49321  Biso   1.000  C
  H13      1.0000 0.72694  0.59600  0.45400  Biso   1.000  H
  H14      1.0000 0.22695  0.61801  0.22997  Biso   1.000  H
  C8       1.0000 0.34700  0.61808  0.33600  Biso   1.000  C
  C9       1.0000 0.30396  0.63410  0.31097  Biso   1.000  C
  H15      1.0000 0.38189  0.60301  0.25077  Biso   1.000  H
  C10      1.0000 0.81103  0.68430  0.47348  Biso   1.000  C
  H16      1.0000 0.90195  0.62701  0.55001  Biso   1.000  H
  H17      1.0000 0.87598  0.61601  0.45300  Biso   1.000  H
  C11      1.0000 0.36424  0.67851  0.34287  Biso   1.000  C
  H18      1.0000 0.41399  0.59702  0.34602  Biso   1.000  H
  H19      1.0000 0.32798  0.60101  0.38000  Biso   1.000  H
  H20      1.0000 0.29845  0.61581  0.35831  Biso   1.000  H
  H21      1.0000 0.23865  0.64659  0.27271  Biso   1.000  H
  C12      1.0000 0.78217  0.70490  0.39368  Biso   1.000  C
  C13      1.0000 0.80133  0.71532  0.53558  Biso   1.000  C
  C14      1.0000 0.38828  0.70239  0.42059  Biso   1.000  C
  C15      1.0000 0.36921  0.70799  0.27762  Biso   1.000  C
  C16      1.0000 0.74449  0.75459  0.37640  Biso   1.000  C
  H22      1.0000 0.78829  0.68461  0.35050  Biso   1.000  H
  H23      1.0000 0.81982  0.70188  0.59086  Biso   1.000  H
  C17      1.0000 0.76524  0.76509  0.51641  Biso   1.000  C
  C18      1.0000 0.42315  0.75271  0.43377  Biso   1.000  C
  H24      1.0000 0.38045  0.68399  0.46460  Biso   1.000  H
  H25      1.0000 0.35029  0.69319  0.22297  Biso   1.000  H
  C19      1.0000 0.40205  0.75929  0.29357  Biso   1.000  C
  O3       1.0000 0.72360  0.77476  0.29508  Biso   1.000  O
  C20      1.0000 0.73565  0.78600  0.43686  Biso   1.000  C
  O4       1.0000 0.76713  0.79755  0.58279  Biso   1.000  O
  O5       1.0000 0.44176  0.77452  0.51377  Biso   1.000  O
  C21      1.0000 0.43103  0.78298  0.37187  Biso   1.000  C
  O6       1.0000 0.39629  0.79070  0.22448  Biso   1.000  O
  C22      1.0000 0.63334  0.79199  0.24648  Biso   1.000  C
  H26      1.0000 0.71030  0.82050  0.42431  Biso   1.000  H
  C23      1.0000 0.68667  0.80460  0.59509  Biso   1.000  C
  C24      1.0000 0.53145  0.79289  0.56256  Biso   1.000  C
  H27      1.0000 0.45474  0.81791  0.38208  Biso   1.000  H
  C25      1.0000 0.47679  0.80049  0.21282  Biso   1.000  C
  N4       1.0000 0.56110  0.78079  0.26728  Biso   1.000  N
  N5       1.0000 0.62965  0.81885  0.17979  Biso   1.000  N
  N6       1.0000 0.60416  0.78236  0.54150  Biso   1.000  N
  N7       1.0000 0.70093  0.83467  0.66159  Biso   1.000  N
  N8       1.0000 0.53423  0.82007  0.62900  Biso   1.000  N
  N9       1.0000 0.46066  0.82884  0.14530  Biso   1.000  N
  C26      1.0000 0.54101  0.83639  0.13333  Biso   1.000  C
  C27      1.0000 0.62100  0.84039  0.67445  Biso   1.000  C
  O7       1.0000 0.52601  0.86557  0.06499  Biso   1.000  O
  O8       1.0000 0.63415  0.87038  0.74096  Biso   1.000  O
  C28      1.0000 0.60660  0.87352  0.04293  Biso   1.000  C
  C29      1.0000 0.55273  0.87732  0.76308  Biso   1.000  C
  H28      1.0000 0.62557  0.83992  0.02730  Biso   1.000  H
  H29      1.0000 0.66126  0.88820  0.09128  Biso   1.000  H
  H30      1.0000 0.58757  0.89780  0.99521  Biso   1.000  H
  H31      1.0000 0.56891  0.90379  0.80746  Biso   1.000  H
  H32      1.0000 0.53839  0.84399  0.78344  Biso   1.000  H
  H33      1.0000 0.49592  0.88879  0.71328  Biso   1.000  H
  C30      1.0000 0.41815  0.53099  0.58405  Biso   1.000  C
  O9       1.0000 0.34807  0.49121  0.56867  Biso   1.000  O
  H34      1.0000 0.44778  0.52770  0.54339  Biso   1.000  H
  H35      1.0000 0.38645  0.56569  0.57586  Biso   1.000  H
  C31      1.0000 0.49514  0.52688  0.67218  Biso   1.000  C
  C32      1.0000 0.27458  0.49301  0.48527  Biso   1.000  C
  O10      1.0000 0.56272  0.48784  0.67697  Biso   1.000  O
  H36      1.0000 0.52995  0.56099  0.69500  Biso   1.000  H
  H37      1.0000 0.46294  0.51799  0.70900  Biso   1.000  H
  C33      1.0000 0.19118  0.45988  0.47960  Biso   1.000  C
  H38      1.0000 0.30098  0.48099  0.44196  Biso   1.000  H
  H39      1.0000 0.25892  0.52900  0.47096  Biso   1.000  H
  C34      1.0000 0.63985  0.48440  0.75880  Biso   1.000  C
  N10      1.0000 0.22266  0.40529  0.50261  Biso   1.000  N
  H40      1.0000 0.16595  0.47198  0.51900  Biso   1.000  H
  H41      1.0000 0.14397  0.45698  0.42097  Biso   1.000  H
  C35      1.0000 0.72316  0.45389  0.75520  Biso   1.000  C
  H42      1.0000 0.61091  0.46901  0.79498  Biso   1.000  H
  H43      1.0000 0.66895  0.51502  0.77998  Biso   1.000  H
  C36      1.0000 0.15095  0.37091  0.50677  Biso   1.000  C
  H44      1.0000 0.27297  0.40400  0.54598  Biso   1.000  H
  N11      1.0000 0.71286  0.39699  0.74840  Biso   1.000  N
  N12      1.0000 0.66594  0.40298  0.73396  Biso   1.000  N
  H45      1.0000 0.72891  0.46901  0.69998  Biso   1.000  H
  H46      1.0000 0.78595  0.45898  0.81200  Biso   1.000  H
  C37      1.0000 0.18889  0.31570  0.52650  Biso   1.000  C
  H47      1.0000 0.09796  0.37299  0.44997  Biso   1.000  H
  H48      1.0000 0.12393  0.38399  0.54699  Biso   1.000  H
  C38      1.0000 0.65292  0.38192  0.66399  Biso   1.000  C
  C39      1.0000 0.69593  0.36590  0.68895  Biso   1.000  C
  H49      1.0000 0.77293  0.38199  0.76995  Biso   1.000  H
  H50      1.0000 0.61800  0.39699  0.74915  Biso   1.000  H
  C40      1.0000 0.19859  0.28468  0.46441  Biso   1.000  C
  C41      1.0000 0.21774  0.29510  0.60631  Biso   1.000  C
  C42      1.0000 0.63564  0.32149  0.65705  Biso   1.000  C
  H51      1.0000 0.58593  0.40298  0.65396  Biso   1.000  H
  H52      1.0000 0.67193  0.39899  0.61999  Biso   1.000  H
  H53      1.0000 0.70146  0.38419  0.64167  Biso   1.000  H
  H54      1.0000 0.76126  0.35341  0.72728  Biso   1.000  H
  C43      1.0000 0.23468  0.23491  0.48357  Biso   1.000  C
  H55      1.0000 0.18006  0.29812  0.40906  Biso   1.000  H
  C44      1.0000 0.25542  0.24541  0.62358  Biso   1.000  C
  H56      1.0000 0.21162  0.31539  0.64949  Biso   1.000  H
  C45      1.0000 0.61163  0.29761  0.57939  Biso   1.000  C
  C46      1.0000 0.63071  0.29201  0.72236  Biso   1.000  C
  O11      1.0000 0.23278  0.20245  0.41719  Biso   1.000  O
  C47      1.0000 0.26423  0.21400  0.56306  Biso   1.000  C
  O12      1.0000 0.27638  0.22524  0.70490  Biso   1.000  O
  C48      1.0000 0.57674  0.24729  0.56615  Biso   1.000  C
  H57      1.0000 0.61947  0.31601  0.53539  Biso   1.000  H
  C49      1.0000 0.59784  0.24071  0.70635  Biso   1.000  C
  H58      1.0000 0.64960  0.30681  0.77695  Biso   1.000  H
  C50      1.0000 0.31324  0.19540  0.40490  Biso   1.000  C
  H59      1.0000 0.28962  0.17950  0.57567  Biso   1.000  H
  C51      1.0000 0.36657  0.20801  0.75350  Biso   1.000  C
  O13      1.0000 0.55813  0.22548  0.48615  Biso   1.000  O
  C52      1.0000 0.56885  0.21702  0.62805  Biso   1.000  C
  O14      1.0000 0.60363  0.20930  0.77550  Biso   1.000  O
  N13      1.0000 0.29898  0.16533  0.33839  Biso   1.000  N
  N14      1.0000 0.39575  0.21764  0.45848  Biso   1.000  N
  N15      1.0000 0.37026  0.18115  0.82020  Biso   1.000  N
  N16      1.0000 0.43881  0.21921  0.73270  Biso   1.000  N
  C53      1.0000 0.46843  0.20711  0.43736  Biso   1.000  C
  H60      1.0000 0.54517  0.18209  0.61791  Biso   1.000  H
  C54      1.0000 0.52313  0.19951  0.78716  Biso   1.000  C
  C55      1.0000 0.37888  0.15961  0.32547  Biso   1.000  C
  C56      1.0000 0.45890  0.16361  0.86666  Biso   1.000  C
  N17      1.0000 0.46569  0.17993  0.37098  Biso   1.000  N
  N18      1.0000 0.53925  0.17116  0.85468  Biso   1.000  N
  O15      1.0000 0.36574  0.12962  0.25896  Biso   1.000  O
  O16      1.0000 0.47391  0.13443  0.93499  Biso   1.000  O
  C57      1.0000 0.44718  0.12268  0.23690  Biso   1.000  C
  C58      1.0000 0.39332  0.12648  0.95705  Biso   1.000  C
  H61      1.0000 0.43101  0.09621  0.19252  Biso   1.000  H
  H62      1.0000 0.46149  0.15601  0.21647  Biso   1.000  H
  H63      1.0000 0.50399  0.11121  0.28670  Biso   1.000  H
  H64      1.0000 0.37435  0.16008  0.97269  Biso   1.000  H
  H65      1.0000 0.33862  0.11180  0.90864  Biso   1.000  H
  H66      1.0000 0.41241  0.10220  0.00477  Biso   1.000  H
  C59      1.0000 0.60654  0.62650  0.54289  Biso   1.000  C
  O17      1.0000 0.52595  0.63441  0.56495  Biso   1.000  O
  H67      1.0000 0.58758  0.60219  0.49517  Biso   1.000  H
  H68      1.0000 0.62551  0.66010  0.52726  Biso   1.000  H
  H69      1.0000 0.66123  0.61182  0.59130  Biso   1.000  H
  C60      1.0000 0.54095  0.66359  0.63329  Biso   1.000  C
  N19      1.0000 0.46060  0.67118  0.64526  Biso   1.000  N
  N20      1.0000 0.62962  0.68117  0.67981  Biso   1.000  N
  C61      1.0000 0.47673  0.69949  0.71278  Biso   1.000  C
  C62      1.0000 0.63338  0.70799  0.74650  Biso   1.000  C
  O18      1.0000 0.39626  0.70932  0.72450  Biso   1.000  O
  N21      1.0000 0.56107  0.71923  0.76731  Biso   1.000  N
  O19      1.0000 0.72354  0.72526  0.79504  Biso   1.000  O
  C63      1.0000 0.40202  0.74069  0.79359  Biso   1.000  C
  C64      1.0000 0.74443  0.74539  0.87636  Biso   1.000  C
  C65      1.0000 0.36915  0.79199  0.77758  Biso   1.000  C
  C66      1.0000 0.43100  0.71700  0.87189  Biso   1.000  C
  C67      1.0000 0.78215  0.79508  0.89370  Biso   1.000  C
  C68      1.0000 0.73562  0.71398  0.93688  Biso   1.000  C
  C69      1.0000 0.36421  0.82151  0.84289  Biso   1.000  C
  H70      1.0000 0.35026  0.80679  0.72299  Biso   1.000  H
  C70      1.0000 0.42312  0.74731  0.93379  Biso   1.000  C
  H71      1.0000 0.45471  0.68211  0.88210  Biso   1.000  H
  H72      1.0000 0.78823  0.81541  0.85045  Biso   1.000  H
  C71      1.0000 0.81097  0.81572  0.97344  Biso   1.000  C
  H73      1.0000 0.71024  0.67948  0.92427  Biso   1.000  H
  C72      1.0000 0.76525  0.73489  0.01637  Biso   1.000  C
  C73      1.0000 0.38822  0.79759  0.92055  Biso   1.000  C
  C74      1.0000 0.34694  0.88190  0.83596  Biso   1.000  C
  C75      1.0000 0.30393  0.86588  0.81099  Biso   1.000  C
  O20      1.0000 0.44180  0.72550  0.01379  Biso   1.000  O
  C76      1.0000 0.84891  0.87089  0.99317  Biso   1.000  C
  C77      1.0000 0.80136  0.78470  0.03560  Biso   1.000  C
  O21      1.0000 0.76714  0.70243  0.08275  Biso   1.000  O
  H74      1.0000 0.38039  0.81599  0.96456  Biso   1.000  H
  N22      1.0000 0.28699  0.89701  0.75155  Biso   1.000  N
  H75      1.0000 0.41393  0.90300  0.84598  Biso   1.000  H
  H76      1.0000 0.32792  0.89901  0.87996  Biso   1.000  H
  H77      1.0000 0.29839  0.88421  0.85827  Biso   1.000  H
  N23      1.0000 0.33392  0.90300  0.76598  Biso   1.000  N
  H78      1.0000 0.23860  0.85339  0.77267  Biso   1.000  H
  C78      1.0000 0.53149  0.70709  0.06258  Biso   1.000  C
  H79      1.0000 0.87592  0.88401  0.95296  Biso   1.000  H
  N24      1.0000 0.77722  0.90531  0.99740  Biso   1.000  N
  H80      1.0000 0.90196  0.87301  0.04997  Biso   1.000  H
  H81      1.0000 0.81986  0.79810  0.09088  Biso   1.000  H
  C79      1.0000 0.68671  0.69538  0.09511  Biso   1.000  C
  C80      1.0000 0.27672  0.95391  0.74480  Biso   1.000  C
  H82      1.0000 0.22692  0.88201  0.72999  Biso   1.000  H
  H83      1.0000 0.38186  0.89701  0.75079  Biso   1.000  H
  N25      1.0000 0.53424  0.67995  0.12896  Biso   1.000  N
  N26      1.0000 0.60417  0.71766  0.04146  Biso   1.000  N
  H84      1.0000 0.72688  0.90398  0.95396  Biso   1.000  H
  C81      1.0000 0.80877  0.95990  0.02041  Biso   1.000  C
  N27      1.0000 0.70094  0.66535  0.16155  Biso   1.000  N
  C82      1.0000 0.36000  0.98441  0.74115  Biso   1.000  C
  H85      1.0000 0.27094  0.96899  0.79996  Biso   1.000  H
  H86      1.0000 0.21393  0.95900  0.68800  Biso   1.000  H
  C83      1.0000 0.62104  0.65959  0.17447  Biso   1.000  C
  H87      1.0000 0.83391  0.97200  0.98095  Biso   1.000  H
  H88      1.0000 0.85595  0.95700  0.07897  Biso   1.000  H
  C84      1.0000 0.72540  0.99299  0.01467  Biso   1.000  C
  O22      1.0000 0.43714  0.98782  0.82297  Biso   1.000  O
  H89      1.0000 0.38895  0.96899  0.70496  Biso   1.000  H
  H90      1.0000 0.33091  0.01500  0.71996  Biso   1.000  H
  O23      1.0000 0.63418  0.62960  0.24098  Biso   1.000  O
  O24      1.0000 0.65179  0.99119  0.93127  Biso   1.000  O
  H91      1.0000 0.69895  0.98101  0.05798  Biso   1.000  H
  H92      1.0000 0.74101  0.02902  0.02898  Biso   1.000  H
  C85      1.0000 0.50472  0.02690  0.82776  Biso   1.000  C
  C86      1.0000 0.55274  0.62270  0.26304  Biso   1.000  C
  C87      1.0000 0.58171  0.03101  0.91589  Biso   1.000  C
  H93      1.0000 0.46993  0.06101  0.80500  Biso   1.000  H
  H94      1.0000 0.53691  0.01801  0.79095  Biso   1.000  H
  H95      1.0000 0.56894  0.59619  0.30749  Biso   1.000  H
  H96      1.0000 0.53843  0.65599  0.28347  Biso   1.000  H
  H97      1.0000 0.49596  0.61119  0.21331  Biso   1.000  H
  H98      1.0000 0.55208  0.02769  0.95655  Biso   1.000  H
  H99      1.0000 0.61341  0.06571  0.92408  Biso   1.000  H
  C88      1.0000 0.39338  0.37350  0.45709  Biso   1.000  C
  O25      1.0000 0.47393  0.36559  0.43497  Biso   1.000  O
  H100     1.0000 0.41240  0.39781  0.50481  Biso   1.000  H
  H101     1.0000 0.37437  0.33990  0.47266  Biso   1.000  H
  H102     1.0000 0.33868  0.38818  0.40868  Biso   1.000  H
  C89      1.0000 0.45896  0.33641  0.36670  Biso   1.000  C
  N28      1.0000 0.37029  0.31883  0.32017  Biso   1.000  N
  N29      1.0000 0.53931  0.32882  0.35472  Biso   1.000  N
  C90      1.0000 0.36660  0.29201  0.25348  Biso   1.000  C
  C91      1.0000 0.52318  0.30051  0.28720  Biso   1.000  C
  O26      1.0000 0.27634  0.27474  0.20488  Biso   1.000  O
  N30      1.0000 0.43884  0.28077  0.23268  Biso   1.000  N
  O27      1.0000 0.60365  0.29068  0.27548  Biso   1.000  O
  C92      1.0000 0.25548  0.25461  0.12362  Biso   1.000  C
  C93      1.0000 0.59790  0.25931  0.20639  Biso   1.000  C
  C94      1.0000 0.21777  0.20492  0.10628  Biso   1.000  C
  C95      1.0000 0.26429  0.28602  0.06310  Biso   1.000  C
  C96      1.0000 0.63077  0.20801  0.22240  Biso   1.000  C
  C97      1.0000 0.56891  0.28300  0.12809  Biso   1.000  C
  H103     1.0000 0.21165  0.18459  0.14946  Biso   1.000  H
  C98      1.0000 0.18891  0.18428  0.02648  Biso   1.000  C
  H104     1.0000 0.28968  0.32052  0.07571  Biso   1.000  H
  C99      1.0000 0.23467  0.26511  0.98361  Biso   1.000  C
  C100     1.0000 0.63570  0.17849  0.15709  Biso   1.000  C
  H105     1.0000 0.64966  0.19321  0.27699  Biso   1.000  H
  C101     1.0000 0.57679  0.25269  0.06619  Biso   1.000  C
  H106     1.0000 0.54520  0.31789  0.11788  Biso   1.000  H
  C102     1.0000 0.15100  0.12911  0.00681  Biso   1.000  C
  C103     1.0000 0.19855  0.21530  0.96438  Biso   1.000  C
  O28      1.0000 0.23275  0.29757  0.91717  Biso   1.000  O
  C104     1.0000 0.61169  0.20241  0.07943  Biso   1.000  C
  C105     1.0000 0.65294  0.11810  0.16396  Biso   1.000  C
  C106     1.0000 0.69598  0.13412  0.18899  Biso   1.000  C
  O29      1.0000 0.55812  0.27450  0.98619  Biso   1.000  O
  H107     1.0000 0.12399  0.11599  0.04703  Biso   1.000  H
  N31      1.0000 0.22269  0.09469  0.00258  Biso   1.000  N
  H108     1.0000 0.09796  0.12699  0.95001  Biso   1.000  H
  H109     1.0000 0.18005  0.20190  0.90910  Biso   1.000  H
  C107     1.0000 0.31321  0.30462  0.90487  Biso   1.000  C
  H110     1.0000 0.61952  0.18401  0.03543  Biso   1.000  H
  N32      1.0000 0.71289  0.10299  0.24837  Biso   1.000  N
  H111     1.0000 0.58598  0.09700  0.15400  Biso   1.000  H
  H112     1.0000 0.67199  0.10099  0.12003  Biso   1.000  H
  H113     1.0000 0.70152  0.11579  0.14171  Biso   1.000  H
  N33      1.0000 0.66600  0.09700  0.23400  Biso   1.000  N
  H114     1.0000 0.76132  0.14661  0.22732  Biso   1.000  H
  C108     1.0000 0.46843  0.29291  0.93740  Biso   1.000  C
  H115     1.0000 0.27303  0.09602  0.04602  Biso   1.000  H
  C109     1.0000 0.19115  0.04010  0.97958  Biso   1.000  C
  N34      1.0000 0.29895  0.33465  0.83837  Biso   1.000  N
  N35      1.0000 0.39571  0.28234  0.95846  Biso   1.000  N
  C110     1.0000 0.72319  0.04609  0.25518  Biso   1.000  C
  H116     1.0000 0.77299  0.11799  0.26999  Biso   1.000  H
  H117     1.0000 0.61805  0.10299  0.24919  Biso   1.000  H
  N36      1.0000 0.46565  0.32005  0.87096  Biso   1.000  N
  H118     1.0000 0.16598  0.02800  0.01897  Biso   1.000  H
  H119     1.0000 0.14396  0.04300  0.92101  Biso   1.000  H
  C111     1.0000 0.27458  0.00701  0.98531  Biso   1.000  C
  C112     1.0000 0.37887  0.34041  0.82551  Biso   1.000  C
  C113     1.0000 0.63988  0.01559  0.25877  Biso   1.000  C
  H120     1.0000 0.72897  0.03101  0.20002  Biso   1.000  H
  H121     1.0000 0.78598  0.04100  0.31198  Biso   1.000  H
  O30      1.0000 0.34812  0.00881  0.06871  Biso   1.000  O
  H122     1.0000 0.25897  0.97098  0.97100  Biso   1.000  H
  H123     1.0000 0.30097  0.01899  0.94200  Biso   1.000  H
  O31      1.0000 0.36573  0.37040  0.75900  Biso   1.000  O
  O32      1.0000 0.56278  0.01218  0.17701  Biso   1.000  O
  H124     1.0000 0.61097  0.03101  0.29502  Biso   1.000  H
  H125     1.0000 0.66900  0.98500  0.28002  Biso   1.000  H
  C114     1.0000 0.41820  0.96899  0.08409  Biso   1.000  C
  C115     1.0000 0.44714  0.37730  0.73688  Biso   1.000  C
  C116     1.0000 0.49520  0.97310  0.17222  Biso   1.000  C
  H126     1.0000 0.44781  0.97231  0.04337  Biso   1.000  H
  H127     1.0000 0.38651  0.93429  0.07590  Biso   1.000  H
  H128     1.0000 0.43097  0.40381  0.69250  Biso   1.000  H
  H129     1.0000 0.46148  0.34401  0.71652  Biso   1.000  H
  H130     1.0000 0.50395  0.38881  0.78668  Biso   1.000  H
  H131     1.0000 0.52998  0.93899  0.19498  Biso   1.000  H
  H132     1.0000 0.46297  0.98199  0.20897  Biso   1.000  H
  O33      1.0000 0.60889  0.50452  0.18042  Biso   1.000  O
  C117     1.0000 0.70180  0.48349  0.22782  Biso   1.000  C
  C118     1.0000 0.59430  0.53158  0.10950  Biso   1.000  C
  C119     1.0000 0.71399  0.42981  0.22290  Biso   1.000  C
  C120     1.0000 0.77497  0.51521  0.28140  Biso   1.000  C
  N37      1.0000 0.50646  0.55320  0.07489  Biso   1.000  N
  N38      1.0000 0.66380  0.53436  0.08353  Biso   1.000  N
  H133     1.0000 0.66201  0.40909  0.18552  Biso   1.000  H
  C121     1.0000 0.80185  0.40659  0.27239  Biso   1.000  C
  C122     1.0000 0.86199  0.49121  0.33026  Biso   1.000  C
  H134     1.0000 0.76605  0.55179  0.28449  Biso   1.000  H
  C123     1.0000 0.49459  0.58202  0.00719  Biso   1.000  C
  C124     1.0000 0.63897  0.56420  0.01418  Biso   1.000  C
  C125     1.0000 0.87671  0.43791  0.32692  Biso   1.000  C
  C126     1.0000 0.81160  0.34789  0.26457  Biso   1.000  C
  O34      1.0000 0.93599  0.52203  0.39109  Biso   1.000  O
  O35      1.0000 0.41200  0.60814  0.96678  Biso   1.000  O
  N39      1.0000 0.55739  0.58969  0.97327  Biso   1.000  N
  O36      1.0000 0.70480  0.57043  0.98178  Biso   1.000  O
  H135     1.0000 0.93746  0.42280  0.36159  Biso   1.000  H
  H136     1.0000 0.76300  0.33101  0.28197  Biso   1.000  H
  H137     1.0000 0.79600  0.33802  0.20998  Biso   1.000  H
  N40      1.0000 0.90024  0.32420  0.31627  Biso   1.000  N
  N41      1.0000 0.90666  0.32980  0.31097  Biso   1.000  N
  C127     1.0000 0.99302  0.55010  0.36506  Biso   1.000  C
  C128     1.0000 0.33826  0.60481  0.99641  Biso   1.000  C
  C129     1.0000 0.79588  0.54662  0.02440  Biso   1.000  C
  C130     1.0000 0.88491  0.26620  0.28739  Biso   1.000  C
  H138     1.0000 0.95705  0.34988  0.31961  Biso   1.000  H
  C131     1.0000 0.91914  0.27309  0.34627  Biso   1.000  C
  H139     1.0000 0.91999  0.32901  0.34501  Biso   1.000  H
  N42      1.0000 0.97877  0.54721  0.28468  Biso   1.000  N
  N43      1.0000 0.05989  0.57842  0.42639  Biso   1.000  N
  H140     1.0000 0.36233  0.61898  0.05371  Biso   1.000  H
  H141     1.0000 0.28164  0.62501  0.95909  Biso   1.000  H
  H142     1.0000 0.31962  0.56812  0.99679  Biso   1.000  H
  C132     1.0000 0.86612  0.57309  0.09002  Biso   1.000  C
  C133     1.0000 0.81401  0.49990  0.99477  Biso   1.000  C
  H143     1.0000 0.84045  0.24882  0.30782  Biso   1.000  H
  H144     1.0000 0.85589  0.26420  0.22499  Biso   1.000  H
  C134     1.0000 0.97738  0.24051  0.32137  Biso   1.000  C
  C135     1.0000 0.92598  0.24259  0.26968  Biso   1.000  C
  H145     1.0000 0.87459  0.25371  0.21496  Biso   1.000  H
  H146     1.0000 0.86263  0.26170  0.35636  Biso   1.000  H
  H147     1.0000 0.97896  0.26922  0.39878  Biso   1.000  H
  C136     1.0000 0.04038  0.57771  0.26848  Biso   1.000  C
  C137     1.0000 0.11607  0.60540  0.39897  Biso   1.000  C
  C138     1.0000 0.95583  0.55050  0.12702  Biso   1.000  C
  H148     1.0000 0.85289  0.60579  0.10899  Biso   1.000  H
  C139     1.0000 0.90531  0.47699  0.03398  Biso   1.000  C
  H149     1.0000 0.76465  0.48318  0.94787  Biso   1.000  H
  H150     1.0000 0.96911  0.20222  0.31330  Biso   1.000  H
  H151     1.0000 0.92288  0.20429  0.27598  Biso   1.000  H
  H152     1.0000 0.01191  0.24780  0.38252  Biso   1.000  H
  O37      1.0000 0.02936  0.26033  0.27832  Biso   1.000  O
  O38      1.0000 0.03210  0.57849  0.18849  Biso   1.000  O
  N44      1.0000 0.11035  0.60704  0.32131  Biso   1.000  N
  O39      1.0000 0.18828  0.63363  0.45388  Biso   1.000  O
  C140     1.0000 0.97575  0.50292  0.10017  Biso   1.000  C
  C141     1.0000 0.92699  0.42570  0.00063  Biso   1.000  C
  C142     1.0000 0.05214  0.22689  0.22417  Biso   1.000  C
  C143     1.0000 0.20115  0.63379  0.54030  Biso   1.000  C
  H153     1.0000 0.03856  0.48800  0.12759  Biso   1.000  H
  N45      1.0000 0.89066  0.38031  0.02648  Biso   1.000  N
  H154     1.0000 0.88294  0.42202  0.93898  Biso   1.000  H
  H155     1.0000 0.00200  0.42002  0.01998  Biso   1.000  H
  C144     1.0000 0.97889  0.22810  0.13629  Biso   1.000  C
  H156     1.0000 0.05848  0.19059  0.24566  Biso   1.000  H
  H157     1.0000 0.11549  0.23750  0.22562  Biso   1.000  H
  H158     1.0000 0.25725  0.65552  0.57390  Biso   1.000  H
  H159     1.0000 0.21202  0.59792  0.56218  Biso   1.000  H
  H160     1.0000 0.14309  0.64812  0.54371  Biso   1.000  H
  C145     1.0000 0.90756  0.33250  0.98039  Biso   1.000  C
  C146     1.0000 0.89894  0.33399  0.99401  Biso   1.000  C
  H161     1.0000 0.92899  0.37800  0.08800  Biso   1.000  H
  H162     1.0000 0.99689  0.20288  0.10200  Biso   1.000  H
  H163     1.0000 0.91522  0.21749  0.13402  Biso   1.000  H
  O40      1.0000 0.97279  0.27909  0.10307  Biso   1.000  O
  C147     1.0000 0.89202  0.28351  0.02383  Biso   1.000  C
  C148     1.0000 0.99301  0.30301  0.03600  Biso   1.000  C
  H164     1.0000 0.84540  0.31120  0.99256  Biso   1.000  H
  H165     1.0000 0.97421  0.33309  0.98380  Biso   1.000  H
  H166     1.0000 0.86143  0.33301  0.92032  Biso   1.000  H
  H167     1.0000 0.88774  0.34002  0.93431  Biso   1.000  H
  H168     1.0000 0.83143  0.28668  0.03171  Biso   1.000  H
  H169     1.0000 0.88715  0.25210  0.98891  Biso   1.000  H
  H170     1.0000 0.00063  0.27670  0.99760  Biso   1.000  H
  H171     1.0000 0.05029  0.32631  0.05818  Biso   1.000  H
  O41      1.0000 0.39102  0.49548  0.81957  Biso   1.000  O
  C149     1.0000 0.29811  0.51651  0.77216  Biso   1.000  C
  C150     1.0000 0.40562  0.46842  0.89048  Biso   1.000  C
  C151     1.0000 0.22495  0.48479  0.71858  Biso   1.000  C
  C152     1.0000 0.28592  0.57019  0.77708  Biso   1.000  C
  N46      1.0000 0.49345  0.44680  0.92509  Biso   1.000  N
  N47      1.0000 0.33611  0.46564  0.91646  Biso   1.000  N
  C153     1.0000 0.13796  0.50879  0.66966  Biso   1.000  C
  H172     1.0000 0.23387  0.44821  0.71549  Biso   1.000  H
  C154     1.0000 0.19807  0.59341  0.72759  Biso   1.000  C
  H173     1.0000 0.33790  0.59091  0.81446  Biso   1.000  H
  C155     1.0000 0.50533  0.41798  0.99280  Biso   1.000  C
  C156     1.0000 0.36094  0.43580  0.98580  Biso   1.000  C
  O42      1.0000 0.06393  0.47797  0.60889  Biso   1.000  O
  C157     1.0000 0.12320  0.56209  0.67306  Biso   1.000  C
  C158     1.0000 0.18829  0.65211  0.73535  Biso   1.000  C
  O43      1.0000 0.58791  0.39186  0.03320  Biso   1.000  O
  N48      1.0000 0.44252  0.41031  0.02671  Biso   1.000  N
  O44      1.0000 0.29511  0.42957  0.01820  Biso   1.000  O
  C159     1.0000 0.00686  0.44990  0.63486  Biso   1.000  C
  H174     1.0000 0.06245  0.57720  0.63839  Biso   1.000  H
  H175     1.0000 0.23695  0.66899  0.71795  Biso   1.000  H
  H176     1.0000 0.20392  0.66198  0.79000  Biso   1.000  H
  N49      1.0000 0.09964  0.67580  0.68365  Biso   1.000  N
  N50      1.0000 0.09323  0.67020  0.68895  Biso   1.000  N
  C160     1.0000 0.66165  0.39519  0.00358  Biso   1.000  C
  C161     1.0000 0.20403  0.45338  0.97559  Biso   1.000  C
  N51      1.0000 0.02114  0.45279  0.71530  Biso   1.000  N
  N52      1.0000 0.94002  0.42158  0.57359  Biso   1.000  N
  C162     1.0000 0.11507  0.73380  0.71259  Biso   1.000  C
  H177     1.0000 0.04286  0.65012  0.68038  Biso   1.000  H
  C163     1.0000 0.08074  0.72691  0.65365  Biso   1.000  C
  H178     1.0000 0.07993  0.67099  0.65497  Biso   1.000  H
  H179     1.0000 0.63765  0.38102  0.94627  Biso   1.000  H
  H180     1.0000 0.71828  0.37499  0.04089  Biso   1.000  H
  H181     1.0000 0.68029  0.43188  0.00320  Biso   1.000  H
  C164     1.0000 0.13379  0.42691  0.90996  Biso   1.000  C
  C165     1.0000 0.18587  0.50010  0.00515  Biso   1.000  C
  C166     1.0000 0.95953  0.42229  0.73150  Biso   1.000  C
  C167     1.0000 0.88385  0.39460  0.60101  Biso   1.000  C
  H182     1.0000 0.15946  0.75118  0.69216  Biso   1.000  H
  H183     1.0000 0.14402  0.73580  0.77500  Biso   1.000  H
  C168     1.0000 0.02250  0.75949  0.67855  Biso   1.000  C
  C169     1.0000 0.07393  0.75741  0.73030  Biso   1.000  C
  H184     1.0000 0.12530  0.74629  0.78496  Biso   1.000  H
  H185     1.0000 0.13725  0.73830  0.64356  Biso   1.000  H
  H186     1.0000 0.02096  0.73078  0.60120  Biso   1.000  H
  C170     1.0000 0.04409  0.44950  0.87296  Biso   1.000  C
  H187     1.0000 0.14702  0.39421  0.89099  Biso   1.000  H
  C171     1.0000 0.09458  0.52301  0.96594  Biso   1.000  C
  H188     1.0000 0.23523  0.51682  0.05205  Biso   1.000  H
  O45      1.0000 0.96781  0.42151  0.81150  Biso   1.000  O
  N53      1.0000 0.88956  0.39296  0.67867  Biso   1.000  N
  O46      1.0000 0.81163  0.36637  0.54610  Biso   1.000  O
  H189     1.0000 0.03087  0.79778  0.68668  Biso   1.000  H
  H190     1.0000 0.07703  0.79571  0.72400  Biso   1.000  H
  H191     1.0000 0.98807  0.75220  0.61746  Biso   1.000  H
  O47      1.0000 0.97055  0.73967  0.72167  Biso   1.000  O
  C172     1.0000 0.02414  0.49708  0.89975  Biso   1.000  C
  C173     1.0000 0.07293  0.57430  0.99935  Biso   1.000  C
  C174     1.0000 0.79876  0.36621  0.45968  Biso   1.000  C
  C175     1.0000 0.94774  0.77311  0.77575  Biso   1.000  C
  H192     1.0000 0.96135  0.51200  0.87239  Biso   1.000  H
  N54      1.0000 0.10923  0.61969  0.97344  Biso   1.000  N
  H193     1.0000 0.99792  0.57998  0.98000  Biso   1.000  H
  H194     1.0000 0.11698  0.57798  0.06100  Biso   1.000  H
  H195     1.0000 0.74266  0.34448  0.42608  Biso   1.000  H
  H196     1.0000 0.78790  0.40208  0.43780  Biso   1.000  H
  H197     1.0000 0.85689  0.35188  0.45627  Biso   1.000  H
  C176     1.0000 0.02103  0.77190  0.86369  Biso   1.000  C
  H198     1.0000 0.94140  0.80941  0.75426  Biso   1.000  H
  H199     1.0000 0.88442  0.76250  0.77437  Biso   1.000  H
  H200     1.0000 0.07092  0.62200  0.91198  Biso   1.000  H
  C177     1.0000 0.09235  0.66750  0.01959  Biso   1.000  C
  C178     1.0000 0.10097  0.66601  0.00597  Biso   1.000  C
  H201     1.0000 0.00302  0.79712  0.89799  Biso   1.000  H
  H202     1.0000 0.08470  0.78251  0.86596  Biso   1.000  H
  O48      1.0000 0.02709  0.72091  0.89685  Biso   1.000  O
  C179     1.0000 0.10789  0.71649  0.97615  Biso   1.000  C
  C180     1.0000 0.00690  0.69699  0.96399  Biso   1.000  C
  H203     1.0000 0.13848  0.66699  0.07966  Biso   1.000  H
  H204     1.0000 0.02570  0.66691  0.01618  Biso   1.000  H
  H205     1.0000 0.11217  0.65998  0.06567  Biso   1.000  H
  H206     1.0000 0.15448  0.68880  0.00736  Biso   1.000  H
  H207     1.0000 0.16855  0.71332  0.96827  Biso   1.000  H
  H208     1.0000 0.11276  0.74790  0.01108  Biso   1.000  H
  H209     1.0000 0.94962  0.67369  0.94180  Biso   1.000  H
  H210     1.0000 0.99928  0.72330  0.00238  Biso   1.000  H
  C181     1.0000 0.92596  0.25739  0.76970  Biso   1.000  C
  O49      1.0000 0.02930  0.23965  0.77828  Biso   1.000  O
  C182     1.0000 0.88485  0.23382  0.78735  Biso   1.000  C
  H211     1.0000 0.96905  0.29780  0.81326  Biso   1.000  H
  C183     1.0000 0.91911  0.22689  0.84629  Biso   1.000  C
  H212     1.0000 0.92285  0.29569  0.77601  Biso   1.000  H
  H213     1.0000 0.85586  0.23581  0.72501  Biso   1.000  H
  H214     1.0000 0.87456  0.24631  0.71498  Biso   1.000  H
  C184     1.0000 0.05212  0.27309  0.72419  Biso   1.000  C
  C185     1.0000 0.97735  0.25951  0.82139  Biso   1.000  C
  N55      1.0000 0.90021  0.17578  0.81629  Biso   1.000  N
  H215     1.0000 0.84046  0.25120  0.80778  Biso   1.000  H
  N56      1.0000 0.90663  0.17018  0.81099  Biso   1.000  N
  H216     1.0000 0.86261  0.23828  0.85638  Biso   1.000  H
  H217     1.0000 0.97890  0.23080  0.89874  Biso   1.000  H
  C186     1.0000 0.97883  0.27192  0.63625  Biso   1.000  C
  H218     1.0000 0.05846  0.30939  0.74568  Biso   1.000  H
  H219     1.0000 0.11543  0.26248  0.72558  Biso   1.000  H
  H220     1.0000 0.01185  0.25218  0.88248  Biso   1.000  H
  C187     1.0000 0.81157  0.15209  0.76460  Biso   1.000  C
  H221     1.0000 0.95700  0.15010  0.81957  Biso   1.000  H
  H222     1.0000 0.91993  0.17101  0.84497  Biso   1.000  H
  O50      1.0000 0.97277  0.22090  0.60309  Biso   1.000  O
  H223     1.0000 0.99684  0.29710  0.60196  Biso   1.000  H
  H224     1.0000 0.91516  0.28249  0.63398  Biso   1.000  H
  C188     1.0000 0.80179  0.09339  0.77235  Biso   1.000  C
  H225     1.0000 0.76297  0.16901  0.78199  Biso   1.000  H
  H226     1.0000 0.79597  0.16200  0.71000  Biso   1.000  H
  C189     1.0000 0.89197  0.21651  0.52379  Biso   1.000  C
  C190     1.0000 0.99295  0.19701  0.53595  Biso   1.000  C
  C191     1.0000 0.71394  0.07021  0.72286  Biso   1.000  C
  C192     1.0000 0.87665  0.06211  0.82688  Biso   1.000  C
  H227     1.0000 0.83137  0.21330  0.53167  Biso   1.000  H
  H228     1.0000 0.88716  0.24791  0.48887  Biso   1.000  H
  C193     1.0000 0.90757  0.16748  0.48035  Biso   1.000  C
  C194     1.0000 0.89895  0.16599  0.49397  Biso   1.000  C
  H229     1.0000 0.84544  0.18878  0.49258  Biso   1.000  H
  H230     1.0000 0.97422  0.16690  0.48376  Biso   1.000  H
  H231     1.0000 0.00064  0.22328  0.49756  Biso   1.000  H
  H232     1.0000 0.05026  0.17371  0.55821  Biso   1.000  H
  C195     1.0000 0.70175  0.01649  0.72778  Biso   1.000  C
  H233     1.0000 0.66195  0.09089  0.68548  Biso   1.000  H
  H234     1.0000 0.93741  0.07718  0.86155  Biso   1.000  H
  C196     1.0000 0.86196  0.00881  0.83028  Biso   1.000  C
  H235     1.0000 0.86144  0.16701  0.42028  Biso   1.000  H
  N57      1.0000 0.89063  0.11971  0.52650  Biso   1.000  N
  H236     1.0000 0.88775  0.16000  0.43427  Biso   1.000  H
  O51      1.0000 0.60884  0.99550  0.68038  Biso   1.000  O
  C197     1.0000 0.77491  0.98481  0.78136  Biso   1.000  C
  O52      1.0000 0.93593  0.97799  0.89105  Biso   1.000  O
  H237     1.0000 0.92893  0.12202  0.58796  Biso   1.000  H
  C198     1.0000 0.92693  0.07428  0.50059  Biso   1.000  C
  C199     1.0000 0.59424  0.96840  0.60946  Biso   1.000  C
  H238     1.0000 0.76599  0.94819  0.78445  Biso   1.000  H
  C200     1.0000 0.99300  0.94992  0.86508  Biso   1.000  C
  C201     1.0000 0.90528  0.02299  0.53400  Biso   1.000  C
  H239     1.0000 0.88297  0.07800  0.43900  Biso   1.000  H
  H240     1.0000 0.00197  0.08000  0.52001  Biso   1.000  H
  N58      1.0000 0.66374  0.96562  0.58349  Biso   1.000  N
  N59      1.0000 0.50643  0.94682  0.57491  Biso   1.000  N
  N60      1.0000 0.97874  0.95281  0.78471  Biso   1.000  N
  N61      1.0000 0.05984  0.92156  0.92635  Biso   1.000  N
  C202     1.0000 0.81405  0.00012  0.49479  Biso   1.000  C
  C203     1.0000 0.97572  0.99710  0.60019  Biso   1.000  C
  C204     1.0000 0.63894  0.93582  0.51421  Biso   1.000  C
  C205     1.0000 0.49456  0.91800  0.50721  Biso   1.000  C
  C206     1.0000 0.04036  0.92231  0.76850  Biso   1.000  C
  C207     1.0000 0.11604  0.89458  0.89899  Biso   1.000  C
  H241     1.0000 0.76469  0.01680  0.44789  Biso   1.000  H
  C208     1.0000 0.79582  0.95340  0.52436  Biso   1.000  C
  C209     1.0000 0.95577  0.94949  0.62698  Biso   1.000  C
  H242     1.0000 0.03850  0.01198  0.62755  Biso   1.000  H
  O53      1.0000 0.70484  0.92955  0.48180  Biso   1.000  O
  N62      1.0000 0.55743  0.91033  0.47329  Biso   1.000  N
  O54      1.0000 0.41204  0.89184  0.46680  Biso   1.000  O
  O55      1.0000 0.03208  0.92149  0.68851  Biso   1.000  O
  N63      1.0000 0.11030  0.89294  0.82127  Biso   1.000  N
  O56      1.0000 0.18823  0.86635  0.95384  Biso   1.000  O
  C210     1.0000 0.86606  0.92689  0.58998  Biso   1.000  C
  C211     1.0000 0.33827  0.89521  0.49637  Biso   1.000  C
  C212     1.0000 0.20116  0.86619  0.04026  Biso   1.000  C
  H243     1.0000 0.85283  0.89419  0.60895  Biso   1.000  H
  H244     1.0000 0.28167  0.87500  0.45911  Biso   1.000  H
  H245     1.0000 0.36227  0.88100  0.55367  Biso   1.000  H
  H246     1.0000 0.31966  0.93190  0.49681  Biso   1.000  H
  H247     1.0000 0.25726  0.84450  0.07386  Biso   1.000  H
  H248     1.0000 0.21206  0.90210  0.06220  Biso   1.000  H
  H249     1.0000 0.14310  0.85190  0.04367  Biso   1.000  H
  C213     1.0000 0.07396  0.74261  0.23028  Biso   1.000  C
  C214     1.0000 0.11510  0.76618  0.21257  Biso   1.000  C
  H250     1.0000 0.14405  0.76419  0.27497  Biso   1.000  H
  H251     1.0000 0.03086  0.70220  0.18672  Biso   1.000  H
  C215     1.0000 0.08080  0.77311  0.15369  Biso   1.000  C
  H252     1.0000 0.07706  0.70431  0.22398  Biso   1.000  H
  H253     1.0000 0.12535  0.75369  0.28500  Biso   1.000  H
  O57      1.0000 0.97061  0.76035  0.22171  Biso   1.000  O
  N64      1.0000 0.09970  0.82422  0.18369  Biso   1.000  N
  H254     1.0000 0.15952  0.74880  0.19220  Biso   1.000  H
  C216     1.0000 0.02256  0.74049  0.17859  Biso   1.000  C
  N65      1.0000 0.09329  0.82982  0.18899  Biso   1.000  N
  H255     1.0000 0.13731  0.76172  0.14360  Biso   1.000  H
  H256     1.0000 0.02098  0.76920  0.10118  Biso   1.000  H
  C217     1.0000 0.94780  0.72691  0.27579  Biso   1.000  C
  C218     1.0000 0.18835  0.84791  0.23539  Biso   1.000  C
  H257     1.0000 0.04292  0.84990  0.18042  Biso   1.000  H
  H258     1.0000 0.98806  0.74782  0.11750  Biso   1.000  H
  H259     1.0000 0.07999  0.82899  0.15501  Biso   1.000  H
  C219     1.0000 0.02105  0.72808  0.36367  Biso   1.000  C
  H260     1.0000 0.94146  0.69061  0.25430  Biso   1.000  H
  H261     1.0000 0.88448  0.73752  0.27441  Biso   1.000  H
  C220     1.0000 0.19810  0.90661  0.22757  Biso   1.000  C
  H262     1.0000 0.23695  0.83099  0.21799  Biso   1.000  H
  H263     1.0000 0.20395  0.83800  0.28998  Biso   1.000  H
  H264     1.0000 0.00305  0.70290  0.39796  Biso   1.000  H
  H265     1.0000 0.08476  0.71751  0.36600  Biso   1.000  H
  O58      1.0000 0.02715  0.77910  0.39689  Biso   1.000  O
  C221     1.0000 0.28598  0.92979  0.27712  Biso   1.000  C
  C222     1.0000 0.12326  0.93789  0.17310  Biso   1.000  C
  C223     1.0000 0.10795  0.78349  0.47619  Biso   1.000  C
  C224     1.0000 0.00693  0.80299  0.46396  Biso   1.000  C
  C225     1.0000 0.29817  0.98351  0.27220  Biso   1.000  C
  H266     1.0000 0.33796  0.90911  0.31450  Biso   1.000  H
  H267     1.0000 0.06248  0.92282  0.13837  Biso   1.000  H
  C226     1.0000 0.13802  0.99119  0.16970  Biso   1.000  C
  H268     1.0000 0.16854  0.78670  0.46831  Biso   1.000  H
  H269     1.0000 0.11272  0.75209  0.51105  Biso   1.000  H
  C227     1.0000 0.09231  0.83252  0.51956  Biso   1.000  C
  C228     1.0000 0.10096  0.83401  0.50601  Biso   1.000  C
  H270     1.0000 0.15447  0.81122  0.50740  Biso   1.000  H
  H271     1.0000 0.02566  0.83310  0.51616  Biso   1.000  H
  H272     1.0000 0.99925  0.77672  0.50236  Biso   1.000  H
  H273     1.0000 0.94965  0.82629  0.44178  Biso   1.000  H
  O59      1.0000 0.39108  0.00450  0.31961  Biso   1.000  O
  C229     1.0000 0.22501  0.01519  0.21862  Biso   1.000  C
  O60      1.0000 0.06395  0.02201  0.10887  Biso   1.000  O
  H274     1.0000 0.13847  0.83299  0.57970  Biso   1.000  H
  N66      1.0000 0.10928  0.88029  0.47348  Biso   1.000  N
  H275     1.0000 0.11216  0.84000  0.56571  Biso   1.000  H
  C230     1.0000 0.40564  0.03160  0.39046  Biso   1.000  C
  H276     1.0000 0.23390  0.05181  0.21547  Biso   1.000  H
  C231     1.0000 0.00692  0.05008  0.13490  Biso   1.000  C
  H277     1.0000 0.07095  0.87798  0.41196  Biso   1.000  H
  C232     1.0000 0.07298  0.92572  0.49939  Biso   1.000  C
  N67      1.0000 0.49348  0.05318  0.42507  Biso   1.000  N
  N68      1.0000 0.33617  0.03438  0.41650  Biso   1.000  N
  N69      1.0000 0.94005  0.07844  0.07357  Biso   1.000  N
  N70      1.0000 0.02117  0.04719  0.21528  Biso   1.000  N
  C233     1.0000 0.09464  0.97701  0.46598  Biso   1.000  C
  H278     1.0000 0.11694  0.92200  0.56098  Biso   1.000  H
  H279     1.0000 0.99795  0.92000  0.47998  Biso   1.000  H
  C234     1.0000 0.50535  0.08200  0.49277  Biso   1.000  C
  C235     1.0000 0.36097  0.06418  0.48578  Biso   1.000  C
  C236     1.0000 0.88387  0.10542  0.10099  Biso   1.000  C
  C237     1.0000 0.95956  0.07769  0.23148  Biso   1.000  C
  C238     1.0000 0.18586  0.99988  0.50519  Biso   1.000  C
  C239     1.0000 0.02419  0.00290  0.39979  Biso   1.000  C
  O61      1.0000 0.58787  0.10816  0.53318  Biso   1.000  O
  N71      1.0000 0.44248  0.08967  0.52669  Biso   1.000  N
  O62      1.0000 0.29507  0.07045  0.51818  Biso   1.000  O
  O63      1.0000 0.81166  0.13365  0.04608  Biso   1.000  O
  N72      1.0000 0.88962  0.10706  0.17871  Biso   1.000  N
  O64      1.0000 0.96784  0.07851  0.31147  Biso   1.000  O
  H280     1.0000 0.23523  0.98320  0.55209  Biso   1.000  H
  C240     1.0000 0.20406  0.04660  0.47556  Biso   1.000  C
  H281     1.0000 0.96138  0.98802  0.37237  Biso   1.000  H
  C241     1.0000 0.04414  0.05051  0.37300  Biso   1.000  C
  C242     1.0000 0.66162  0.10479  0.50355  Biso   1.000  C
  C243     1.0000 0.79872  0.13381  0.95966  Biso   1.000  C
  C244     1.0000 0.13385  0.07311  0.41000  Biso   1.000  C
  H282     1.0000 0.71824  0.12500  0.54087  Biso   1.000  H
  H283     1.0000 0.63764  0.11900  0.44631  Biso   1.000  H
  H284     1.0000 0.68026  0.06810  0.50317  Biso   1.000  H
  H285     1.0000 0.74266  0.15550  0.92612  Biso   1.000  H
  H286     1.0000 0.78786  0.09790  0.93778  Biso   1.000  H
  H287     1.0000 0.85688  0.14810  0.95631  Biso   1.000  H
  H288     1.0000 0.14705  0.10581  0.39097  Biso   1.000  H
  Ne1      1.0000 0.43825  0.21310  0.10666  Biso   1.000  Ne
  He1      1.0000 0.41645  0.15740  0.12050  Biso   1.000  He
  He2      1.0000 0.41297  0.28555  0.07892  Biso   1.000  He
  He3      1.0000 0.40918  0.16133  0.07078  Biso   1.000  He
  Ar1      1.0000 0.41250  0.19166  0.08948  Biso   1.000  Ar
  Ne2      1.0000 0.43823  0.28689  0.60665  Biso   1.000  Ne
  He4      1.0000 0.42276  0.38319  0.87236  Biso   1.000  He
  He5      1.0000 0.41294  0.21378  0.57890  Biso   1.000  He
  He6      1.0000 0.40911  0.33869  0.57052  Biso   1.000  He
  Ar2      1.0000 0.41263  0.31426  0.59343  Biso   1.000  Ar
  Ne3      1.0000 0.56168  0.71311  0.39332  Biso   1.000  Ne
  He7      1.0000 0.59278  0.66118  0.43884  Biso   1.000  He
  He8      1.0000 0.58694  0.78646  0.42108  Biso   1.000  He
  He9      1.0000 0.58718  0.66053  0.39577  Biso   1.000  He
  Ar3      1.0000 0.58728  0.68574  0.40655  Biso   1.000  Ar
  Ne4      1.0000 0.86017  0.45615  0.18397  Biso   1.000  Ne
  He10     1.0000 0.89590  0.43482  0.17467  Biso   1.000  He
  He11     1.0000 0.83634  0.55050  0.19897  Biso   1.000  He
  He12     1.0000 0.81557  0.43103  0.12459  Biso   1.000  He
  Ar4      1.0000 0.86613  0.46269  0.17344  Biso   1.000  Ar
  Ne5      1.0000 0.86014  0.04385  0.68396  Biso   1.000  Ne
  He13     1.0000 0.88867  0.06024  0.67307  Biso   1.000  He
  He14     1.0000 0.83802  0.95599  0.69642  Biso   1.000  He
  He15     1.0000 0.82837  0.04996  0.64263  Biso   1.000  He
  Ar5      1.0000 0.86609  0.03732  0.67344  Biso   1.000  Ar
  Ne6      1.0000 0.13974  0.54385  0.81600  Biso   1.000  Ne
  He16     1.0000 0.14162  0.57662  0.85401  Biso   1.000  He
  He17     1.0000 0.10646  0.56345  0.82580  Biso   1.000  He
  He18     1.0000 0.16253  0.45349  0.80257  Biso   1.000  He
  Ar6      1.0000 0.13559  0.53948  0.82800  Biso   1.000  Ar
  Ne7      1.0000 0.56166  0.78690  0.89331  Biso   1.000  Ne
  He19     1.0000 0.59245  0.83878  0.93799  Biso   1.000  He
  He20     1.0000 0.58692  0.71407  0.92102  Biso   1.000  He
  He21     1.0000 0.58800  0.83917  0.90382  Biso   1.000  He
  Ar7      1.0000 0.58739  0.80829  0.91038  Biso   1.000  Ar
  Ne8      1.0000 0.13977  0.95615  0.31601  Biso   1.000  Ne
  He22     1.0000 0.26064  0.91485  0.43437  Biso   1.000  He
  He23     1.0000 0.13231  0.92469  0.34773  Biso   1.000  He
  He24     1.0000 0.16742  0.06590  0.29488  Biso   1.000  He
  Ar8      1.0000 0.13381  0.96269  0.32654  Biso   1.000  Ar
