data_image0
_cell_length_a       18.036
_cell_length_b       14.73
_cell_length_c       39.096
_cell_angle_alpha    90
_cell_angle_beta     98.71
_cell_angle_gamma    90

_symmetry_space_group_name_H-M    "P 1"
_symmetry_int_tables_number       1

loop_
  _symmetry_equiv_pos_as_xyz
  'x, y, z'

loop_
  _atom_site_label
  _atom_site_occupancy
  _atom_site_fract_x
  _atom_site_fract_y
  _atom_site_fract_z
  _atom_site_thermal_displace_type
  _atom_site_B_iso_or_equiv
  _atom_site_type_symbol
  N1       1.0000 0.50121  0.28968  0.47815  Biso   1.000  N
  C1       1.0000 0.51502  0.23788  0.50772  Biso   1.000  C
  C2       1.0000 0.56250  0.31813  0.46756  Biso   1.000  C
  N2       1.0000 0.45574  0.21168  0.52239  Biso   1.000  N
  N3       1.0000 0.58397  0.21229  0.52302  Biso   1.000  N
  N4       1.0000 0.63427  0.30102  0.48084  Biso   1.000  N
  O1       1.0000 0.55012  0.37373  0.43915  Biso   1.000  O
  C3       1.0000 0.37821  0.23299  0.50578  Biso   1.000  C
  C4       1.0000 0.46740  0.17237  0.55774  Biso   1.000  C
  C5       1.0000 0.63872  0.24589  0.50806  Biso   1.000  C
  C6       1.0000 0.61327  0.41853  0.42968  Biso   1.000  C
  C7       1.0000 0.35150  0.16972  0.47540  Biso   1.000  C
  H1       1.0000 0.34379  0.22763  0.52320  Biso   1.000  H
  H2       1.0000 0.37618  0.29661  0.49740  Biso   1.000  H
  H3       1.0000 0.42312  0.13551  0.56100  Biso   1.000  H
  H4       1.0000 0.51158  0.13191  0.56041  Biso   1.000  H
  C8       1.0000 0.47922  0.24582  0.58530  Biso   1.000  C
  O2       1.0000 0.70857  0.21833  0.52307  Biso   1.000  O
  C9       1.0000 0.63809  0.49769  0.44702  Biso   1.000  C
  C10      1.0000 0.64511  0.38350  0.40253  Biso   1.000  C
  C11      1.0000 0.31408  0.20360  0.44453  Biso   1.000  C
  C12      1.0000 0.36262  0.07590  0.47789  Biso   1.000  C
  C13      1.0000 0.42091  0.27841  0.60005  Biso   1.000  C
  C14      1.0000 0.55172  0.28038  0.59570  Biso   1.000  C
  C15      1.0000 0.76942  0.25703  0.50930  Biso   1.000  C
  H5       1.0000 0.61468  0.52098  0.46539  Biso   1.000  H
  C16      1.0000 0.69921  0.54128  0.43612  Biso   1.000  C
  C17      1.0000 0.70520  0.43177  0.39304  Biso   1.000  C
  H6       1.0000 0.62698  0.32940  0.39089  Biso   1.000  H
  C18      1.0000 0.28860  0.14813  0.41690  Biso   1.000  C
  H7       1.0000 0.30581  0.26707  0.44231  Biso   1.000  H
  C19      1.0000 0.33748  0.01772  0.45061  Biso   1.000  C
  H8       1.0000 0.38810  0.05119  0.49890  Biso   1.000  H
  H9       1.0000 0.37190  0.25458  0.59330  Biso   1.000  H
  C20      1.0000 0.43300  0.34711  0.62523  Biso   1.000  C
  C21      1.0000 0.56599  0.34650  0.61974  Biso   1.000  C
  H10      1.0000 0.59212  0.25642  0.58551  Biso   1.000  H
  C22      1.0000 0.80151  0.33517  0.52498  Biso   1.000  C
  C23      1.0000 0.79509  0.21460  0.48159  Biso   1.000  C
  O3       1.0000 0.72632  0.62247  0.45315  Biso   1.000  O
  C24      1.0000 0.73281  0.50957  0.40908  Biso   1.000  C
  O4       1.0000 0.73849  0.39728  0.36473  Biso   1.000  O
  C25      1.0000 0.30059  0.05343  0.41964  Biso   1.000  C
  H11      1.0000 0.26311  0.17339  0.39599  Biso   1.000  H
  H12      1.0000 0.34551  0.95411  0.45310  Biso   1.000  H
  H13      1.0000 0.39299  0.36972  0.63610  Biso   1.000  H
  C26      1.0000 0.50590  0.38113  0.63379  Biso   1.000  C
  H14      1.0000 0.61551  0.36850  0.62670  Biso   1.000  H
  H15      1.0000 0.78349  0.36219  0.54421  Biso   1.000  H
  C27      1.0000 0.86182  0.37183  0.51091  Biso   1.000  C
  C28      1.0000 0.85598  0.25377  0.46914  Biso   1.000  C
  H16      1.0000 0.77209  0.16090  0.47150  Biso   1.000  H
  C29      1.0000 0.78182  0.61399  0.48053  Biso   1.000  C
  H17      1.0000 0.77372  0.54087  0.40181  Biso   1.000  H
  C30      1.0000 0.78927  0.32967  0.37249  Biso   1.000  C
  O5       1.0000 0.27428  0.00407  0.39084  Biso   1.000  O
  O6       1.0000 0.52280  0.44610  0.65910  Biso   1.000  O
  O7       1.0000 0.89578  0.45119  0.52669  Biso   1.000  O
  C31      1.0000 0.89042  0.33218  0.48368  Biso   1.000  C
  O8       1.0000 0.88455  0.21012  0.44182  Biso   1.000  O
  N5       1.0000 0.80283  0.69151  0.49553  Biso   1.000  N
  N6       1.0000 0.80776  0.53103  0.48860  Biso   1.000  N
  N7       1.0000 0.81128  0.29321  0.34429  Biso   1.000  N
  N8       1.0000 0.81032  0.30781  0.40554  Biso   1.000  N
  C32      1.0000 0.29218  0.90801  0.39164  Biso   1.000  C
  C33      1.0000 0.46202  0.48581  0.67240  Biso   1.000  C
  C34      1.0000 0.46229  0.48201  0.67390  Biso   1.000  C
  C35      1.0000 0.86167  0.53198  0.51603  Biso   1.000  C
  H18      1.0000 0.93240  0.35771  0.47509  Biso   1.000  H
  C36      1.0000 0.85769  0.23849  0.40880  Biso   1.000  C
  C37      1.0000 0.85740  0.68248  0.52395  Biso   1.000  C
  C38      1.0000 0.85878  0.22247  0.35200  Biso   1.000  C
  C39      1.0000 0.26701  0.87420  0.35433  Biso   1.000  C
  H19      1.0000 0.34669  0.89837  0.39860  Biso   1.000  H
  H20      1.0000 0.26492  0.87563  0.40810  Biso   1.000  H
  H21      1.0000 0.42372  0.50692  0.65320  Biso   1.000  H
  H22      1.0000 0.43849  0.44080  0.68619  Biso   1.000  H
  C40      1.0000 0.49292  0.56748  0.69561  Biso   1.000  C
  H23      1.0000 0.42538  0.51337  0.65641  Biso   1.000  H
  H24      1.0000 0.43659  0.43530  0.68580  Biso   1.000  H
  C41      1.0000 0.50602  0.55003  0.69970  Biso   1.000  C
  N9       1.0000 0.88910  0.60210  0.53505  Biso   1.000  N
  N10      1.0000 0.88332  0.19131  0.38486  Biso   1.000  N
  N11      1.0000 0.88156  0.75879  0.54115  Biso   1.000  N
  N12      1.0000 0.88161  0.17848  0.32493  Biso   1.000  N
  C42      1.0000 0.31222  0.90679  0.32770  Biso   1.000  C
  H25      1.0000 0.21430  0.89287  0.34711  Biso   1.000  H
  H26      1.0000 0.26818  0.80699  0.35451  Biso   1.000  H
  H27      1.0000 0.52739  0.54549  0.71600  Biso   1.000  H
  H28      1.0000 0.45097  0.60020  0.70379  Biso   1.000  H
  C43      1.0000 0.53497  0.63218  0.67390  Biso   1.000  C
  H29      1.0000 0.55962  0.53360  0.70389  Biso   1.000  H
  H30      1.0000 0.48639  0.54752  0.72201  Biso   1.000  H
  C44      1.0000 0.49721  0.64657  0.68521  Biso   1.000  C
  C45      1.0000 0.94042  0.75682  0.57166  Biso   1.000  C
  C46      1.0000 0.85970  0.84902  0.52641  Biso   1.000  C
  C47      1.0000 0.91579  0.08832  0.32822  Biso   1.000  C
  C48      1.0000 0.85531  0.21168  0.28956  Biso   1.000  C
  C49      1.0000 0.38508  0.85567  0.32959  Biso   1.000  C
  H31      1.0000 0.28273  0.89891  0.30441  Biso   1.000  H
  H32      1.0000 0.32290  0.97230  0.33119  Biso   1.000  H
  H33      1.0000 0.49949  0.65771  0.65449  Biso   1.000  H
  H34      1.0000 0.57428  0.59817  0.66409  Biso   1.000  H
  C50      1.0000 0.57078  0.70903  0.69719  Biso   1.000  C
  H35      1.0000 0.55162  0.61527  0.64321  Biso   1.000  H
  H36      1.0000 0.44541  0.65513  0.67300  Biso   1.000  H
  H37      1.0000 0.50559  0.69070  0.70449  Biso   1.000  H
  C51      1.0000 0.55290  0.66599  0.66011  Biso   1.000  C
  C52      1.0000 0.90871  0.75777  0.60561  Biso   1.000  C
  H38      1.0000 0.97110  0.70149  0.57071  Biso   1.000  H
  H39      1.0000 0.97361  0.81012  0.57091  Biso   1.000  H
  H40      1.0000 0.80628  0.84739  0.51569  Biso   1.000  H
  H41      1.0000 0.86490  0.89450  0.54530  Biso   1.000  H
  C53      1.0000 0.90758  0.87828  0.49913  Biso   1.000  C
  C54      1.0000 0.85910  0.01582  0.31616  Biso   1.000  C
  H42      1.0000 0.95718  0.08547  0.31430  Biso   1.000  H
  H43      1.0000 0.93708  0.07719  0.35270  Biso   1.000  H
  C55      1.0000 0.89198  0.29803  0.28016  Biso   1.000  C
  H44      1.0000 0.86431  0.16388  0.27289  Biso   1.000  H
  H45      1.0000 0.80052  0.22179  0.28700  Biso   1.000  H
  C56      1.0000 0.43781  0.88282  0.30410  Biso   1.000  C
  H46      1.0000 0.41282  0.86253  0.35329  Biso   1.000  H
  H47      1.0000 0.37312  0.79043  0.32610  Biso   1.000  H
  H48      1.0000 0.53129  0.74467  0.70609  Biso   1.000  H
  H49      1.0000 0.60452  0.68330  0.71719  Biso   1.000  H
  C57      1.0000 0.61632  0.77169  0.67579  Biso   1.000  C
  C58      1.0000 0.63323  0.67542  0.68050  Biso   1.000  C
  H50      1.0000 0.53859  0.72227  0.64709  Biso   1.000  H
  C59      1.0000 0.90909  0.83598  0.62518  Biso   1.000  C
  C60      1.0000 0.87790  0.67963  0.61783  Biso   1.000  C
  C61      1.0000 0.89699  0.96273  0.48309  Biso   1.000  C
  C62      1.0000 0.96368  0.82227  0.48948  Biso   1.000  C
  C63      1.0000 0.85861  0.96959  0.28459  Biso   1.000  C
  C64      1.0000 0.80272  0.99559  0.33507  Biso   1.000  C
  C65      1.0000 0.85951  0.34487  0.25033  Biso   1.000  C
  C66      1.0000 0.95661  0.33388  0.29869  Biso   1.000  C
  C67      1.0000 0.51028  0.82980  0.31003  Biso   1.000  C
  H51      1.0000 0.44912  0.94847  0.30661  Biso   1.000  H
  H52      1.0000 0.41239  0.87223  0.28019  Biso   1.000  H
  H53      1.0000 0.58218  0.80143  0.65690  Biso   1.000  H
  H54      1.0000 0.65367  0.73557  0.66559  Biso   1.000  H
  C68      1.0000 0.65603  0.84379  0.70081  Biso   1.000  C
  H55      1.0000 0.61382  0.81432  0.67289  Biso   1.000  H
  H56      1.0000 0.66831  0.63612  0.66999  Biso   1.000  H
  H57      1.0000 0.63368  0.65608  0.70469  Biso   1.000  H
  C69      1.0000 0.65809  0.77502  0.67939  Biso   1.000  C
  C70      1.0000 0.87620  0.83449  0.65641  Biso   1.000  C
  H58      1.0000 0.93091  0.89009  0.61801  Biso   1.000  H
  H59      1.0000 0.87790  0.62519  0.60481  Biso   1.000  H
  C71      1.0000 0.84739  0.67807  0.64818  Biso   1.000  C
  C72      1.0000 0.94003  0.99151  0.45897  Biso   1.000  C
  H60      1.0000 0.85889  0.00170  0.48899  Biso   1.000  H
  H61      1.0000 0.97122  0.76368  0.49960  Biso   1.000  H
  C73      1.0000 0.00852  0.85017  0.46562  Biso   1.000  C
  C74      1.0000 0.80410  0.90740  0.27240  Biso   1.000  C
  H62      1.0000 0.89719  0.98187  0.27121  Biso   1.000  H
  C75      1.0000 0.74532  0.93170  0.32289  Biso   1.000  C
  H63      1.0000 0.80200  0.02492  0.35671  Biso   1.000  H
  C76      1.0000 0.88969  0.42600  0.23993  Biso   1.000  C
  H64      1.0000 0.81570  0.32077  0.23680  Biso   1.000  H
  H65      1.0000 0.98058  0.30299  0.31869  Biso   1.000  H
  C77      1.0000 0.98719  0.41487  0.28865  Biso   1.000  C
  C78      1.0000 0.57130  0.86178  0.29070  Biso   1.000  C
  H66      1.0000 0.49890  0.76572  0.30371  Biso   1.000  H
  H67      1.0000 0.52988  0.83123  0.33510  Biso   1.000  H
  H68      1.0000 0.66259  0.82010  0.72470  Biso   1.000  H
  H69      1.0000 0.62448  0.89898  0.69980  Biso   1.000  H
  C79      1.0000 0.73191  0.86789  0.69129  Biso   1.000  C
  C80      1.0000 0.69961  0.80299  0.71551  Biso   1.000  C
  H70      1.0000 0.67839  0.86042  0.72299  Biso   1.000  H
  H71      1.0000 0.69188  0.78242  0.66189  Biso   1.000  H
  C81      1.0000 0.84718  0.75363  0.66730  Biso   1.000  C
  H72      1.0000 0.87411  0.88839  0.66961  Biso   1.000  H
  H73      1.0000 0.82651  0.62349  0.65550  Biso   1.000  H
  C82      1.0000 0.99780  0.93530  0.45054  Biso   1.000  C
  H74      1.0000 0.93080  0.04888  0.44810  Biso   1.000  H
  H75      1.0000 0.04652  0.81113  0.45959  Biso   1.000  H
  C83      1.0000 0.74680  0.89002  0.29090  Biso   1.000  C
  H76      1.0000 0.80612  0.87651  0.25121  Biso   1.000  H
  H77      1.0000 0.70688  0.91779  0.33619  Biso   1.000  H
  C84      1.0000 0.95300  0.46137  0.25983  Biso   1.000  C
  H78      1.0000 0.86702  0.45628  0.21951  Biso   1.000  H
  H79      1.0000 0.03178  0.43822  0.30169  Biso   1.000  H
  C85      1.0000 0.63718  0.79810  0.29579  Biso   1.000  C
  H80      1.0000 0.55140  0.86599  0.26570  Biso   1.000  H
  H81      1.0000 0.58791  0.92308  0.29890  Biso   1.000  H
  H82      1.0000 0.73330  0.84969  0.66699  Biso   1.000  H
  H83      1.0000 0.73872  0.93462  0.69279  Biso   1.000  H
  C86      1.0000 0.79673  0.82220  0.71461  Biso   1.000  C
  C87      1.0000 0.78332  0.81602  0.71261  Biso   1.000  C
  H84      1.0000 0.78797  0.86999  0.69789  Biso   1.000  H
  H85      1.0000 0.69381  0.75553  0.73280  Biso   1.000  H
  O9       1.0000 0.81972  0.74189  0.69869  Biso   1.000  O
  O10      1.0000 0.04149  0.97169  0.42774  Biso   1.000  O
  O11      1.0000 0.69580  0.82458  0.27675  Biso   1.000  O
  O12      1.0000 0.98370  0.53992  0.24932  Biso   1.000  O
  H86      1.0000 0.61987  0.73639  0.28850  Biso   1.000  H
  H87      1.0000 0.65777  0.79559  0.32069  Biso   1.000  H
  H88      1.0000 0.78062  0.80638  0.73699  Biso   1.000  H
  H89      1.0000 0.83952  0.86483  0.71929  Biso   1.000  H
  H90      1.0000 0.81059  0.82953  0.73590  Biso   1.000  H
  C88      1.0000 0.10373  0.92023  0.42021  Biso   1.000  C
  C89      1.0000 0.09763  0.91697  0.41581  Biso   1.000  C
  C90      1.0000 0.95267  0.62498  0.25090  Biso   1.000  C
  C91      1.0000 0.03261  0.59409  0.27230  Biso   1.000  C
  H91      1.0000 0.14230  0.96158  0.41340  Biso   1.000  H
  H92      1.0000 0.12627  0.88663  0.44109  Biso   1.000  H
  C92      1.0000 0.07901  0.85248  0.39050  Biso   1.000  C
  H93      1.0000 0.12859  0.95642  0.40290  Biso   1.000  H
  H94      1.0000 0.13072  0.89172  0.43589  Biso   1.000  H
  C93      1.0000 0.06401  0.83897  0.39211  Biso   1.000  C
  C94      1.0000 0.96919  0.65200  0.28989  Biso   1.000  C
  H95      1.0000 0.97609  0.66870  0.23659  Biso   1.000  H
  H96      1.0000 0.89801  0.62329  0.24280  Biso   1.000  H
  C95      1.0000 0.98901  0.68371  0.27631  Biso   1.000  C
  H97      1.0000 0.95218  0.69470  0.25530  Biso   1.000  H
  H98      1.0000 0.04538  0.56341  0.29499  Biso   1.000  H
  H99      1.0000 0.07939  0.60631  0.26280  Biso   1.000  H
  H100     1.0000 0.04191  0.80957  0.39759  Biso   1.000  H
  H101     1.0000 0.12298  0.81697  0.38579  Biso   1.000  H
  C96      1.0000 0.04459  0.90217  0.35779  Biso   1.000  C
  H102     1.0000 0.04251  0.79301  0.40600  Biso   1.000  H
  H103     1.0000 0.10437  0.81018  0.38129  Biso   1.000  H
  C97      1.0000 0.00321  0.87583  0.36380  Biso   1.000  C
  C98      1.0000 0.92719  0.73897  0.29489  Biso   1.000  C
  H104     1.0000 0.95263  0.60312  0.30431  Biso   1.000  H
  H105     1.0000 0.02372  0.66137  0.29691  Biso   1.000  H
  C99      1.0000 0.94961  0.67379  0.30829  Biso   1.000  C
  H106     1.0000 0.02471  0.73551  0.27931  Biso   1.000  H
  C100     1.0000 0.02788  0.83958  0.32630  Biso   1.000  C
  C101     1.0000 0.00410  0.82403  0.32969  Biso   1.000  C
  H107     1.0000 0.99732  0.93150  0.36191  Biso   1.000  H
  H108     1.0000 0.07940  0.95058  0.35270  Biso   1.000  H
  H109     1.0000 0.01167  0.94121  0.36020  Biso   1.000  H
  H110     1.0000 0.95350  0.86891  0.37130  Biso   1.000  H
  C102     1.0000 0.96021  0.77848  0.33130  Biso   1.000  C
  H111     1.0000 0.93369  0.78310  0.27649  Biso   1.000  H
  H112     1.0000 0.87300  0.72627  0.29380  Biso   1.000  H
  C103     1.0000 0.93140  0.76768  0.32190  Biso   1.000  C
  H113     1.0000 0.89497  0.79932  0.30449  Biso   1.000  H
  H114     1.0000 0.98218  0.64012  0.32659  Biso   1.000  H
  H115     1.0000 0.90258  0.63890  0.30200  Biso   1.000  H
  H116     1.0000 0.01581  0.87597  0.30490  Biso   1.000  H
  H117     1.0000 0.07230  0.80149  0.32431  Biso   1.000  H
  H118     1.0000 0.00709  0.86748  0.31060  Biso   1.000  H
  H119     1.0000 0.04842  0.78357  0.33179  Biso   1.000  H
  H120     1.0000 0.97669  0.72872  0.34770  Biso   1.000  H
  H121     1.0000 0.92158  0.81473  0.34079  Biso   1.000  H
  H122     1.0000 0.90871  0.76069  0.34330  Biso   1.000  H
  N13      1.0000 0.49881  0.71032  0.52185  Biso   1.000  N
  C104     1.0000 0.48500  0.76212  0.49227  Biso   1.000  C
  C105     1.0000 0.43747  0.68187  0.53243  Biso   1.000  C
  N14      1.0000 0.54422  0.78832  0.47760  Biso   1.000  N
  N15      1.0000 0.41605  0.78771  0.47698  Biso   1.000  N
  O13      1.0000 0.44991  0.62627  0.56087  Biso   1.000  O
  N16      1.0000 0.36575  0.69898  0.51916  Biso   1.000  N
  C106     1.0000 0.53263  0.82763  0.44228  Biso   1.000  C
  C107     1.0000 0.62181  0.76701  0.49421  Biso   1.000  C
  C108     1.0000 0.36130  0.75411  0.49194  Biso   1.000  C
  C109     1.0000 0.38670  0.58147  0.57032  Biso   1.000  C
  C110     1.0000 0.52080  0.75418  0.41470  Biso   1.000  C
  H123     1.0000 0.57690  0.86449  0.43899  Biso   1.000  H
  H124     1.0000 0.48839  0.86809  0.43959  Biso   1.000  H
  C111     1.0000 0.64853  0.83028  0.52459  Biso   1.000  C
  H125     1.0000 0.65618  0.77237  0.47680  Biso   1.000  H
  H126     1.0000 0.62379  0.70339  0.50260  Biso   1.000  H
  O14      1.0000 0.29140  0.78167  0.47693  Biso   1.000  O
  C112     1.0000 0.36188  0.50231  0.55298  Biso   1.000  C
  C113     1.0000 0.35491  0.61650  0.59746  Biso   1.000  C
  C114     1.0000 0.57911  0.72159  0.39995  Biso   1.000  C
  C115     1.0000 0.44831  0.71962  0.40432  Biso   1.000  C
  C116     1.0000 0.68589  0.79640  0.55549  Biso   1.000  C
  C117     1.0000 0.63740  0.92410  0.52211  Biso   1.000  C
  C118     1.0000 0.23060  0.74297  0.49070  Biso   1.000  C
  C119     1.0000 0.30081  0.45872  0.56387  Biso   1.000  C
  H127     1.0000 0.38529  0.47902  0.53461  Biso   1.000  H
  C120     1.0000 0.29482  0.56823  0.60696  Biso   1.000  C
  H128     1.0000 0.37299  0.67060  0.60911  Biso   1.000  H
  C121     1.0000 0.56702  0.65289  0.37477  Biso   1.000  C
  H129     1.0000 0.62812  0.74542  0.40670  Biso   1.000  H
  C122     1.0000 0.43399  0.65350  0.38028  Biso   1.000  C
  H130     1.0000 0.40790  0.74358  0.41449  Biso   1.000  H
  C123     1.0000 0.71142  0.85187  0.58310  Biso   1.000  C
  H131     1.0000 0.69421  0.73293  0.55769  Biso   1.000  H
  H132     1.0000 0.61187  0.94881  0.50110  Biso   1.000  H
  C124     1.0000 0.66249  0.98228  0.54938  Biso   1.000  C
  C125     1.0000 0.19851  0.66483  0.47501  Biso   1.000  C
  C126     1.0000 0.20488  0.78540  0.51841  Biso   1.000  C
  O15      1.0000 0.27371  0.37753  0.54685  Biso   1.000  O
  C127     1.0000 0.26722  0.49043  0.59094  Biso   1.000  C
  O16      1.0000 0.26154  0.60272  0.63527  Biso   1.000  O
  C128     1.0000 0.49407  0.61887  0.36620  Biso   1.000  C
  H133     1.0000 0.60698  0.63028  0.36390  Biso   1.000  H
  H134     1.0000 0.38451  0.63150  0.37329  Biso   1.000  H
  C129     1.0000 0.69938  0.94657  0.58036  Biso   1.000  C
  H135     1.0000 0.73691  0.82661  0.60401  Biso   1.000  H
  H136     1.0000 0.65452  0.04589  0.54690  Biso   1.000  H
  C130     1.0000 0.13820  0.62817  0.48909  Biso   1.000  C
  H137     1.0000 0.21648  0.63781  0.45579  Biso   1.000  H
  C131     1.0000 0.14399  0.74623  0.53088  Biso   1.000  C
  H138     1.0000 0.22788  0.83910  0.52850  Biso   1.000  H
  C132     1.0000 0.21815  0.38601  0.51947  Biso   1.000  C
  H139     1.0000 0.22631  0.45913  0.59821  Biso   1.000  H
  C133     1.0000 0.21070  0.67033  0.62750  Biso   1.000  C
  O17      1.0000 0.47718  0.55390  0.34092  Biso   1.000  O
  O18      1.0000 0.72569  0.99593  0.60916  Biso   1.000  O
  O19      1.0000 0.10425  0.54881  0.47333  Biso   1.000  O
  C134     1.0000 0.10960  0.66782  0.51631  Biso   1.000  C
  O20      1.0000 0.11547  0.78988  0.55818  Biso   1.000  O
  N17      1.0000 0.19720  0.30849  0.50446  Biso   1.000  N
  N18      1.0000 0.19227  0.46897  0.51142  Biso   1.000  N
  N19      1.0000 0.18874  0.70679  0.65571  Biso   1.000  N
  N20      1.0000 0.18970  0.69219  0.59446  Biso   1.000  N
  C135     1.0000 0.53801  0.51419  0.32760  Biso   1.000  C
  C136     1.0000 0.53768  0.51799  0.32610  Biso   1.000  C
  C137     1.0000 0.70780  0.09199  0.60838  Biso   1.000  C
  C138     1.0000 0.13830  0.46802  0.48397  Biso   1.000  C
  H140     1.0000 0.06762  0.64229  0.52490  Biso   1.000  H
  C139     1.0000 0.14228  0.76151  0.59120  Biso   1.000  C
  C140     1.0000 0.14257  0.31752  0.47605  Biso   1.000  C
  C141     1.0000 0.14119  0.77753  0.64800  Biso   1.000  C
  C142     1.0000 0.50711  0.43252  0.30441  Biso   1.000  C
  C143     1.0000 0.49401  0.45003  0.30030  Biso   1.000  C
  H141     1.0000 0.57630  0.49308  0.34680  Biso   1.000  H
  H142     1.0000 0.56148  0.55920  0.31380  Biso   1.000  H
  H143     1.0000 0.57458  0.48663  0.34359  Biso   1.000  H
  H144     1.0000 0.56338  0.56470  0.31419  Biso   1.000  H
  C144     1.0000 0.73301  0.12580  0.64567  Biso   1.000  C
  H145     1.0000 0.65328  0.10163  0.60140  Biso   1.000  H
  H146     1.0000 0.73510  0.12437  0.59190  Biso   1.000  H
  N21      1.0000 0.11093  0.39790  0.46495  Biso   1.000  N
  N22      1.0000 0.11671  0.80869  0.61516  Biso   1.000  N
  N23      1.0000 0.11846  0.24121  0.45884  Biso   1.000  N
  N24      1.0000 0.11841  0.82152  0.67507  Biso   1.000  N
  C145     1.0000 0.46499  0.36782  0.32610  Biso   1.000  C
  C146     1.0000 0.50281  0.35343  0.31479  Biso   1.000  C
  H147     1.0000 0.47258  0.45451  0.28399  Biso   1.000  H
  H148     1.0000 0.54900  0.39980  0.29621  Biso   1.000  H
  H149     1.0000 0.44040  0.46640  0.29610  Biso   1.000  H
  H150     1.0000 0.51357  0.45248  0.27799  Biso   1.000  H
  C147     1.0000 0.68781  0.09321  0.67230  Biso   1.000  C
  H151     1.0000 0.78567  0.10713  0.65289  Biso   1.000  H
  H152     1.0000 0.73179  0.19301  0.64549  Biso   1.000  H
  C148     1.0000 0.05960  0.24318  0.42833  Biso   1.000  C
  C149     1.0000 0.14032  0.15098  0.47359  Biso   1.000  C
  C150     1.0000 0.14472  0.78832  0.71044  Biso   1.000  C
  C151     1.0000 0.08418  0.91168  0.67178  Biso   1.000  C
  C152     1.0000 0.42918  0.29097  0.30281  Biso   1.000  C
  H153     1.0000 0.50053  0.34229  0.34550  Biso   1.000  H
  H154     1.0000 0.42569  0.40183  0.33590  Biso   1.000  H
  H155     1.0000 0.44841  0.38473  0.35681  Biso   1.000  H
  C153     1.0000 0.44712  0.33401  0.33989  Biso   1.000  C
  H156     1.0000 0.49443  0.30930  0.29551  Biso   1.000  H
  H157     1.0000 0.55461  0.34487  0.32700  Biso   1.000  H
  C154     1.0000 0.61489  0.14433  0.67041  Biso   1.000  C
  H158     1.0000 0.71731  0.10109  0.69561  Biso   1.000  H
  H159     1.0000 0.67712  0.02770  0.66880  Biso   1.000  H
  C155     1.0000 0.09131  0.24223  0.39438  Biso   1.000  C
  H160     1.0000 0.02892  0.29851  0.42929  Biso   1.000  H
  H161     1.0000 0.02642  0.18988  0.42911  Biso   1.000  H
  H162     1.0000 0.19368  0.15261  0.48430  Biso   1.000  H
  H163     1.0000 0.13512  0.10550  0.45470  Biso   1.000  H
  C156     1.0000 0.09245  0.12172  0.50087  Biso   1.000  C
  C157     1.0000 0.10799  0.70197  0.71983  Biso   1.000  C
  H164     1.0000 0.13572  0.83612  0.72710  Biso   1.000  H
  H165     1.0000 0.19951  0.77821  0.71300  Biso   1.000  H
  H166     1.0000 0.04278  0.91453  0.68570  Biso   1.000  H
  H167     1.0000 0.06289  0.92281  0.64730  Biso   1.000  H
  C158     1.0000 0.14092  0.98418  0.68384  Biso   1.000  C
  C159     1.0000 0.38370  0.22831  0.32421  Biso   1.000  C
  C160     1.0000 0.36680  0.32458  0.31950  Biso   1.000  C
  H168     1.0000 0.46868  0.25533  0.29391  Biso   1.000  H
  H169     1.0000 0.39550  0.31670  0.28280  Biso   1.000  H
  H170     1.0000 0.46137  0.27773  0.35290  Biso   1.000  H
  C161     1.0000 0.56221  0.11718  0.69590  Biso   1.000  C
  H171     1.0000 0.58720  0.13747  0.64671  Biso   1.000  H
  H172     1.0000 0.62690  0.20957  0.67390  Biso   1.000  H
  C162     1.0000 0.09088  0.16402  0.37482  Biso   1.000  C
  C163     1.0000 0.12212  0.32037  0.38217  Biso   1.000  C
  C164     1.0000 0.10298  0.03727  0.51691  Biso   1.000  C
  C165     1.0000 0.03629  0.17773  0.51052  Biso   1.000  C
  C166     1.0000 0.14052  0.65513  0.74967  Biso   1.000  C
  C167     1.0000 0.04341  0.66612  0.70130  Biso   1.000  C
  C168     1.0000 0.14141  0.03041  0.71541  Biso   1.000  C
  C169     1.0000 0.19731  0.00441  0.66492  Biso   1.000  C
  C170     1.0000 0.34400  0.15621  0.29921  Biso   1.000  C
  H173     1.0000 0.38621  0.18568  0.32710  Biso   1.000  H
  H174     1.0000 0.34630  0.26443  0.33440  Biso   1.000  H
  H175     1.0000 0.41779  0.19857  0.34310  Biso   1.000  H
  C171     1.0000 0.34188  0.22498  0.32061  Biso   1.000  C
  H176     1.0000 0.33171  0.36388  0.33000  Biso   1.000  H
  H177     1.0000 0.36629  0.34392  0.29530  Biso   1.000  H
  C172     1.0000 0.48968  0.17020  0.68997  Biso   1.000  C
  H178     1.0000 0.55092  0.05153  0.69341  Biso   1.000  H
  H179     1.0000 0.58758  0.12777  0.71981  Biso   1.000  H
  C173     1.0000 0.12382  0.16551  0.34359  Biso   1.000  C
  H180     1.0000 0.06911  0.10991  0.38199  Biso   1.000  H
  C174     1.0000 0.15258  0.32193  0.35182  Biso   1.000  C
  H181     1.0000 0.12208  0.37481  0.39521  Biso   1.000  H
  C175     1.0000 0.06000  0.00849  0.54103  Biso   1.000  C
  H182     1.0000 0.14113  0.99830  0.51101  Biso   1.000  H
  H183     1.0000 0.02881  0.23632  0.50040  Biso   1.000  H
  C176     1.0000 0.99150  0.14983  0.53438  Biso   1.000  C
  C177     1.0000 0.11028  0.57400  0.76007  Biso   1.000  C
  H184     1.0000 0.18432  0.67923  0.76320  Biso   1.000  H
  H185     1.0000 0.01938  0.69701  0.68130  Biso   1.000  H
  C178     1.0000 0.01279  0.58513  0.71137  Biso   1.000  C
  H186     1.0000 0.10279  0.01813  0.72881  Biso   1.000  H
  C179     1.0000 0.19592  0.09260  0.72760  Biso   1.000  C
  H187     1.0000 0.19802  0.97508  0.64329  Biso   1.000  H
  C180     1.0000 0.25470  0.06830  0.67711  Biso   1.000  C
  C181     1.0000 0.30042  0.19701  0.28451  Biso   1.000  C
  H188     1.0000 0.33738  0.17990  0.27530  Biso   1.000  H
  C182     1.0000 0.26811  0.13211  0.30871  Biso   1.000  C
  H189     1.0000 0.32158  0.13958  0.27701  Biso   1.000  H
  H190     1.0000 0.37549  0.10102  0.30019  Biso   1.000  H
  H191     1.0000 0.30809  0.21758  0.33810  Biso   1.000  H
  C183     1.0000 0.42872  0.13822  0.70930  Biso   1.000  C
  H192     1.0000 0.50108  0.23428  0.69631  Biso   1.000  H
  H193     1.0000 0.47009  0.16877  0.66490  Biso   1.000  H
  C184     1.0000 0.15279  0.24637  0.33269  Biso   1.000  C
  H194     1.0000 0.12592  0.11161  0.33039  Biso   1.000  H
  H195     1.0000 0.17352  0.37651  0.34449  Biso   1.000  H
  C185     1.0000 0.00222  0.06470  0.54946  Biso   1.000  C
  H196     1.0000 0.06922  0.95112  0.55189  Biso   1.000  H
  H197     1.0000 0.95351  0.18887  0.54040  Biso   1.000  H
  C186     1.0000 0.04702  0.53863  0.74017  Biso   1.000  C
  H198     1.0000 0.13301  0.54372  0.78051  Biso   1.000  H
  H199     1.0000 0.96819  0.56178  0.69830  Biso   1.000  H
  H200     1.0000 0.19390  0.12349  0.74879  Biso   1.000  H
  C187     1.0000 0.25322  0.10998  0.70909  Biso   1.000  C
  H201     1.0000 0.29308  0.08221  0.66381  Biso   1.000  H
  H202     1.0000 0.30622  0.24447  0.26720  Biso   1.000  H
  C188     1.0000 0.21671  0.18398  0.28741  Biso   1.000  C
  H203     1.0000 0.26672  0.15031  0.33300  Biso   1.000  H
  H204     1.0000 0.26130  0.06538  0.30721  Biso   1.000  H
  C189     1.0000 0.20330  0.17780  0.28539  Biso   1.000  C
  H205     1.0000 0.21200  0.13001  0.30211  Biso   1.000  H
  C190     1.0000 0.36278  0.20190  0.70420  Biso   1.000  C
  H206     1.0000 0.44862  0.13401  0.73430  Biso   1.000  H
  H207     1.0000 0.41211  0.07692  0.70110  Biso   1.000  H
  O21      1.0000 0.18031  0.25811  0.30133  Biso   1.000  O
  O22      1.0000 0.95847  0.02831  0.57226  Biso   1.000  O
  O23      1.0000 0.01632  0.46008  0.75068  Biso   1.000  O
  O24      1.0000 0.30422  0.17542  0.72325  Biso   1.000  O
  H208     1.0000 0.21940  0.19362  0.26301  Biso   1.000  H
  H209     1.0000 0.16051  0.13517  0.28071  Biso   1.000  H
  H210     1.0000 0.18937  0.17047  0.26410  Biso   1.000  H
  H211     1.0000 0.38009  0.26361  0.71150  Biso   1.000  H
  H212     1.0000 0.34219  0.20441  0.67931  Biso   1.000  H
  C191     1.0000 0.89630  0.07977  0.57979  Biso   1.000  C
  C192     1.0000 0.90240  0.08303  0.58419  Biso   1.000  C
  C193     1.0000 0.04729  0.37502  0.74910  Biso   1.000  C
  C194     1.0000 0.96741  0.40591  0.72770  Biso   1.000  C
  H213     1.0000 0.85772  0.03842  0.58659  Biso   1.000  H
  H214     1.0000 0.87370  0.11337  0.55891  Biso   1.000  H
  C195     1.0000 0.92102  0.14752  0.60949  Biso   1.000  C
  H215     1.0000 0.87137  0.04358  0.59710  Biso   1.000  H
  H216     1.0000 0.86930  0.10828  0.56411  Biso   1.000  H
  C196     1.0000 0.93602  0.16103  0.60789  Biso   1.000  C
  C197     1.0000 0.03078  0.34800  0.71010  Biso   1.000  C
  C198     1.0000 0.01101  0.31629  0.72369  Biso   1.000  C
  H217     1.0000 0.04779  0.30530  0.74470  Biso   1.000  H
  H218     1.0000 0.02388  0.33130  0.76341  Biso   1.000  H
  H219     1.0000 0.10201  0.37671  0.75720  Biso   1.000  H
  H220     1.0000 0.95459  0.43659  0.70500  Biso   1.000  H
  H221     1.0000 0.92058  0.39369  0.73720  Biso   1.000  H
  H222     1.0000 0.95811  0.19043  0.60240  Biso   1.000  H
  H223     1.0000 0.87699  0.18303  0.61420  Biso   1.000  H
  C199     1.0000 0.95537  0.09783  0.64220  Biso   1.000  C
  H224     1.0000 0.95751  0.20699  0.59399  Biso   1.000  H
  H225     1.0000 0.89560  0.18982  0.61871  Biso   1.000  H
  C200     1.0000 0.99682  0.12417  0.63620  Biso   1.000  C
  C201     1.0000 0.07283  0.26103  0.70511  Biso   1.000  C
  H226     1.0000 0.04739  0.39688  0.69569  Biso   1.000  H
  H227     1.0000 0.97630  0.33863  0.70309  Biso   1.000  H
  C202     1.0000 0.05041  0.32621  0.69170  Biso   1.000  C
  H228     1.0000 0.97532  0.26449  0.72071  Biso   1.000  H
  H229     1.0000 0.00270  0.06850  0.63809  Biso   1.000  H
  H230     1.0000 0.92062  0.04942  0.64730  Biso   1.000  H
  C203     1.0000 0.97209  0.16042  0.67369  Biso   1.000  C
  H231     1.0000 0.98829  0.05879  0.63980  Biso   1.000  H
  C204     1.0000 0.99592  0.17597  0.67030  Biso   1.000  C
  H232     1.0000 0.04647  0.13109  0.62870  Biso   1.000  H
  C205     1.0000 0.03981  0.22152  0.66870  Biso   1.000  C
  C206     1.0000 0.06862  0.23232  0.67809  Biso   1.000  C
  H233     1.0000 0.10500  0.20068  0.69551  Biso   1.000  H
  H234     1.0000 0.06628  0.21690  0.72351  Biso   1.000  H
  H235     1.0000 0.12702  0.27373  0.70620  Biso   1.000  H
  H236     1.0000 0.01779  0.35988  0.67341  Biso   1.000  H
  H237     1.0000 0.09738  0.36110  0.69799  Biso   1.000  H
  H238     1.0000 0.98421  0.12403  0.69509  Biso   1.000  H
  H239     1.0000 0.92773  0.19851  0.67571  Biso   1.000  H
  H240     1.0000 0.99288  0.13252  0.68940  Biso   1.000  H
  H241     1.0000 0.95160  0.21643  0.66821  Biso   1.000  H
  H242     1.0000 0.02328  0.27128  0.65229  Biso   1.000  H
  H243     1.0000 0.07839  0.18527  0.65920  Biso   1.000  H
  H244     1.0000 0.09131  0.23931  0.65669  Biso   1.000  H
  O25      1.0000 0.69581  0.67542  0.77673  Biso   1.000  O
  C207     1.0000 0.74681  0.60998  0.79089  Biso   1.000  C
  C208     1.0000 0.63720  0.70190  0.79581  Biso   1.000  C
  C209     1.0000 0.80411  0.59260  0.77239  Biso   1.000  C
  C210     1.0000 0.74528  0.56830  0.82290  Biso   1.000  C
  H245     1.0000 0.61989  0.76361  0.78851  Biso   1.000  H
  H246     1.0000 0.65779  0.70441  0.82070  Biso   1.000  H
  C211     1.0000 0.57132  0.63822  0.79071  Biso   1.000  C
  C212     1.0000 0.85862  0.53041  0.78458  Biso   1.000  C
  H247     1.0000 0.80608  0.62349  0.75119  Biso   1.000  H
  C213     1.0000 0.80272  0.50441  0.83506  Biso   1.000  C
  H248     1.0000 0.70690  0.58221  0.83620  Biso   1.000  H
  H249     1.0000 0.55142  0.63401  0.76571  Biso   1.000  H
  H250     1.0000 0.58793  0.57692  0.79891  Biso   1.000  H
  C214     1.0000 0.51030  0.67020  0.81004  Biso   1.000  C
  C215     1.0000 0.85912  0.48418  0.81617  Biso   1.000  C
  H251     1.0000 0.89720  0.51813  0.77120  Biso   1.000  H
  H252     1.0000 0.80201  0.47508  0.85669  Biso   1.000  H
  H253     1.0000 0.49890  0.73428  0.80370  Biso   1.000  H
  H254     1.0000 0.52990  0.66877  0.83511  Biso   1.000  H
  C216     1.0000 0.43783  0.61718  0.80411  Biso   1.000  C
  C217     1.0000 0.91581  0.41168  0.82823  Biso   1.000  C
  H255     1.0000 0.44912  0.55153  0.80660  Biso   1.000  H
  H256     1.0000 0.41241  0.62777  0.78020  Biso   1.000  H
  C218     1.0000 0.38510  0.64433  0.82960  Biso   1.000  C
  N25      1.0000 0.88163  0.32152  0.82494  Biso   1.000  N
  H257     1.0000 0.95720  0.41453  0.81431  Biso   1.000  H
  H258     1.0000 0.93709  0.42281  0.85271  Biso   1.000  H
  H259     1.0000 0.41278  0.63747  0.85330  Biso   1.000  H
  H260     1.0000 0.37308  0.70957  0.82611  Biso   1.000  H
  C219     1.0000 0.31218  0.59321  0.82771  Biso   1.000  C
  C220     1.0000 0.85531  0.28832  0.78954  Biso   1.000  C
  C221     1.0000 0.85880  0.27753  0.85201  Biso   1.000  C
  H261     1.0000 0.28268  0.60109  0.80440  Biso   1.000  H
  H262     1.0000 0.32291  0.52770  0.83120  Biso   1.000  H
  C222     1.0000 0.26702  0.62580  0.85431  Biso   1.000  C
  C223     1.0000 0.89199  0.20197  0.78018  Biso   1.000  C
  H263     1.0000 0.86432  0.33612  0.77290  Biso   1.000  H
  H264     1.0000 0.80048  0.27821  0.78701  Biso   1.000  H
  N26      1.0000 0.81124  0.20679  0.84427  Biso   1.000  N
  N27      1.0000 0.88327  0.30869  0.88485  Biso   1.000  N
  H265     1.0000 0.21430  0.60713  0.84709  Biso   1.000  H
  H266     1.0000 0.26818  0.69301  0.85449  Biso   1.000  H
  C224     1.0000 0.29218  0.59199  0.89163  Biso   1.000  C
  C225     1.0000 0.85951  0.15513  0.75031  Biso   1.000  C
  C226     1.0000 0.95662  0.16612  0.79870  Biso   1.000  C
  C227     1.0000 0.78929  0.17033  0.87250  Biso   1.000  C
  C228     1.0000 0.85770  0.26151  0.90878  Biso   1.000  C
  O26      1.0000 0.27430  0.49593  0.89085  Biso   1.000  O
  H267     1.0000 0.34671  0.60163  0.89861  Biso   1.000  H
  H268     1.0000 0.26488  0.62437  0.90811  Biso   1.000  H
  C229     1.0000 0.88970  0.07400  0.73991  Biso   1.000  C
  H269     1.0000 0.81571  0.17923  0.73681  Biso   1.000  H
  C230     1.0000 0.98720  0.08513  0.78864  Biso   1.000  C
  H270     1.0000 0.98060  0.19701  0.81871  Biso   1.000  H
  N28      1.0000 0.81034  0.19219  0.90555  Biso   1.000  N
  O27      1.0000 0.73849  0.10272  0.86471  Biso   1.000  O
  O28      1.0000 0.88456  0.28988  0.94180  Biso   1.000  O
  C231     1.0000 0.30060  0.44657  0.91962  Biso   1.000  C
  C232     1.0000 0.95301  0.03863  0.75984  Biso   1.000  C
  H271     1.0000 0.86697  0.04372  0.71950  Biso   1.000  H
  H272     1.0000 0.03179  0.06178  0.80171  Biso   1.000  H
  C233     1.0000 0.70521  0.06823  0.89305  Biso   1.000  C
  C234     1.0000 0.85599  0.24623  0.96913  Biso   1.000  C
  C235     1.0000 0.28861  0.35187  0.91688  Biso   1.000  C
  C236     1.0000 0.33750  0.48228  0.95062  Biso   1.000  C
  O29      1.0000 0.98372  0.96008  0.74933  Biso   1.000  O
  C237     1.0000 0.64512  0.11650  0.90252  Biso   1.000  C
  C238     1.0000 0.73282  0.99043  0.90907  Biso   1.000  C
  C239     1.0000 0.89044  0.16782  0.98369  Biso   1.000  C
  C240     1.0000 0.79510  0.28540  0.98157  Biso   1.000  C
  C241     1.0000 0.31409  0.29640  0.94452  Biso   1.000  C
  H273     1.0000 0.26312  0.32661  0.89600  Biso   1.000  H
  C242     1.0000 0.36259  0.42410  0.97790  Biso   1.000  C
  H274     1.0000 0.34552  0.54589  0.95311  Biso   1.000  H
  C243     1.0000 0.95269  0.87502  0.75091  Biso   1.000  C
  C244     1.0000 0.03262  0.90591  0.77231  Biso   1.000  C
  C245     1.0000 0.61328  0.08147  0.92969  Biso   1.000  C
  H275     1.0000 0.62700  0.17060  0.89090  Biso   1.000  H
  C246     1.0000 0.69922  0.95872  0.93611  Biso   1.000  C
  H276     1.0000 0.77368  0.95913  0.90180  Biso   1.000  H
  H277     1.0000 0.93242  0.14229  0.97510  Biso   1.000  H
  C247     1.0000 0.86183  0.12817  0.01089  Biso   1.000  C
  H278     1.0000 0.77211  0.33910  0.97151  Biso   1.000  H
  C248     1.0000 0.76943  0.24297  0.00929  Biso   1.000  C
  C249     1.0000 0.35151  0.33028  0.97541  Biso   1.000  C
  H279     1.0000 0.30582  0.23293  0.94229  Biso   1.000  H
  H280     1.0000 0.38811  0.44881  0.99891  Biso   1.000  H
  C250     1.0000 0.96921  0.84800  0.78991  Biso   1.000  C
  H281     1.0000 0.97610  0.83130  0.73660  Biso   1.000  H
  H282     1.0000 0.89802  0.87671  0.74281  Biso   1.000  H
  C251     1.0000 0.98902  0.81629  0.77629  Biso   1.000  C
  H283     1.0000 0.95219  0.80530  0.75531  Biso   1.000  H
  H284     1.0000 0.04540  0.93659  0.79500  Biso   1.000  H
  H285     1.0000 0.07941  0.89369  0.76281  Biso   1.000  H
  O30      1.0000 0.55007  0.12627  0.93914  Biso   1.000  O
  C252     1.0000 0.63810  0.00231  0.94703  Biso   1.000  C
  O31      1.0000 0.72633  0.87753  0.95316  Biso   1.000  O
  O32      1.0000 0.89578  0.04881  0.02668  Biso   1.000  O
  C253     1.0000 0.80152  0.16483  0.02497  Biso   1.000  C
  O33      1.0000 0.70858  0.28167  0.02305  Biso   1.000  O
  C254     1.0000 0.37822  0.26701  0.00577  Biso   1.000  C
  C255     1.0000 0.92721  0.76103  0.79490  Biso   1.000  C
  H286     1.0000 0.95258  0.89688  0.80429  Biso   1.000  H
  H287     1.0000 0.02367  0.83863  0.79689  Biso   1.000  H
  C256     1.0000 0.94957  0.82621  0.80830  Biso   1.000  C
  H288     1.0000 0.02472  0.76449  0.77930  Biso   1.000  H
  C257     1.0000 0.56250  0.18187  0.96755  Biso   1.000  C
  H289     1.0000 0.61469  0.97902  0.96540  Biso   1.000  H
  C258     1.0000 0.78184  0.88601  0.98054  Biso   1.000  C
  C259     1.0000 0.86174  0.96802  0.01604  Biso   1.000  C
  H290     1.0000 0.78355  0.13781  0.04419  Biso   1.000  H
  C260     1.0000 0.63873  0.25411  0.00804  Biso   1.000  C
  N29      1.0000 0.45575  0.28832  0.02238  Biso   1.000  N
  H291     1.0000 0.37620  0.20339  0.99741  Biso   1.000  H
  H292     1.0000 0.34380  0.27237  0.02321  Biso   1.000  H
  C261     1.0000 0.96023  0.72152  0.83131  Biso   1.000  C
  H293     1.0000 0.93370  0.71690  0.77650  Biso   1.000  H
  H294     1.0000 0.87301  0.77373  0.79379  Biso   1.000  H
  C262     1.0000 0.93141  0.73232  0.82189  Biso   1.000  C
  H295     1.0000 0.89499  0.70068  0.80450  Biso   1.000  H
  H296     1.0000 0.98219  0.85988  0.82660  Biso   1.000  H
  H297     1.0000 0.90259  0.86110  0.80199  Biso   1.000  H
  N30      1.0000 0.50116  0.21032  0.97813  Biso   1.000  N
  N31      1.0000 0.63428  0.19898  0.98082  Biso   1.000  N
  N32      1.0000 0.80284  0.80849  0.99555  Biso   1.000  N
  N33      1.0000 0.80771  0.96897  0.98859  Biso   1.000  N
  N34      1.0000 0.88911  0.89790  0.03506  Biso   1.000  N
  N35      1.0000 0.58399  0.28771  0.02303  Biso   1.000  N
  C263     1.0000 0.51504  0.26212  0.00773  Biso   1.000  C
  C264     1.0000 0.46741  0.32763  0.05773  Biso   1.000  C
  H298     1.0000 0.97670  0.77128  0.84769  Biso   1.000  H
  H299     1.0000 0.92160  0.68527  0.84080  Biso   1.000  H
  H300     1.0000 0.90872  0.73931  0.84329  Biso   1.000  H
  C265     1.0000 0.02789  0.66042  0.82629  Biso   1.000  C
  C266     1.0000 0.00411  0.67597  0.82970  Biso   1.000  C
  C267     1.0000 0.85740  0.81752  0.02393  Biso   1.000  C
  H301     1.0000 0.42313  0.36449  0.06099  Biso   1.000  H
  H302     1.0000 0.51164  0.36809  0.06039  Biso   1.000  H
  C268     1.0000 0.47923  0.25418  0.08529  Biso   1.000  C
  C269     1.0000 0.04460  0.59783  0.85778  Biso   1.000  C
  H303     1.0000 0.01582  0.62403  0.80489  Biso   1.000  H
  H304     1.0000 0.07231  0.69851  0.82430  Biso   1.000  H
  C270     1.0000 0.00322  0.62417  0.86381  Biso   1.000  C
  H305     1.0000 0.00711  0.63252  0.81061  Biso   1.000  H
  H306     1.0000 0.04838  0.71643  0.83180  Biso   1.000  H
  N36      1.0000 0.88157  0.74121  0.04114  Biso   1.000  N
  C271     1.0000 0.42093  0.22159  0.10006  Biso   1.000  C
  C272     1.0000 0.55173  0.21962  0.09569  Biso   1.000  C
  H307     1.0000 0.99727  0.56850  0.86189  Biso   1.000  H
  C273     1.0000 0.07901  0.64752  0.89049  Biso   1.000  C
  H308     1.0000 0.07942  0.54942  0.85271  Biso   1.000  H
  C274     1.0000 0.06401  0.66103  0.89209  Biso   1.000  C
  H309     1.0000 0.01169  0.55879  0.86021  Biso   1.000  H
  H310     1.0000 0.95350  0.63109  0.87129  Biso   1.000  H
  C275     1.0000 0.85972  0.65098  0.02642  Biso   1.000  C
  C276     1.0000 0.94043  0.74318  0.07165  Biso   1.000  C
  H311     1.0000 0.37191  0.24542  0.09331  Biso   1.000  H
  C277     1.0000 0.43301  0.15289  0.12521  Biso   1.000  C
  C278     1.0000 0.56605  0.15350  0.11973  Biso   1.000  C
  H312     1.0000 0.59213  0.24358  0.08549  Biso   1.000  H
  C279     1.0000 0.10368  0.57977  0.92019  Biso   1.000  C
  H313     1.0000 0.04193  0.69043  0.89760  Biso   1.000  H
  H314     1.0000 0.12300  0.68303  0.88580  Biso   1.000  H
  C280     1.0000 0.09758  0.58303  0.91579  Biso   1.000  C
  H315     1.0000 0.04252  0.70699  0.90599  Biso   1.000  H
  H316     1.0000 0.10439  0.68982  0.88130  Biso   1.000  H
  C281     1.0000 0.90754  0.62172  0.99914  Biso   1.000  C
  H317     1.0000 0.80630  0.65261  0.01570  Biso   1.000  H
  H318     1.0000 0.86492  0.60550  0.04531  Biso   1.000  H
  C282     1.0000 0.90872  0.74223  0.10560  Biso   1.000  C
  H319     1.0000 0.97111  0.79851  0.07069  Biso   1.000  H
  H320     1.0000 0.97362  0.68988  0.07090  Biso   1.000  H
  H321     1.0000 0.39301  0.13028  0.13611  Biso   1.000  H
  C283     1.0000 0.50590  0.11887  0.13378  Biso   1.000  C
  H322     1.0000 0.61552  0.13150  0.12669  Biso   1.000  H
  O34      1.0000 0.04151  0.52831  0.92775  Biso   1.000  O
  H323     1.0000 0.14231  0.53842  0.91339  Biso   1.000  H
  H324     1.0000 0.12629  0.61337  0.94110  Biso   1.000  H
  H325     1.0000 0.12861  0.54358  0.90291  Biso   1.000  H
  H326     1.0000 0.13068  0.60828  0.93590  Biso   1.000  H
  C284     1.0000 0.89700  0.53727  0.98310  Biso   1.000  C
  C285     1.0000 0.96370  0.67773  0.98949  Biso   1.000  C
  C286     1.0000 0.90910  0.66402  0.12516  Biso   1.000  C
  C287     1.0000 0.87792  0.82037  0.11784  Biso   1.000  C
  O35      1.0000 0.52280  0.05390  0.15909  Biso   1.000  O
  C288     1.0000 0.99781  0.56470  0.95052  Biso   1.000  C
  C289     1.0000 0.93999  0.50849  0.95898  Biso   1.000  C
  H327     1.0000 0.85891  0.49830  0.98900  Biso   1.000  H
  C290     1.0000 0.00848  0.64983  0.96563  Biso   1.000  C
  H328     1.0000 0.97118  0.73632  0.99961  Biso   1.000  H
  C291     1.0000 0.87621  0.66551  0.15639  Biso   1.000  C
  H329     1.0000 0.93092  0.60991  0.11799  Biso   1.000  H
  H330     1.0000 0.87790  0.87481  0.10480  Biso   1.000  H
  C292     1.0000 0.84740  0.82193  0.14817  Biso   1.000  C
  C293     1.0000 0.46202  0.01419  0.17239  Biso   1.000  C
  C294     1.0000 0.46229  0.01799  0.17389  Biso   1.000  C
  H331     1.0000 0.93081  0.45112  0.94809  Biso   1.000  H
  H332     1.0000 0.04648  0.68887  0.95960  Biso   1.000  H
  C295     1.0000 0.84724  0.74637  0.16729  Biso   1.000  C
  H333     1.0000 0.87411  0.61161  0.16959  Biso   1.000  H
  H334     1.0000 0.82651  0.87651  0.15549  Biso   1.000  H
  H335     1.0000 0.42373  0.99308  0.15319  Biso   1.000  H
  C296     1.0000 0.49293  0.93252  0.19560  Biso   1.000  C
  H336     1.0000 0.42545  0.98663  0.15639  Biso   1.000  H
  C297     1.0000 0.50602  0.94997  0.19969  Biso   1.000  C
  H337     1.0000 0.43850  0.05920  0.18620  Biso   1.000  H
  H338     1.0000 0.43665  0.06470  0.18579  Biso   1.000  H
  O36      1.0000 0.81973  0.75811  0.19868  Biso   1.000  O
  H339     1.0000 0.52740  0.95451  0.21599  Biso   1.000  H
  H340     1.0000 0.45104  0.89980  0.20380  Biso   1.000  H
  C298     1.0000 0.53504  0.86782  0.17389  Biso   1.000  C
  H341     1.0000 0.55964  0.96640  0.20390  Biso   1.000  H
  H342     1.0000 0.48640  0.95248  0.22199  Biso   1.000  H
  C299     1.0000 0.49722  0.85343  0.18519  Biso   1.000  C
  C300     1.0000 0.79673  0.67780  0.21459  Biso   1.000  C
  C301     1.0000 0.78333  0.68398  0.21260  Biso   1.000  C
  H343     1.0000 0.49951  0.84229  0.15451  Biso   1.000  H
  H344     1.0000 0.57435  0.90183  0.16411  Biso   1.000  H
  C302     1.0000 0.57080  0.79097  0.19720  Biso   1.000  C
  H345     1.0000 0.55163  0.88473  0.14320  Biso   1.000  H
  H346     1.0000 0.44543  0.84487  0.17301  Biso   1.000  H
  H347     1.0000 0.50561  0.80930  0.20450  Biso   1.000  H
  C303     1.0000 0.55291  0.83401  0.16009  Biso   1.000  C
  C304     1.0000 0.73193  0.63211  0.19130  Biso   1.000  C
  H348     1.0000 0.78064  0.69362  0.23700  Biso   1.000  H
  H349     1.0000 0.83953  0.63517  0.21930  Biso   1.000  H
  H350     1.0000 0.81060  0.67047  0.23589  Biso   1.000  H
  H351     1.0000 0.78804  0.63001  0.19790  Biso   1.000  H
  C305     1.0000 0.69962  0.69701  0.21550  Biso   1.000  C
  C306     1.0000 0.61634  0.72831  0.17580  Biso   1.000  C
  C307     1.0000 0.63323  0.82458  0.18049  Biso   1.000  C
  H352     1.0000 0.53131  0.75533  0.20610  Biso   1.000  H
  H353     1.0000 0.60453  0.81670  0.21720  Biso   1.000  H
  H354     1.0000 0.53861  0.77773  0.14710  Biso   1.000  H
  C308     1.0000 0.65604  0.65621  0.20080  Biso   1.000  C
  H355     1.0000 0.73332  0.65031  0.16700  Biso   1.000  H
  H356     1.0000 0.73874  0.56538  0.19280  Biso   1.000  H
  H357     1.0000 0.66261  0.67990  0.22471  Biso   1.000  H
  C309     1.0000 0.65810  0.72498  0.17940  Biso   1.000  C
  H358     1.0000 0.69382  0.74447  0.23281  Biso   1.000  H
  H359     1.0000 0.67840  0.63958  0.22300  Biso   1.000  H
  H360     1.0000 0.61383  0.68568  0.17290  Biso   1.000  H
  H361     1.0000 0.65374  0.76443  0.16561  Biso   1.000  H
  H362     1.0000 0.58224  0.69857  0.15689  Biso   1.000  H
  H363     1.0000 0.66833  0.86388  0.17001  Biso   1.000  H
  H364     1.0000 0.63370  0.84392  0.20471  Biso   1.000  H
  H365     1.0000 0.62454  0.60102  0.19979  Biso   1.000  H
  H366     1.0000 0.69195  0.71758  0.16191  Biso   1.000  H
  O37      1.0000 0.30421  0.32458  0.22326  Biso   1.000  O
  C310     1.0000 0.25322  0.39002  0.20911  Biso   1.000  C
  C311     1.0000 0.36282  0.29810  0.20419  Biso   1.000  C
  C312     1.0000 0.19592  0.40740  0.22761  Biso   1.000  C
  C313     1.0000 0.25469  0.43170  0.17710  Biso   1.000  C
  H367     1.0000 0.38008  0.23639  0.21149  Biso   1.000  H
  H368     1.0000 0.34218  0.29559  0.17930  Biso   1.000  H
  C314     1.0000 0.42870  0.36178  0.20929  Biso   1.000  C
  C315     1.0000 0.14141  0.46959  0.21542  Biso   1.000  C
  H369     1.0000 0.19389  0.37651  0.24880  Biso   1.000  H
  H370     1.0000 0.29312  0.41779  0.16380  Biso   1.000  H
  C316     1.0000 0.19730  0.49559  0.16494  Biso   1.000  C
  H371     1.0000 0.44862  0.36599  0.23431  Biso   1.000  H
  H372     1.0000 0.41210  0.42308  0.20111  Biso   1.000  H
  C317     1.0000 0.48972  0.32980  0.18996  Biso   1.000  C
  C318     1.0000 0.14090  0.51582  0.18383  Biso   1.000  C
  H373     1.0000 0.10283  0.48187  0.22880  Biso   1.000  H
  H374     1.0000 0.19802  0.52492  0.14330  Biso   1.000  H
  H375     1.0000 0.50112  0.26572  0.19630  Biso   1.000  H
  H376     1.0000 0.47008  0.33123  0.16491  Biso   1.000  H
  C319     1.0000 0.56220  0.38282  0.19591  Biso   1.000  C
  C320     1.0000 0.08422  0.58832  0.17177  Biso   1.000  C
  H377     1.0000 0.55090  0.44847  0.19340  Biso   1.000  H
  H378     1.0000 0.58762  0.37223  0.21979  Biso   1.000  H
  C321     1.0000 0.61487  0.35567  0.17040  Biso   1.000  C
  N37      1.0000 0.11840  0.67848  0.17508  Biso   1.000  N
  H379     1.0000 0.04282  0.58547  0.18569  Biso   1.000  H
  H380     1.0000 0.06288  0.57719  0.14729  Biso   1.000  H
  H381     1.0000 0.58719  0.36253  0.14669  Biso   1.000  H
  H382     1.0000 0.62689  0.29043  0.17389  Biso   1.000  H
  C322     1.0000 0.68780  0.40679  0.17231  Biso   1.000  C
  C323     1.0000 0.14471  0.71168  0.21045  Biso   1.000  C
  C324     1.0000 0.14123  0.72247  0.14799  Biso   1.000  C
  H383     1.0000 0.71729  0.39891  0.19560  Biso   1.000  H
  H384     1.0000 0.67711  0.47230  0.16879  Biso   1.000  H
  C325     1.0000 0.73301  0.37420  0.14568  Biso   1.000  C
  C326     1.0000 0.10797  0.79803  0.21982  Biso   1.000  C
  H385     1.0000 0.13570  0.66388  0.22709  Biso   1.000  H
  H386     1.0000 0.19949  0.72179  0.21299  Biso   1.000  H
  N38      1.0000 0.18873  0.79321  0.15572  Biso   1.000  N
  N39      1.0000 0.11670  0.69131  0.11515  Biso   1.000  N
  H387     1.0000 0.78572  0.39287  0.15290  Biso   1.000  H
  H388     1.0000 0.73178  0.30699  0.14550  Biso   1.000  H
  C327     1.0000 0.70778  0.40801  0.10837  Biso   1.000  C
  C328     1.0000 0.14051  0.84487  0.24968  Biso   1.000  C
  C329     1.0000 0.04340  0.83388  0.20129  Biso   1.000  C
  C330     1.0000 0.21068  0.82967  0.12749  Biso   1.000  C
  C331     1.0000 0.14233  0.73849  0.09121  Biso   1.000  C
  O38      1.0000 0.72573  0.50407  0.10917  Biso   1.000  O
  H389     1.0000 0.65333  0.39837  0.10141  Biso   1.000  H
  H390     1.0000 0.73509  0.37563  0.09189  Biso   1.000  H
  C332     1.0000 0.11032  0.92600  0.26008  Biso   1.000  C
  H391     1.0000 0.18431  0.82077  0.26319  Biso   1.000  H
  H392     1.0000 0.01942  0.80299  0.18129  Biso   1.000  H
  C333     1.0000 0.01283  0.91487  0.21136  Biso   1.000  C
  N40      1.0000 0.18969  0.80781  0.09445  Biso   1.000  N
  O39      1.0000 0.26153  0.89728  0.13528  Biso   1.000  O
  O40      1.0000 0.11547  0.71012  0.05820  Biso   1.000  O
  C334     1.0000 0.69943  0.55343  0.08037  Biso   1.000  C
  C335     1.0000 0.04701  0.96137  0.24016  Biso   1.000  C
  H393     1.0000 0.13299  0.95628  0.28050  Biso   1.000  H
  H394     1.0000 0.96817  0.93822  0.19829  Biso   1.000  H
  C336     1.0000 0.29481  0.93177  0.10695  Biso   1.000  C
  C337     1.0000 0.14398  0.75377  0.03087  Biso   1.000  C
  C338     1.0000 0.71141  0.64813  0.08312  Biso   1.000  C
  C339     1.0000 0.66247  0.51772  0.04937  Biso   1.000  C
  O41      1.0000 0.01631  0.03992  0.25069  Biso   1.000  O
  C340     1.0000 0.35491  0.88350  0.09748  Biso   1.000  C
  C341     1.0000 0.26721  0.00957  0.09093  Biso   1.000  C
  C342     1.0000 0.10959  0.83218  0.01630  Biso   1.000  C
  C343     1.0000 0.20493  0.71460  0.01842  Biso   1.000  C
  H395     1.0000 0.73690  0.67339  0.10400  Biso   1.000  H
  C344     1.0000 0.68588  0.70360  0.05548  Biso   1.000  C
  C345     1.0000 0.63738  0.57590  0.02210  Biso   1.000  C
  H396     1.0000 0.65450  0.45411  0.04689  Biso   1.000  H
  C346     1.0000 0.96740  0.09409  0.22769  Biso   1.000  C
  C347     1.0000 0.04729  0.12498  0.24911  Biso   1.000  C
  C348     1.0000 0.38668  0.91853  0.07031  Biso   1.000  C
  H397     1.0000 0.37303  0.82940  0.10910  Biso   1.000  H
  C349     1.0000 0.30080  0.04128  0.06389  Biso   1.000  C
  H398     1.0000 0.22629  0.04087  0.09820  Biso   1.000  H
  H399     1.0000 0.06761  0.85771  0.02489  Biso   1.000  H
  C350     1.0000 0.13820  0.87183  0.98911  Biso   1.000  C
  H400     1.0000 0.22791  0.66090  0.02849  Biso   1.000  H
  C351     1.0000 0.23059  0.75703  0.99071  Biso   1.000  C
  H401     1.0000 0.69420  0.76707  0.05770  Biso   1.000  H
  C352     1.0000 0.64851  0.66972  0.02458  Biso   1.000  C
  H402     1.0000 0.61192  0.55119  0.00111  Biso   1.000  H
  H403     1.0000 0.95457  0.06341  0.20499  Biso   1.000  H
  H404     1.0000 0.92062  0.10631  0.23721  Biso   1.000  H
  C353     1.0000 0.03082  0.15200  0.21009  Biso   1.000  C
  C354     1.0000 0.01100  0.18371  0.22370  Biso   1.000  C
  H405     1.0000 0.02392  0.16870  0.26340  Biso   1.000  H
  H406     1.0000 0.10201  0.12329  0.25721  Biso   1.000  H
  H407     1.0000 0.04777  0.19470  0.24469  Biso   1.000  H
  O42      1.0000 0.44990  0.87373  0.06086  Biso   1.000  O
  C355     1.0000 0.36192  0.99769  0.05297  Biso   1.000  C
  O43      1.0000 0.27369  0.12247  0.04684  Biso   1.000  O
  O44      1.0000 0.10424  0.95119  0.97332  Biso   1.000  O
  C356     1.0000 0.19850  0.83517  0.97503  Biso   1.000  C
  O45      1.0000 0.29139  0.71833  0.97694  Biso   1.000  O
  C357     1.0000 0.62180  0.73299  0.99423  Biso   1.000  C
  H408     1.0000 0.97630  0.16137  0.20310  Biso   1.000  H
  C358     1.0000 0.07281  0.23897  0.20510  Biso   1.000  C
  H409     1.0000 0.04739  0.10312  0.19570  Biso   1.000  H
  H410     1.0000 0.97531  0.23551  0.22070  Biso   1.000  H
  C359     1.0000 0.05039  0.17379  0.19169  Biso   1.000  C
  C360     1.0000 0.43752  0.81813  0.03245  Biso   1.000  C
  H411     1.0000 0.38528  0.02098  0.03460  Biso   1.000  H
  C361     1.0000 0.21813  0.11399  0.01946  Biso   1.000  C
  C362     1.0000 0.13828  0.03198  0.98396  Biso   1.000  C
  H412     1.0000 0.21647  0.86219  0.95580  Biso   1.000  H
  C363     1.0000 0.36130  0.74589  0.99195  Biso   1.000  C
  H413     1.0000 0.62377  0.79661  0.00259  Biso   1.000  H
  N41      1.0000 0.54422  0.71168  0.97762  Biso   1.000  N
  H414     1.0000 0.65617  0.72763  0.97681  Biso   1.000  H
  C364     1.0000 0.03979  0.27848  0.16869  Biso   1.000  C
  H415     1.0000 0.06632  0.28310  0.22350  Biso   1.000  H
  H416     1.0000 0.12702  0.22627  0.20621  Biso   1.000  H
  C365     1.0000 0.06861  0.26768  0.17811  Biso   1.000  C
  H417     1.0000 0.10498  0.29932  0.19550  Biso   1.000  H
  H418     1.0000 0.01778  0.14012  0.17340  Biso   1.000  H
  H419     1.0000 0.09738  0.13890  0.19801  Biso   1.000  H
  N42      1.0000 0.49881  0.78968  0.02187  Biso   1.000  N
  N43      1.0000 0.36574  0.80102  0.01917  Biso   1.000  N
  N44      1.0000 0.19718  0.19151  0.00445  Biso   1.000  N
  N45      1.0000 0.19226  0.03103  0.01141  Biso   1.000  N
  N46      1.0000 0.11092  0.10210  0.96496  Biso   1.000  N
  N47      1.0000 0.41599  0.71229  0.97700  Biso   1.000  N
  C366     1.0000 0.53256  0.67237  0.94227  Biso   1.000  C
  C367     1.0000 0.48499  0.73788  0.99226  Biso   1.000  C
  C368     1.0000 0.97208  0.33958  0.17371  Biso   1.000  C
  C369     1.0000 0.99591  0.32403  0.17029  Biso   1.000  C
  H420     1.0000 0.02333  0.22872  0.15231  Biso   1.000  H
  H421     1.0000 0.07837  0.31473  0.15919  Biso   1.000  H
  H422     1.0000 0.09131  0.26069  0.15671  Biso   1.000  H
  C370     1.0000 0.14256  0.18248  0.97606  Biso   1.000  C
  H423     1.0000 0.57690  0.63551  0.93901  Biso   1.000  H
  H424     1.0000 0.48838  0.63191  0.93960  Biso   1.000  H
  C371     1.0000 0.52079  0.74582  0.91471  Biso   1.000  C
  C372     1.0000 0.95542  0.40217  0.14222  Biso   1.000  C
  H425     1.0000 0.98421  0.37597  0.19511  Biso   1.000  H
  H426     1.0000 0.92771  0.30149  0.17570  Biso   1.000  H
  C373     1.0000 0.99680  0.37583  0.13619  Biso   1.000  C
  H427     1.0000 0.99292  0.36748  0.18939  Biso   1.000  H
  H428     1.0000 0.95159  0.28357  0.16820  Biso   1.000  H
  N48      1.0000 0.11845  0.25879  0.95886  Biso   1.000  N
  C374     1.0000 0.57910  0.77841  0.89994  Biso   1.000  C
  C375     1.0000 0.44830  0.78038  0.90431  Biso   1.000  C
  C376     1.0000 0.92101  0.35248  0.10951  Biso   1.000  C
  H429     1.0000 0.92060  0.45058  0.14729  Biso   1.000  H
  C377     1.0000 0.93601  0.33897  0.10790  Biso   1.000  C
  H430     1.0000 0.98829  0.44121  0.13981  Biso   1.000  H
  H431     1.0000 0.00270  0.43150  0.13810  Biso   1.000  H
  H432     1.0000 0.04652  0.36891  0.12871  Biso   1.000  H
  C378     1.0000 0.05959  0.25682  0.92835  Biso   1.000  C
  C379     1.0000 0.14026  0.34902  0.97361  Biso   1.000  C
  H433     1.0000 0.62806  0.75458  0.90672  Biso   1.000  H
  C380     1.0000 0.56696  0.84711  0.87478  Biso   1.000  C
  C381     1.0000 0.43397  0.84650  0.88027  Biso   1.000  C
  H434     1.0000 0.40790  0.75642  0.91450  Biso   1.000  H
  C382     1.0000 0.89629  0.42023  0.07980  Biso   1.000  C
  H435     1.0000 0.95810  0.30957  0.10239  Biso   1.000  H
  H436     1.0000 0.87697  0.31697  0.11419  Biso   1.000  H
  C383     1.0000 0.90239  0.41697  0.08420  Biso   1.000  C
  H437     1.0000 0.95751  0.29301  0.09401  Biso   1.000  H
  H438     1.0000 0.89558  0.31018  0.11870  Biso   1.000  H
  C384     1.0000 0.09131  0.25777  0.89440  Biso   1.000  C
  H439     1.0000 0.02886  0.20149  0.92931  Biso   1.000  H
  H440     1.0000 0.02635  0.31012  0.92910  Biso   1.000  H
  H441     1.0000 0.19367  0.34739  0.98429  Biso   1.000  H
  H442     1.0000 0.13506  0.39450  0.95472  Biso   1.000  H
  C385     1.0000 0.09244  0.37828  0.00088  Biso   1.000  C
  H443     1.0000 0.60697  0.86972  0.86392  Biso   1.000  H
  C386     1.0000 0.49406  0.88113  0.86622  Biso   1.000  C
  H444     1.0000 0.38450  0.86850  0.87331  Biso   1.000  H
  O46      1.0000 0.95851  0.47169  0.07225  Biso   1.000  O
  H445     1.0000 0.85772  0.46158  0.08661  Biso   1.000  H
  H446     1.0000 0.87368  0.38663  0.05889  Biso   1.000  H
  H447     1.0000 0.87141  0.45642  0.09709  Biso   1.000  H
  H448     1.0000 0.86929  0.39172  0.06410  Biso   1.000  H
  C387     1.0000 0.09087  0.33598  0.87484  Biso   1.000  C
  C388     1.0000 0.12206  0.17963  0.88218  Biso   1.000  C
  C389     1.0000 0.10302  0.46273  0.01690  Biso   1.000  C
  C390     1.0000 0.03627  0.32227  0.01051  Biso   1.000  C
  O47      1.0000 0.47716  0.94610  0.84091  Biso   1.000  O
  C391     1.0000 0.00221  0.43530  0.04948  Biso   1.000  C
  C392     1.0000 0.12376  0.33449  0.84360  Biso   1.000  C
  H449     1.0000 0.06905  0.39009  0.88200  Biso   1.000  H
  H450     1.0000 0.12206  0.12519  0.89520  Biso   1.000  H
  C393     1.0000 0.15257  0.17807  0.85183  Biso   1.000  C
  H451     1.0000 0.14111  0.50170  0.01100  Biso   1.000  H
  C394     1.0000 0.05999  0.49151  0.04104  Biso   1.000  C
  C395     1.0000 0.99149  0.35017  0.03436  Biso   1.000  C
  H452     1.0000 0.02879  0.26368  0.00039  Biso   1.000  H
  C396     1.0000 0.53800  0.98581  0.82761  Biso   1.000  C
  C397     1.0000 0.53767  0.98201  0.82611  Biso   1.000  C
  C398     1.0000 0.15278  0.25363  0.83271  Biso   1.000  C
  H453     1.0000 0.12586  0.38839  0.83041  Biso   1.000  H
  H454     1.0000 0.17345  0.12349  0.84451  Biso   1.000  H
  H455     1.0000 0.06921  0.54888  0.05191  Biso   1.000  H
  H456     1.0000 0.95349  0.31113  0.04039  Biso   1.000  H
  H457     1.0000 0.56146  0.94080  0.81379  Biso   1.000  H
  H458     1.0000 0.56337  0.93530  0.81421  Biso   1.000  H
  H459     1.0000 0.57629  0.00692  0.84681  Biso   1.000  H
  C399     1.0000 0.50709  0.06748  0.80440  Biso   1.000  C
  H460     1.0000 0.57458  0.01337  0.84360  Biso   1.000  H
  C400     1.0000 0.49400  0.04997  0.80031  Biso   1.000  C
  O48      1.0000 0.18029  0.24189  0.80132  Biso   1.000  O
  H461     1.0000 0.47257  0.04549  0.78401  Biso   1.000  H
  H462     1.0000 0.54898  0.10020  0.79620  Biso   1.000  H
  C401     1.0000 0.46499  0.13218  0.82611  Biso   1.000  C
  H463     1.0000 0.44038  0.03360  0.79609  Biso   1.000  H
  H464     1.0000 0.51357  0.04752  0.77801  Biso   1.000  H
  C402     1.0000 0.50280  0.14657  0.81480  Biso   1.000  C
  C403     1.0000 0.20329  0.32220  0.78541  Biso   1.000  C
  C404     1.0000 0.21669  0.31602  0.78740  Biso   1.000  C
  H465     1.0000 0.50046  0.15771  0.84549  Biso   1.000  H
  H466     1.0000 0.42567  0.09817  0.83589  Biso   1.000  H
  C405     1.0000 0.42917  0.20903  0.80280  Biso   1.000  C
  H467     1.0000 0.44839  0.11527  0.85680  Biso   1.000  H
  H468     1.0000 0.55461  0.15513  0.82702  Biso   1.000  H
  H469     1.0000 0.49436  0.19070  0.79550  Biso   1.000  H
  C406     1.0000 0.44706  0.16599  0.83990  Biso   1.000  C
  C407     1.0000 0.26810  0.36789  0.80870  Biso   1.000  C
  H470     1.0000 0.21939  0.30638  0.76300  Biso   1.000  H
  H471     1.0000 0.16049  0.36483  0.78070  Biso   1.000  H
  H472     1.0000 0.18937  0.32953  0.76411  Biso   1.000  H
  H473     1.0000 0.21198  0.36999  0.80210  Biso   1.000  H
  C408     1.0000 0.30035  0.30299  0.78450  Biso   1.000  C
  H474     1.0000 0.46866  0.24467  0.79389  Biso   1.000  H
  H475     1.0000 0.39549  0.18330  0.78279  Biso   1.000  H
  C409     1.0000 0.38369  0.27169  0.82420  Biso   1.000  C
  C410     1.0000 0.36679  0.17542  0.81951  Biso   1.000  C
  H476     1.0000 0.46136  0.22227  0.85289  Biso   1.000  H
  C411     1.0000 0.34399  0.34379  0.79920  Biso   1.000  C
  H477     1.0000 0.26665  0.34969  0.83299  Biso   1.000  H
  H478     1.0000 0.26128  0.43462  0.80719  Biso   1.000  H
  H479     1.0000 0.33737  0.32010  0.77531  Biso   1.000  H
  C412     1.0000 0.34186  0.27502  0.82060  Biso   1.000  C
  H480     1.0000 0.30616  0.25553  0.76722  Biso   1.000  H
  H481     1.0000 0.32156  0.36042  0.77700  Biso   1.000  H
  H482     1.0000 0.41778  0.30143  0.84311  Biso   1.000  H
  H483     1.0000 0.34628  0.23557  0.83439  Biso   1.000  H
  H484     1.0000 0.38619  0.31432  0.82709  Biso   1.000  H
  H485     1.0000 0.33170  0.13612  0.82999  Biso   1.000  H
  H486     1.0000 0.36627  0.15608  0.79529  Biso   1.000  H
  H487     1.0000 0.37548  0.39898  0.80021  Biso   1.000  H
  H488     1.0000 0.30807  0.28242  0.83809  Biso   1.000  H
