data_image0
_cell_length_a       13.409
_cell_length_b       21.96
_cell_length_c       31.287
_cell_angle_alpha    90
_cell_angle_beta     90
_cell_angle_gamma    90

_symmetry_space_group_name_H-M    "P 1"
_symmetry_int_tables_number       1

loop_
  _symmetry_equiv_pos_as_xyz
  'x, y, z'

loop_
  _atom_site_label
  _atom_site_occupancy
  _atom_site_fract_x
  _atom_site_fract_y
  _atom_site_fract_z
  _atom_site_thermal_displace_type
  _atom_site_B_iso_or_equiv
  _atom_site_type_symbol
  C1       1.0000 0.33097  0.40729  0.50149  Biso   1.000  C
  C2       1.0000 0.31479  0.36562  0.47109  Biso   1.000  C
  C3       1.0000 0.23477  0.40342  0.47048  Biso   1.000  C
  H1       1.0000 0.36901  0.40533  0.52479  Biso   1.000  H
  H2       1.0000 0.28130  0.44230  0.50430  Biso   1.000  H
  H3       1.0000 0.32657  0.44372  0.51849  Biso   1.000  H
  H4       1.0000 0.33194  0.37240  0.51999  Biso   1.000  H
  H5       1.0000 0.39033  0.40829  0.48458  Biso   1.000  H
  C4       1.0000 0.19778  0.36430  0.45070  Biso   1.000  C
  C5       1.0000 0.24707  0.33479  0.45338  Biso   1.000  C
  H6       1.0000 0.31673  0.32281  0.45441  Biso   1.000  H
  C6       1.0000 0.30509  0.40232  0.51111  Biso   1.000  C
  H7       1.0000 0.36080  0.38479  0.45131  Biso   1.000  H
  H8       1.0000 0.33813  0.32482  0.47729  Biso   1.000  H
  H9       1.0000 0.17250  0.40519  0.44648  Biso   1.000  H
  H10      1.0000 0.23850  0.43292  0.44741  Biso   1.000  H
  H11      1.0000 0.17287  0.40893  0.48608  Biso   1.000  H
  C7       1.0000 0.21038  0.33219  0.40924  Biso   1.000  C
  H12      1.0000 0.15281  0.34221  0.46940  Biso   1.000  H
  H13      1.0000 0.20919  0.30710  0.47119  Biso   1.000  H
  H14      1.0000 0.25871  0.38270  0.53009  Biso   1.000  H
  O1       1.0000 0.26273  0.37127  0.38061  Biso   1.000  O
  H15      1.0000 0.14572  0.32190  0.39739  Biso   1.000  H
  H16      1.0000 0.24767  0.29481  0.41340  Biso   1.000  H
  H17      1.0000 0.14043  0.34312  0.40899  Biso   1.000  H
  H18      1.0000 0.21590  0.29062  0.39898  Biso   1.000  H
  C8       1.0000 0.26333  0.35446  0.33867  Biso   1.000  C
  C9       1.0000 0.33209  0.30906  0.32496  Biso   1.000  C
  C10      1.0000 0.20449  0.38515  0.30959  Biso   1.000  C
  C11      1.0000 0.34320  0.29499  0.28258  Biso   1.000  C
  O2       1.0000 0.38802  0.27942  0.35552  Biso   1.000  O
  C12      1.0000 0.21314  0.37099  0.26532  Biso   1.000  C
  C13      1.0000 0.13953  0.43638  0.32448  Biso   1.000  C
  C14      1.0000 0.28287  0.32618  0.25164  Biso   1.000  C
  C15      1.0000 0.42233  0.25146  0.26810  Biso   1.000  C
  C16      1.0000 0.47461  0.31302  0.36935  Biso   1.000  C
  C17      1.0000 0.15572  0.40132  0.23393  Biso   1.000  C
  O3       1.0000 0.18771  0.49094  0.31054  Biso   1.000  O
  H19      1.0000 0.13327  0.43588  0.35539  Biso   1.000  H
  H20      1.0000 0.07353  0.43320  0.31198  Biso   1.000  H
  C18      1.0000 0.29197  0.31412  0.20747  Biso   1.000  C
  O4       1.0000 0.50004  0.28766  0.25001  Biso   1.000  O
  H21      1.0000 0.39570  0.22350  0.24700  Biso   1.000  H
  H22      1.0000 0.44731  0.22801  0.29210  Biso   1.000  H
  H23      1.0000 0.45514  0.35332  0.37878  Biso   1.000  H
  H24      1.0000 0.52122  0.31740  0.34589  Biso   1.000  H
  C19      1.0000 0.52002  0.28051  0.40359  Biso   1.000  C
  H25      1.0000 0.52159  0.31862  0.34609  Biso   1.000  H
  H26      1.0000 0.45619  0.35250  0.38080  Biso   1.000  H
  H27      1.0000 0.50369  0.33443  0.34529  Biso   1.000  H
  H28      1.0000 0.45544  0.34290  0.39071  Biso   1.000  H
  C20      1.0000 0.52301  0.26699  0.40851  Biso   1.000  C
  C21      1.0000 0.55224  0.26812  0.38869  Biso   1.000  C
  H29      1.0000 0.10978  0.43069  0.24240  Biso   1.000  H
  C22      1.0000 0.16623  0.38852  0.19161  Biso   1.000  C
  C23      1.0000 0.14058  0.54508  0.32550  Biso   1.000  C
  C24      1.0000 0.23477  0.34472  0.17819  Biso   1.000  C
  H30      1.0000 0.33739  0.28502  0.19810  Biso   1.000  H
  C25      1.0000 0.57767  0.25146  0.23189  Biso   1.000  C
  H31      1.0000 0.56887  0.30729  0.41679  Biso   1.000  H
  H32      1.0000 0.46924  0.27259  0.42490  Biso   1.000  H
  C26      1.0000 0.57171  0.22090  0.39400  Biso   1.000  C
  H33      1.0000 0.47379  0.25811  0.43050  Biso   1.000  H
  H34      1.0000 0.58140  0.28461  0.42158  Biso   1.000  H
  C27      1.0000 0.55000  0.20911  0.38380  Biso   1.000  C
  C28      1.0000 0.51383  0.25209  0.43408  Biso   1.000  C
  H35      1.0000 0.61742  0.28711  0.39019  Biso   1.000  H
  H36      1.0000 0.55709  0.23169  0.37121  Biso   1.000  H
  H37      1.0000 0.12753  0.40893  0.17160  Biso   1.000  H
  C29      1.0000 0.20419  0.59686  0.31048  Biso   1.000  C
  H38      1.0000 0.07368  0.54841  0.31390  Biso   1.000  H
  H39      1.0000 0.13633  0.54490  0.35651  Biso   1.000  H
  H40      1.0000 0.24170  0.33629  0.14920  Biso   1.000  H
  C30      1.0000 0.65680  0.29499  0.21744  Biso   1.000  C
  H41      1.0000 0.60430  0.22350  0.25298  Biso   1.000  H
  H42      1.0000 0.55269  0.22801  0.20788  Biso   1.000  H
  H43      1.0000 0.62771  0.22960  0.37530  Biso   1.000  H
  H44      1.0000 0.52554  0.19590  0.37789  Biso   1.000  H
  C31      1.0000 0.60981  0.18352  0.43018  Biso   1.000  C
  H45      1.0000 0.59952  0.21749  0.36210  Biso   1.000  H
  C32      1.0000 0.59400  0.16398  0.42069  Biso   1.000  C
  H46      1.0000 0.49131  0.19148  0.37028  Biso   1.000  H
  H47      1.0000 0.44873  0.23311  0.43219  Biso   1.000  H
  H48      1.0000 0.50720  0.28903  0.45089  Biso   1.000  H
  C33      1.0000 0.58602  0.20952  0.45559  Biso   1.000  C
  C34      1.0000 0.26333  0.62778  0.33931  Biso   1.000  C
  C35      1.0000 0.21217  0.61061  0.26615  Biso   1.000  C
  C36      1.0000 0.66791  0.30906  0.17502  Biso   1.000  C
  C37      1.0000 0.71713  0.32618  0.24838  Biso   1.000  C
  H49      1.0000 0.65083  0.15118  0.41928  Biso   1.000  H
  H50      1.0000 0.64845  0.20870  0.44900  Biso   1.000  H
  H51      1.0000 0.55448  0.16648  0.44558  Biso   1.000  H
  H52      1.0000 0.66194  0.17491  0.42650  Biso   1.000  H
  H53      1.0000 0.55500  0.16890  0.44629  Biso   1.000  H
  H54      1.0000 0.64889  0.21111  0.44121  Biso   1.000  H
  H55      1.0000 0.56000  0.16881  0.45441  Biso   1.000  H
  H56      1.0000 0.59028  0.12291  0.41110  Biso   1.000  H
  H57      1.0000 0.59423  0.22140  0.48490  Biso   1.000  H
  O5       1.0000 0.26348  0.61152  0.38150  Biso   1.000  O
  C38      1.0000 0.33202  0.67322  0.32506  Biso   1.000  C
  C39      1.0000 0.28190  0.65551  0.25199  Biso   1.000  C
  C40      1.0000 0.15437  0.57992  0.23499  Biso   1.000  C
  O6       1.0000 0.61198  0.27942  0.14450  Biso   1.000  O
  C41      1.0000 0.73674  0.35446  0.16131  Biso   1.000  C
  C42      1.0000 0.78693  0.37099  0.23467  Biso   1.000  C
  C43      1.0000 0.70803  0.31412  0.29255  Biso   1.000  C
  C44      1.0000 0.20128  0.64750  0.40886  Biso   1.000  C
  O7       1.0000 0.38780  0.70305  0.35536  Biso   1.000  O
  C45      1.0000 0.34261  0.68643  0.28251  Biso   1.000  C
  C46      1.0000 0.29137  0.66612  0.20750  Biso   1.000  C
  C47      1.0000 0.16504  0.59103  0.19273  Biso   1.000  C
  H58      1.0000 0.10784  0.55123  0.24390  Biso   1.000  H
  C48      1.0000 0.52539  0.31302  0.13063  Biso   1.000  C
  O8       1.0000 0.73734  0.37127  0.11938  Biso   1.000  O
  C49      1.0000 0.79551  0.38515  0.19040  Biso   1.000  C
  C50      1.0000 0.84428  0.40132  0.26605  Biso   1.000  C
  C51      1.0000 0.76523  0.34472  0.32183  Biso   1.000  C
  H59      1.0000 0.66261  0.28502  0.30188  Biso   1.000  H
  H60      1.0000 0.22328  0.68962  0.40870  Biso   1.000  H
  H61      1.0000 0.13282  0.64622  0.39889  Biso   1.000  H
  C52      1.0000 0.20822  0.62181  0.45319  Biso   1.000  C
  C53      1.0000 0.47669  0.67013  0.36763  Biso   1.000  C
  C54      1.0000 0.42203  0.73019  0.26791  Biso   1.000  C
  H62      1.0000 0.33709  0.69472  0.19778  Biso   1.000  H
  C55      1.0000 0.23462  0.63493  0.17864  Biso   1.000  C
  H63      1.0000 0.12663  0.56981  0.17301  Biso   1.000  H
  H64      1.0000 0.54493  0.35332  0.12120  Biso   1.000  H
  H65      1.0000 0.47878  0.31740  0.15409  Biso   1.000  H
  C56      1.0000 0.47998  0.28051  0.09640  Biso   1.000  C
  H66      1.0000 0.47841  0.31862  0.15390  Biso   1.000  H
  H67      1.0000 0.54381  0.35250  0.11919  Biso   1.000  H
  H68      1.0000 0.49631  0.33443  0.15470  Biso   1.000  H
  H69      1.0000 0.54463  0.34290  0.10931  Biso   1.000  H
  C57      1.0000 0.47699  0.26699  0.09151  Biso   1.000  C
  C58      1.0000 0.44783  0.26812  0.11129  Biso   1.000  C
  C59      1.0000 0.78962  0.33219  0.09077  Biso   1.000  C
  C60      1.0000 0.86054  0.43638  0.17554  Biso   1.000  C
  H70      1.0000 0.89022  0.43069  0.25758  Biso   1.000  H
  C61      1.0000 0.83384  0.38852  0.30837  Biso   1.000  C
  H71      1.0000 0.75830  0.33629  0.35078  Biso   1.000  H
  H72      1.0000 0.15803  0.64062  0.47119  Biso   1.000  H
  H73      1.0000 0.19539  0.57842  0.45239  Biso   1.000  H
  C62      1.0000 0.31099  0.63342  0.47199  Biso   1.000  C
  H74      1.0000 0.45954  0.62919  0.37671  Biso   1.000  H
  H75      1.0000 0.52234  0.66730  0.34369  Biso   1.000  H
  C63      1.0000 0.52398  0.70419  0.40349  Biso   1.000  C
  H76      1.0000 0.45962  0.63852  0.38799  Biso   1.000  H
  H77      1.0000 0.50608  0.65100  0.34270  Biso   1.000  H
  C64      1.0000 0.55463  0.71639  0.38860  Biso   1.000  C
  O9       1.0000 0.50004  0.69376  0.25001  Biso   1.000  O
  H78      1.0000 0.44694  0.75383  0.29178  Biso   1.000  H
  H79      1.0000 0.39548  0.75792  0.24659  Biso   1.000  H
  H80      1.0000 0.24178  0.64271  0.14958  Biso   1.000  H
  H81      1.0000 0.43113  0.30729  0.08320  Biso   1.000  H
  H82      1.0000 0.53084  0.27259  0.07511  Biso   1.000  H
  C65      1.0000 0.42829  0.22090  0.10599  Biso   1.000  C
  H83      1.0000 0.52621  0.25811  0.06949  Biso   1.000  H
  H84      1.0000 0.41860  0.28461  0.07840  Biso   1.000  H
  C66      1.0000 0.45000  0.20911  0.11618  Biso   1.000  C
  C67      1.0000 0.48624  0.25209  0.06591  Biso   1.000  C
  H85      1.0000 0.38258  0.28711  0.10979  Biso   1.000  H
  H86      1.0000 0.44291  0.23169  0.12881  Biso   1.000  H
  H87      1.0000 0.85428  0.32190  0.10260  Biso   1.000  H
  H88      1.0000 0.75233  0.29481  0.08659  Biso   1.000  H
  C68      1.0000 0.80222  0.36430  0.04929  Biso   1.000  C
  H89      1.0000 0.85965  0.34312  0.09100  Biso   1.000  H
  H90      1.0000 0.78410  0.29062  0.10100  Biso   1.000  H
  C69      1.0000 0.75293  0.33479  0.04660  Biso   1.000  C
  O10      1.0000 0.81229  0.49094  0.18947  Biso   1.000  O
  H91      1.0000 0.86673  0.43588  0.14460  Biso   1.000  H
  H92      1.0000 0.92654  0.43320  0.18800  Biso   1.000  H
  H93      1.0000 0.87255  0.40893  0.32838  Biso   1.000  H
  H94      1.0000 0.32008  0.67691  0.47528  Biso   1.000  H
  H95      1.0000 0.36080  0.61913  0.45188  Biso   1.000  H
  C70      1.0000 0.32844  0.60392  0.51338  Biso   1.000  C
  H96      1.0000 0.57782  0.67983  0.41519  Biso   1.000  H
  H97      1.0000 0.47498  0.70993  0.42599  Biso   1.000  H
  C71      1.0000 0.56417  0.76430  0.39099  Biso   1.000  C
  C72      1.0000 0.52040  0.73283  0.43111  Biso   1.000  C
  H98      1.0000 0.56030  0.75260  0.37108  Biso   1.000  H
  H99      1.0000 0.61981  0.69740  0.39039  Biso   1.000  H
  C73      1.0000 0.57804  0.73019  0.23211  Biso   1.000  C
  H100     1.0000 0.37229  0.22960  0.12468  Biso   1.000  H
  H101     1.0000 0.47453  0.19590  0.12210  Biso   1.000  H
  C74      1.0000 0.39019  0.18352  0.06981  Biso   1.000  C
  H102     1.0000 0.40048  0.21749  0.13788  Biso   1.000  H
  C75      1.0000 0.40600  0.16398  0.07930  Biso   1.000  C
  H103     1.0000 0.50869  0.19148  0.12970  Biso   1.000  H
  H104     1.0000 0.55127  0.23311  0.06779  Biso   1.000  H
  H105     1.0000 0.49280  0.28903  0.04909  Biso   1.000  H
  C76      1.0000 0.41398  0.20952  0.04440  Biso   1.000  C
  H106     1.0000 0.82750  0.40519  0.05350  Biso   1.000  H
  H107     1.0000 0.84719  0.34221  0.03059  Biso   1.000  H
  C77      1.0000 0.68521  0.36562  0.02889  Biso   1.000  C
  C78      1.0000 0.76523  0.40342  0.02950  Biso   1.000  C
  H108     1.0000 0.79081  0.30710  0.02880  Biso   1.000  H
  H109     1.0000 0.68335  0.32281  0.04561  Biso   1.000  H
  C79      1.0000 0.85942  0.54508  0.17448  Biso   1.000  C
  H110     1.0000 0.30189  0.62892  0.53588  Biso   1.000  H
  H111     1.0000 0.29600  0.56489  0.51389  Biso   1.000  H
  H112     1.0000 0.39884  0.59850  0.51769  Biso   1.000  H
  H113     1.0000 0.61287  0.75902  0.36840  Biso   1.000  H
  H114     1.0000 0.51048  0.78939  0.37990  Biso   1.000  H
  C80      1.0000 0.61392  0.79722  0.42938  Biso   1.000  C
  H115     1.0000 0.46074  0.75760  0.42928  Biso   1.000  H
  H116     1.0000 0.50518  0.69649  0.44760  Biso   1.000  H
  C81      1.0000 0.60698  0.76972  0.45300  Biso   1.000  C
  H117     1.0000 0.55314  0.75383  0.20820  Biso   1.000  H
  H118     1.0000 0.60452  0.75792  0.25340  Biso   1.000  H
  C82      1.0000 0.65739  0.68643  0.21747  Biso   1.000  C
  H119     1.0000 0.34917  0.15118  0.08070  Biso   1.000  H
  H120     1.0000 0.35163  0.20870  0.05101  Biso   1.000  H
  H121     1.0000 0.44552  0.16648  0.05440  Biso   1.000  H
  H122     1.0000 0.33813  0.17491  0.07351  Biso   1.000  H
  H123     1.0000 0.44500  0.16890  0.05370  Biso   1.000  H
  H124     1.0000 0.35111  0.21111  0.05881  Biso   1.000  H
  H125     1.0000 0.44000  0.16881  0.04561  Biso   1.000  H
  H126     1.0000 0.40972  0.12291  0.08889  Biso   1.000  H
  H127     1.0000 0.40577  0.22140  0.01509  Biso   1.000  H
  H128     1.0000 0.63920  0.38479  0.04871  Biso   1.000  H
  H129     1.0000 0.66194  0.32482  0.02269  Biso   1.000  H
  C83      1.0000 0.69491  0.40232  0.98888  Biso   1.000  C
  C84      1.0000 0.66903  0.40729  0.99850  Biso   1.000  C
  H130     1.0000 0.76150  0.43292  0.05261  Biso   1.000  H
  H131     1.0000 0.82713  0.40893  0.01390  Biso   1.000  H
  C85      1.0000 0.79581  0.59686  0.18950  Biso   1.000  C
  H132     1.0000 0.92632  0.54841  0.18608  Biso   1.000  H
  H133     1.0000 0.86375  0.54490  0.14351  Biso   1.000  H
  H134     1.0000 0.65874  0.76972  0.44360  Biso   1.000  H
  H135     1.0000 0.65031  0.83201  0.41941  Biso   1.000  H
  H136     1.0000 0.56328  0.81020  0.44920  Biso   1.000  H
  H137     1.0000 0.60758  0.81070  0.44239  Biso   1.000  H
  H138     1.0000 0.67015  0.75073  0.44648  Biso   1.000  H
  H139     1.0000 0.59758  0.77013  0.48340  Biso   1.000  H
  C86      1.0000 0.66798  0.67322  0.17493  Biso   1.000  C
  C87      1.0000 0.71810  0.65551  0.24799  Biso   1.000  C
  H140     1.0000 0.63099  0.40533  0.97520  Biso   1.000  H
  H141     1.0000 0.74129  0.38270  0.96989  Biso   1.000  H
  H142     1.0000 0.71870  0.44230  0.99569  Biso   1.000  H
  H143     1.0000 0.67343  0.44372  0.98149  Biso   1.000  H
  H144     1.0000 0.66813  0.37240  0.97999  Biso   1.000  H
  H145     1.0000 0.60974  0.40829  0.01541  Biso   1.000  H
  C88      1.0000 0.73674  0.62778  0.16067  Biso   1.000  C
  C89      1.0000 0.78783  0.61061  0.23387  Biso   1.000  C
  O11      1.0000 0.61220  0.70305  0.14463  Biso   1.000  O
  C90      1.0000 0.70863  0.66612  0.29249  Biso   1.000  C
  O12      1.0000 0.73652  0.61152  0.11848  Biso   1.000  O
  C91      1.0000 0.84563  0.57992  0.26500  Biso   1.000  C
  C92      1.0000 0.52331  0.67013  0.13236  Biso   1.000  C
  H146     1.0000 0.66291  0.69472  0.30220  Biso   1.000  H
  C93      1.0000 0.76538  0.63493  0.32135  Biso   1.000  C
  C94      1.0000 0.79872  0.64750  0.09112  Biso   1.000  C
  C95      1.0000 0.83504  0.59103  0.30725  Biso   1.000  C
  H147     1.0000 0.89224  0.55123  0.25608  Biso   1.000  H
  H148     1.0000 0.54053  0.62919  0.12331  Biso   1.000  H
  H149     1.0000 0.47774  0.66730  0.15629  Biso   1.000  H
  C96      1.0000 0.47602  0.70419  0.09649  Biso   1.000  C
  H150     1.0000 0.54038  0.63852  0.11200  Biso   1.000  H
  H151     1.0000 0.49392  0.65100  0.15729  Biso   1.000  H
  C97      1.0000 0.44537  0.71639  0.11139  Biso   1.000  C
  H152     1.0000 0.75822  0.64271  0.35040  Biso   1.000  H
  H153     1.0000 0.77672  0.68962  0.09128  Biso   1.000  H
  H154     1.0000 0.86718  0.64622  0.10110  Biso   1.000  H
  C98      1.0000 0.79178  0.62181  0.04679  Biso   1.000  C
  H155     1.0000 0.87344  0.56981  0.32700  Biso   1.000  H
  H156     1.0000 0.42218  0.67983  0.08480  Biso   1.000  H
  H157     1.0000 0.52502  0.70993  0.07399  Biso   1.000  H
  C99      1.0000 0.43583  0.76430  0.10899  Biso   1.000  C
  C100     1.0000 0.47960  0.73283  0.06891  Biso   1.000  C
  H158     1.0000 0.43970  0.75260  0.12890  Biso   1.000  H
  H159     1.0000 0.38019  0.69740  0.10960  Biso   1.000  H
  H160     1.0000 0.84205  0.64062  0.02880  Biso   1.000  H
  H161     1.0000 0.80461  0.57842  0.04759  Biso   1.000  H
  C101     1.0000 0.68901  0.63342  0.02800  Biso   1.000  C
  H162     1.0000 0.38713  0.75902  0.13159  Biso   1.000  H
  H163     1.0000 0.48952  0.78939  0.12011  Biso   1.000  H
  C102     1.0000 0.38608  0.79722  0.07060  Biso   1.000  C
  H164     1.0000 0.53934  0.75760  0.07070  Biso   1.000  H
  H165     1.0000 0.49482  0.69649  0.05239  Biso   1.000  H
  C103     1.0000 0.39302  0.76972  0.04698  Biso   1.000  C
  H166     1.0000 0.67992  0.67691  0.02471  Biso   1.000  H
  H167     1.0000 0.63920  0.61913  0.04810  Biso   1.000  H
  C104     1.0000 0.67164  0.60392  0.98658  Biso   1.000  C
  H168     1.0000 0.34134  0.76972  0.05641  Biso   1.000  H
  H169     1.0000 0.34969  0.83201  0.08061  Biso   1.000  H
  H170     1.0000 0.43672  0.81020  0.05079  Biso   1.000  H
  H171     1.0000 0.39242  0.81070  0.05760  Biso   1.000  H
  H172     1.0000 0.32993  0.75073  0.05350  Biso   1.000  H
  H173     1.0000 0.40242  0.77013  0.01659  Biso   1.000  H
  H174     1.0000 0.69811  0.62892  0.96407  Biso   1.000  H
  H175     1.0000 0.70400  0.56489  0.98610  Biso   1.000  H
  H176     1.0000 0.60124  0.59850  0.98229  Biso   1.000  H
  C105     1.0000 0.09397  0.33602  0.57928  Biso   1.000  C
  C106     1.0000 0.08599  0.29048  0.54438  Biso   1.000  C
  H177     1.0000 0.05452  0.33352  0.55438  Biso   1.000  H
  H178     1.0000 0.05504  0.33110  0.55368  Biso   1.000  H
  H179     1.0000 0.06003  0.33119  0.54559  Biso   1.000  H
  C107     1.0000 0.07167  0.27910  0.60600  Biso   1.000  C
  H180     1.0000 0.15079  0.34882  0.58069  Biso   1.000  H
  C108     1.0000 0.04997  0.29089  0.61620  Biso   1.000  C
  H181     1.0000 0.16191  0.32509  0.57350  Biso   1.000  H
  H182     1.0000 0.09031  0.37709  0.58890  Biso   1.000  H
  C109     1.0000 0.10978  0.31648  0.56979  Biso   1.000  C
  H183     1.0000 0.14841  0.29130  0.55100  Biso   1.000  H
  C110     1.0000 0.01380  0.24791  0.56589  Biso   1.000  C
  H184     1.0000 0.14893  0.28889  0.55879  Biso   1.000  H
  H185     1.0000 0.09419  0.27860  0.51510  Biso   1.000  H
  C111     1.0000 0.01999  0.21949  0.59638  Biso   1.000  C
  C112     1.0000 0.05220  0.23192  0.61128  Biso   1.000  C
  H186     1.0000 0.12768  0.27040  0.62470  Biso   1.000  H
  H187     1.0000 0.02551  0.30410  0.62208  Biso   1.000  H
  C113     1.0000 0.02297  0.23301  0.59149  Biso   1.000  C
  H188     1.0000 0.09949  0.28251  0.63790  Biso   1.000  H
  H189     1.0000 0.05713  0.26831  0.62879  Biso   1.000  H
  H190     1.0000 0.99135  0.30852  0.62969  Biso   1.000  H
  H191     1.0000 0.08144  0.21539  0.57839  Biso   1.000  H
  H192     1.0000 0.00723  0.21102  0.54908  Biso   1.000  H
  H193     1.0000 0.96920  0.22741  0.57510  Biso   1.000  H
  H194     1.0000 0.97382  0.24189  0.56950  Biso   1.000  H
  H195     1.0000 0.94869  0.26689  0.56778  Biso   1.000  H
  H196     1.0000 0.06891  0.19271  0.58318  Biso   1.000  H
  C114     1.0000 0.97464  0.18702  0.63065  Biso   1.000  C
  H197     1.0000 0.11738  0.21289  0.60981  Biso   1.000  H
  H198     1.0000 0.02118  0.18260  0.65407  Biso   1.000  H
  H199     1.0000 0.02163  0.18142  0.65388  Biso   1.000  H
  H200     1.0000 0.00373  0.16562  0.65468  Biso   1.000  H
  O13      1.0000 0.88799  0.22058  0.64448  Biso   1.000  O
  H201     1.0000 0.95510  0.14672  0.62118  Biso   1.000  H
  H202     1.0000 0.95622  0.14750  0.61920  Biso   1.000  H
  H203     1.0000 0.95540  0.15710  0.60929  Biso   1.000  H
  C115     1.0000 0.83213  0.19094  0.67501  Biso   1.000  C
  C116     1.0000 0.76329  0.14554  0.66130  Biso   1.000  C
  C117     1.0000 0.84324  0.20505  0.71742  Biso   1.000  C
  O14      1.0000 0.76270  0.12873  0.61939  Biso   1.000  O
  C118     1.0000 0.70453  0.11489  0.69038  Biso   1.000  C
  C119     1.0000 0.78291  0.17386  0.74836  Biso   1.000  C
  C120     1.0000 0.92229  0.24854  0.73190  Biso   1.000  C
  C121     1.0000 0.71042  0.16781  0.59076  Biso   1.000  C
  C122     1.0000 0.63950  0.06362  0.67552  Biso   1.000  C
  C123     1.0000 0.71310  0.12901  0.73468  Biso   1.000  C
  C124     1.0000 0.79201  0.18593  0.79253  Biso   1.000  C
  O15      1.0000 0.00000  0.21234  0.74999  Biso   1.000  O
  H204     1.0000 0.89574  0.27650  0.75300  Biso   1.000  H
  H205     1.0000 0.94735  0.27199  0.70790  Biso   1.000  H
  H206     1.0000 0.64569  0.17810  0.60258  Biso   1.000  H
  H207     1.0000 0.74771  0.20519  0.58660  Biso   1.000  H
  C125     1.0000 0.69781  0.13570  0.54930  Biso   1.000  C
  H208     1.0000 0.64039  0.15692  0.59098  Biso   1.000  H
  H209     1.0000 0.71594  0.20938  0.60098  Biso   1.000  H
  C126     1.0000 0.74711  0.16521  0.54658  Biso   1.000  C
  O16      1.0000 0.68775  0.00906  0.68946  Biso   1.000  O
  H210     1.0000 0.63331  0.06412  0.64458  Biso   1.000  H
  H211     1.0000 0.57350  0.06680  0.68799  Biso   1.000  H
  C127     1.0000 0.65568  0.09868  0.76604  Biso   1.000  C
  C128     1.0000 0.73480  0.15528  0.82181  Biso   1.000  C
  H212     1.0000 0.83742  0.21498  0.80190  Biso   1.000  H
  C129     1.0000 0.07771  0.24854  0.76808  Biso   1.000  C
  H213     1.0000 0.67253  0.09481  0.55349  Biso   1.000  H
  H214     1.0000 0.65285  0.15779  0.53060  Biso   1.000  H
  C130     1.0000 0.81483  0.13438  0.52888  Biso   1.000  C
  C131     1.0000 0.73480  0.09658  0.52949  Biso   1.000  C
  H215     1.0000 0.70923  0.19290  0.52878  Biso   1.000  H
  H216     1.0000 0.81669  0.17719  0.54559  Biso   1.000  H
  C132     1.0000 0.64061  0.95496  0.67447  Biso   1.000  C
  H217     1.0000 0.60981  0.06931  0.75760  Biso   1.000  H
  C133     1.0000 0.66619  0.11152  0.80835  Biso   1.000  C
  H218     1.0000 0.74174  0.16371  0.85080  Biso   1.000  H
  C134     1.0000 0.15683  0.20505  0.78256  Biso   1.000  C
  H219     1.0000 0.10433  0.27650  0.74699  Biso   1.000  H
  H220     1.0000 0.05273  0.27199  0.79209  Biso   1.000  H
  C135     1.0000 0.80513  0.09772  0.48889  Biso   1.000  C
  H221     1.0000 0.86084  0.11521  0.54869  Biso   1.000  H
  H222     1.0000 0.83809  0.17518  0.52268  Biso   1.000  H
  C136     1.0000 0.83101  0.09271  0.49848  Biso   1.000  C
  H223     1.0000 0.73853  0.06712  0.55259  Biso   1.000  H
  H224     1.0000 0.67291  0.09112  0.51389  Biso   1.000  H
  C137     1.0000 0.70423  0.90319  0.68949  Biso   1.000  C
  H225     1.0000 0.57372  0.95159  0.68610  Biso   1.000  H
  H226     1.0000 0.63629  0.95510  0.64349  Biso   1.000  H
  H227     1.0000 0.62749  0.09112  0.82840  Biso   1.000  H
  C138     1.0000 0.16787  0.19094  0.82498  Biso   1.000  C
  C139     1.0000 0.21709  0.17386  0.75162  Biso   1.000  C
  H228     1.0000 0.86904  0.09472  0.47518  Biso   1.000  H
  H229     1.0000 0.75874  0.11730  0.46991  Biso   1.000  H
  H230     1.0000 0.78134  0.05770  0.49570  Biso   1.000  H
  H231     1.0000 0.82661  0.05628  0.48148  Biso   1.000  H
  H232     1.0000 0.83190  0.12760  0.48001  Biso   1.000  H
  H233     1.0000 0.89030  0.09171  0.51539  Biso   1.000  H
  C140     1.0000 0.76329  0.87222  0.66066  Biso   1.000  C
  C141     1.0000 0.71221  0.88939  0.73385  Biso   1.000  C
  O17      1.0000 0.11201  0.22058  0.85550  Biso   1.000  O
  C142     1.0000 0.23671  0.14554  0.83866  Biso   1.000  C
  C143     1.0000 0.28690  0.12901  0.76530  Biso   1.000  C
  C144     1.0000 0.20799  0.18593  0.70745  Biso   1.000  C
  O18      1.0000 0.76352  0.88848  0.61850  Biso   1.000  O
  C145     1.0000 0.83198  0.82682  0.67491  Biso   1.000  C
  C146     1.0000 0.78194  0.84449  0.74801  Biso   1.000  C
  C147     1.0000 0.65441  0.92013  0.76498  Biso   1.000  C
  C148     1.0000 0.02543  0.18702  0.86934  Biso   1.000  C
  O19      1.0000 0.23730  0.12873  0.88059  Biso   1.000  O
  C149     1.0000 0.29547  0.11489  0.80960  Biso   1.000  C
  C150     1.0000 0.34432  0.09868  0.73395  Biso   1.000  C
  C151     1.0000 0.26520  0.15528  0.67817  Biso   1.000  C
  H234     1.0000 0.16258  0.21498  0.69809  Biso   1.000  H
  C152     1.0000 0.70132  0.85250  0.59111  Biso   1.000  C
  O20      1.0000 0.88784  0.79699  0.64461  Biso   1.000  O
  C153     1.0000 0.84264  0.81357  0.71745  Biso   1.000  C
  C154     1.0000 0.79141  0.83393  0.79250  Biso   1.000  C
  C155     1.0000 0.66500  0.90902  0.80727  Biso   1.000  C
  H235     1.0000 0.60780  0.94882  0.75610  Biso   1.000  H
  H236     1.0000 0.04490  0.14672  0.87880  Biso   1.000  H
  H237     1.0000 0.04378  0.14750  0.88078  Biso   1.000  H
  H238     1.0000 0.04460  0.15710  0.89069  Biso   1.000  H
  H239     1.0000 0.97882  0.18260  0.84588  Biso   1.000  H
  C156     1.0000 0.98001  0.21949  0.90357  Biso   1.000  C
  H240     1.0000 0.97845  0.18142  0.84610  Biso   1.000  H
  H241     1.0000 0.99635  0.16562  0.84527  Biso   1.000  H
  C157     1.0000 0.97703  0.23301  0.90849  Biso   1.000  C
  C158     1.0000 0.94780  0.23192  0.88868  Biso   1.000  C
  C159     1.0000 0.28958  0.16781  0.90923  Biso   1.000  C
  C160     1.0000 0.36050  0.06362  0.82446  Biso   1.000  C
  H242     1.0000 0.39019  0.06931  0.74239  Biso   1.000  H
  C161     1.0000 0.33381  0.11152  0.69163  Biso   1.000  C
  H243     1.0000 0.25833  0.16371  0.64918  Biso   1.000  H
  H244     1.0000 0.72332  0.81043  0.59130  Biso   1.000  H
  H245     1.0000 0.63278  0.85383  0.60108  Biso   1.000  H
  C162     1.0000 0.70818  0.87823  0.54678  Biso   1.000  C
  C163     1.0000 0.97673  0.82992  0.63234  Biso   1.000  C
  C164     1.0000 0.92199  0.76985  0.73209  Biso   1.000  C
  H246     1.0000 0.83712  0.80533  0.80219  Biso   1.000  H
  C165     1.0000 0.73458  0.86512  0.82133  Biso   1.000  C
  H247     1.0000 0.62659  0.93019  0.82699  Biso   1.000  H
  H248     1.0000 0.03080  0.22741  0.92489  Biso   1.000  H
  H249     1.0000 0.02618  0.24189  0.93048  Biso   1.000  H
  H250     1.0000 0.93109  0.19271  0.91677  Biso   1.000  H
  C166     1.0000 0.92833  0.27910  0.89398  Biso   1.000  C
  H251     1.0000 0.91864  0.21539  0.92160  Biso   1.000  H
  C167     1.0000 0.95003  0.29089  0.88379  Biso   1.000  C
  C168     1.0000 0.98620  0.24791  0.93409  Biso   1.000  C
  H252     1.0000 0.88262  0.21289  0.89018  Biso   1.000  H
  H253     1.0000 0.94295  0.26831  0.87119  Biso   1.000  H
  H254     1.0000 0.35431  0.17810  0.89740  Biso   1.000  H
  H255     1.0000 0.25229  0.20519  0.91338  Biso   1.000  H
  C169     1.0000 0.30219  0.13570  0.95068  Biso   1.000  C
  H256     1.0000 0.35961  0.15692  0.90897  Biso   1.000  H
  H257     1.0000 0.28414  0.20938  0.89900  Biso   1.000  H
  C170     1.0000 0.25289  0.16521  0.95340  Biso   1.000  C
  O21      1.0000 0.31233  0.00906  0.81053  Biso   1.000  O
  H258     1.0000 0.36669  0.06412  0.85537  Biso   1.000  H
  H259     1.0000 0.42650  0.06680  0.81200  Biso   1.000  H
  H260     1.0000 0.37251  0.09112  0.67159  Biso   1.000  H
  H261     1.0000 0.65799  0.85943  0.52878  Biso   1.000  H
  H262     1.0000 0.69543  0.92163  0.54758  Biso   1.000  H
  C171     1.0000 0.81102  0.86662  0.52798  Biso   1.000  C
  H263     1.0000 0.95950  0.87081  0.62329  Biso   1.000  H
  H264     1.0000 0.95958  0.86152  0.61198  Biso   1.000  H
  H265     1.0000 0.02230  0.83270  0.65628  Biso   1.000  H
  C172     1.0000 0.02401  0.79581  0.59648  Biso   1.000  C
  H266     1.0000 0.00612  0.84900  0.65730  Biso   1.000  H
  C173     1.0000 0.05459  0.78361  0.61140  Biso   1.000  C
  H267     1.0000 0.94690  0.74622  0.70819  Biso   1.000  H
  H268     1.0000 0.89552  0.74212  0.75338  Biso   1.000  H
  O22      1.0000 0.00000  0.80624  0.74999  Biso   1.000  O
  H269     1.0000 0.74182  0.85733  0.85039  Biso   1.000  H
  H270     1.0000 0.87232  0.27040  0.87528  Biso   1.000  H
  H271     1.0000 0.97449  0.30410  0.87787  Biso   1.000  H
  C174     1.0000 0.89022  0.31648  0.93019  Biso   1.000  C
  H272     1.0000 0.90051  0.28251  0.86208  Biso   1.000  H
  C175     1.0000 0.90603  0.33602  0.92067  Biso   1.000  C
  H273     1.0000 0.00873  0.30852  0.87030  Biso   1.000  H
  H274     1.0000 0.05131  0.26689  0.93218  Biso   1.000  H
  H275     1.0000 0.99284  0.21102  0.95087  Biso   1.000  H
  C176     1.0000 0.91401  0.29048  0.95557  Biso   1.000  C
  H276     1.0000 0.32754  0.09481  0.94650  Biso   1.000  H
  H277     1.0000 0.34723  0.15779  0.96938  Biso   1.000  H
  C177     1.0000 0.18517  0.13438  0.97107  Biso   1.000  C
  C178     1.0000 0.26520  0.09658  0.97050  Biso   1.000  C
  H278     1.0000 0.29077  0.19290  0.97117  Biso   1.000  H
  H279     1.0000 0.18331  0.17719  0.95439  Biso   1.000  H
  C179     1.0000 0.35939  0.95496  0.82552  Biso   1.000  C
  H280     1.0000 0.82012  0.82313  0.52469  Biso   1.000  H
  H281     1.0000 0.86084  0.88092  0.54809  Biso   1.000  H
  C180     1.0000 0.82840  0.89613  0.48659  Biso   1.000  C
  H282     1.0000 0.97502  0.79012  0.57398  Biso   1.000  H
  H283     1.0000 0.07778  0.82022  0.58478  Biso   1.000  H
  C181     1.0000 0.06421  0.73570  0.60897  Biso   1.000  C
  C182     1.0000 0.02043  0.76721  0.56889  Biso   1.000  C
  H284     1.0000 0.06033  0.74740  0.62889  Biso   1.000  H
  H285     1.0000 0.11977  0.80260  0.60958  Biso   1.000  H
  C183     1.0000 0.07801  0.76985  0.76789  Biso   1.000  C
  H286     1.0000 0.84921  0.34882  0.91930  Biso   1.000  H
  H287     1.0000 0.85159  0.29130  0.94899  Biso   1.000  H
  H288     1.0000 0.94548  0.33352  0.94560  Biso   1.000  H
  H289     1.0000 0.83809  0.32509  0.92649  Biso   1.000  H
  H290     1.0000 0.94504  0.33110  0.94627  Biso   1.000  H
  H291     1.0000 0.85114  0.28889  0.94119  Biso   1.000  H
  H292     1.0000 0.94004  0.33119  0.95439  Biso   1.000  H
  H293     1.0000 0.90969  0.37709  0.91108  Biso   1.000  H
  H294     1.0000 0.90581  0.27860  0.98488  Biso   1.000  H
  H295     1.0000 0.13923  0.11521  0.95129  Biso   1.000  H
  H296     1.0000 0.16191  0.17518  0.97727  Biso   1.000  H
  C184     1.0000 0.19487  0.09772  0.01109  Biso   1.000  C
  C185     1.0000 0.16899  0.09271  0.00150  Biso   1.000  C
  H297     1.0000 0.26154  0.06712  0.94739  Biso   1.000  H
  H298     1.0000 0.32709  0.09112  0.98610  Biso   1.000  H
  C186     1.0000 0.29577  0.90319  0.81046  Biso   1.000  C
  H299     1.0000 0.42628  0.95159  0.81388  Biso   1.000  H
  H300     1.0000 0.36371  0.95510  0.85649  Biso   1.000  H
  H301     1.0000 0.80192  0.87113  0.46409  Biso   1.000  H
  H302     1.0000 0.79603  0.93511  0.48608  Biso   1.000  H
  H303     1.0000 0.89880  0.90150  0.48228  Biso   1.000  H
  H304     1.0000 0.11291  0.74103  0.63160  Biso   1.000  H
  H305     1.0000 0.01052  0.71061  0.62010  Biso   1.000  H
  C187     1.0000 0.11388  0.70282  0.57059  Biso   1.000  C
  H306     1.0000 0.96070  0.74240  0.57068  Biso   1.000  H
  H307     1.0000 0.00522  0.80351  0.55240  Biso   1.000  H
  C188     1.0000 0.10702  0.73033  0.54700  Biso   1.000  C
  H308     1.0000 0.05310  0.74622  0.79180  Biso   1.000  H
  H309     1.0000 0.10448  0.74212  0.74660  Biso   1.000  H
  C189     1.0000 0.15743  0.81357  0.78250  Biso   1.000  C
  H310     1.0000 0.13103  0.09472  0.02480  Biso   1.000  H
  H311     1.0000 0.24133  0.11730  0.03011  Biso   1.000  H
  H312     1.0000 0.21873  0.05770  0.00431  Biso   1.000  H
  H313     1.0000 0.17339  0.05628  0.01851  Biso   1.000  H
  H314     1.0000 0.16810  0.12760  0.02001  Biso   1.000  H
  H315     1.0000 0.10970  0.09171  0.98459  Biso   1.000  H
  C190     1.0000 0.23671  0.87222  0.83929  Biso   1.000  C
  C191     1.0000 0.28779  0.88939  0.76613  Biso   1.000  C
  H316     1.0000 0.15870  0.73033  0.55640  Biso   1.000  H
  H317     1.0000 0.15027  0.66799  0.58059  Biso   1.000  H
  H318     1.0000 0.06332  0.68980  0.55080  Biso   1.000  H
  H319     1.0000 0.10761  0.68930  0.55758  Biso   1.000  H
  H320     1.0000 0.17011  0.74932  0.55349  Biso   1.000  H
  H321     1.0000 0.09762  0.72992  0.51660  Biso   1.000  H
  C192     1.0000 0.16802  0.82682  0.82507  Biso   1.000  C
  C193     1.0000 0.21814  0.84449  0.75197  Biso   1.000  C
  O23      1.0000 0.23648  0.88848  0.88148  Biso   1.000  O
  C194     1.0000 0.34559  0.92013  0.73500  Biso   1.000  C
  O24      1.0000 0.11224  0.79699  0.85537  Biso   1.000  O
  C195     1.0000 0.20859  0.83393  0.70748  Biso   1.000  C
  C196     1.0000 0.29868  0.85250  0.90884  Biso   1.000  C
  C197     1.0000 0.33500  0.90902  0.69272  Biso   1.000  C
  H322     1.0000 0.39220  0.94882  0.74389  Biso   1.000  H
  C198     1.0000 0.02327  0.82992  0.86764  Biso   1.000  C
  H323     1.0000 0.16288  0.80533  0.69780  Biso   1.000  H
  C199     1.0000 0.26542  0.86512  0.67865  Biso   1.000  C
  H324     1.0000 0.27668  0.81043  0.90868  Biso   1.000  H
  H325     1.0000 0.36722  0.85383  0.89887  Biso   1.000  H
  C200     1.0000 0.29182  0.87823  0.95318  Biso   1.000  C
  H326     1.0000 0.37341  0.93019  0.67300  Biso   1.000  H
  H327     1.0000 0.97770  0.83270  0.84367  Biso   1.000  H
  C201     1.0000 0.97599  0.79581  0.90347  Biso   1.000  C
  H328     1.0000 0.99388  0.84900  0.84268  Biso   1.000  H
  C202     1.0000 0.94541  0.78361  0.88858  Biso   1.000  C
  H329     1.0000 0.04050  0.87081  0.87669  Biso   1.000  H
  H330     1.0000 0.04042  0.86152  0.88797  Biso   1.000  H
  H331     1.0000 0.25818  0.85733  0.64960  Biso   1.000  H
  H332     1.0000 0.34201  0.85943  0.97117  Biso   1.000  H
  H333     1.0000 0.30457  0.92163  0.95238  Biso   1.000  H
  C203     1.0000 0.18898  0.86662  0.97197  Biso   1.000  C
  H334     1.0000 0.92222  0.82022  0.91517  Biso   1.000  H
  C204     1.0000 0.93579  0.73570  0.89098  Biso   1.000  C
  C205     1.0000 0.97964  0.76721  0.93109  Biso   1.000  C
  H335     1.0000 0.02498  0.79012  0.92598  Biso   1.000  H
  H336     1.0000 0.93974  0.74740  0.87110  Biso   1.000  H
  H337     1.0000 0.88023  0.80260  0.89037  Biso   1.000  H
  H338     1.0000 0.17988  0.82313  0.97529  Biso   1.000  H
  H339     1.0000 0.13923  0.88092  0.95190  Biso   1.000  H
  C206     1.0000 0.17160  0.89613  0.01339  Biso   1.000  C
  H340     1.0000 0.88709  0.74103  0.86838  Biso   1.000  H
  H341     1.0000 0.98948  0.71061  0.87989  Biso   1.000  H
  C207     1.0000 0.88612  0.70282  0.92940  Biso   1.000  C
  H342     1.0000 0.99478  0.80351  0.94758  Biso   1.000  H
  C208     1.0000 0.89298  0.73033  0.95298  Biso   1.000  C
  H343     1.0000 0.03930  0.74240  0.92930  Biso   1.000  H
  H344     1.0000 0.19808  0.87113  0.03589  Biso   1.000  H
  H345     1.0000 0.20397  0.93511  0.01390  Biso   1.000  H
  H346     1.0000 0.10120  0.90150  0.01771  Biso   1.000  H
  H347     1.0000 0.84130  0.73033  0.94359  Biso   1.000  H
  H348     1.0000 0.84973  0.66799  0.91939  Biso   1.000  H
  H349     1.0000 0.93668  0.68980  0.94918  Biso   1.000  H
  H350     1.0000 0.89239  0.68930  0.94237  Biso   1.000  H
  H351     1.0000 0.82989  0.74932  0.94650  Biso   1.000  H
  H352     1.0000 0.90238  0.72992  0.98338  Biso   1.000  H
  C209     1.0000 0.66903  0.59271  0.49848  Biso   1.000  C
  C210     1.0000 0.68521  0.63443  0.52888  Biso   1.000  C
  C211     1.0000 0.76523  0.59663  0.52949  Biso   1.000  C
  H353     1.0000 0.63099  0.59472  0.47518  Biso   1.000  H
  H354     1.0000 0.71870  0.55770  0.49570  Biso   1.000  H
  H355     1.0000 0.67343  0.55633  0.48148  Biso   1.000  H
  H356     1.0000 0.66813  0.62760  0.48001  Biso   1.000  H
  H357     1.0000 0.60974  0.59171  0.51539  Biso   1.000  H
  C212     1.0000 0.80222  0.63570  0.54930  Biso   1.000  C
  C213     1.0000 0.75293  0.66521  0.54658  Biso   1.000  C
  H358     1.0000 0.68335  0.67723  0.54559  Biso   1.000  H
  C214     1.0000 0.69491  0.59772  0.48889  Biso   1.000  C
  H359     1.0000 0.63920  0.61521  0.54869  Biso   1.000  H
  H360     1.0000 0.66194  0.67523  0.52268  Biso   1.000  H
  H361     1.0000 0.82750  0.59481  0.55349  Biso   1.000  H
  H362     1.0000 0.76150  0.56712  0.55259  Biso   1.000  H
  H363     1.0000 0.82713  0.59112  0.51389  Biso   1.000  H
  C215     1.0000 0.78962  0.66781  0.59076  Biso   1.000  C
  H364     1.0000 0.84719  0.65779  0.53060  Biso   1.000  H
  H365     1.0000 0.79081  0.69290  0.52878  Biso   1.000  H
  H366     1.0000 0.74129  0.61730  0.46991  Biso   1.000  H
  O25      1.0000 0.73734  0.62873  0.61939  Biso   1.000  O
  H367     1.0000 0.85428  0.67810  0.60258  Biso   1.000  H
  H368     1.0000 0.75233  0.70519  0.58660  Biso   1.000  H
  H369     1.0000 0.85965  0.65692  0.59098  Biso   1.000  H
  H370     1.0000 0.78410  0.70943  0.60098  Biso   1.000  H
  C216     1.0000 0.73674  0.64554  0.66130  Biso   1.000  C
  C217     1.0000 0.79551  0.61489  0.69038  Biso   1.000  C
  C218     1.0000 0.66791  0.69094  0.67501  Biso   1.000  C
  C219     1.0000 0.86054  0.56362  0.67552  Biso   1.000  C
  C220     1.0000 0.78693  0.62901  0.73468  Biso   1.000  C
  O26      1.0000 0.61198  0.72058  0.64448  Biso   1.000  O
  C221     1.0000 0.65680  0.70505  0.71742  Biso   1.000  C
  O27      1.0000 0.81229  0.50906  0.68946  Biso   1.000  O
  H371     1.0000 0.86673  0.56412  0.64458  Biso   1.000  H
  H372     1.0000 0.92654  0.56680  0.68799  Biso   1.000  H
  C222     1.0000 0.71713  0.67386  0.74836  Biso   1.000  C
  C223     1.0000 0.84428  0.59872  0.76604  Biso   1.000  C
  C224     1.0000 0.52539  0.68702  0.63065  Biso   1.000  C
  C225     1.0000 0.57767  0.74859  0.73190  Biso   1.000  C
  C226     1.0000 0.85942  0.45496  0.67447  Biso   1.000  C
  C227     1.0000 0.70803  0.68593  0.79253  Biso   1.000  C
  H373     1.0000 0.89022  0.56931  0.75760  Biso   1.000  H
  C228     1.0000 0.83384  0.61152  0.80835  Biso   1.000  C
  H374     1.0000 0.54493  0.64672  0.62118  Biso   1.000  H
  H375     1.0000 0.47878  0.68260  0.65407  Biso   1.000  H
  C229     1.0000 0.47998  0.71949  0.59638  Biso   1.000  C
  H376     1.0000 0.47841  0.68142  0.65388  Biso   1.000  H
  H377     1.0000 0.54381  0.64750  0.61920  Biso   1.000  H
  H378     1.0000 0.49631  0.66562  0.65468  Biso   1.000  H
  H379     1.0000 0.54463  0.65710  0.60929  Biso   1.000  H
  C230     1.0000 0.47699  0.73301  0.59149  Biso   1.000  C
  C231     1.0000 0.44783  0.73192  0.61128  Biso   1.000  C
  O28      1.0000 0.50004  0.71234  0.74999  Biso   1.000  O
  H380     1.0000 0.60430  0.77650  0.75300  Biso   1.000  H
  H381     1.0000 0.55269  0.77199  0.70790  Biso   1.000  H
  C232     1.0000 0.79581  0.40319  0.68949  Biso   1.000  C
  H382     1.0000 0.92632  0.45159  0.68610  Biso   1.000  H
  H383     1.0000 0.86375  0.45510  0.64349  Biso   1.000  H
  C233     1.0000 0.76523  0.65533  0.82181  Biso   1.000  C
  H384     1.0000 0.66261  0.71503  0.80190  Biso   1.000  H
  H385     1.0000 0.87255  0.59112  0.82840  Biso   1.000  H
  H386     1.0000 0.43113  0.69271  0.58318  Biso   1.000  H
  H387     1.0000 0.53084  0.72741  0.57510  Biso   1.000  H
  C234     1.0000 0.42829  0.77910  0.60600  Biso   1.000  C
  H388     1.0000 0.52621  0.74189  0.56950  Biso   1.000  H
  H389     1.0000 0.41860  0.71539  0.57839  Biso   1.000  H
  C235     1.0000 0.45000  0.79089  0.61620  Biso   1.000  C
  C236     1.0000 0.48624  0.74791  0.56589  Biso   1.000  C
  H390     1.0000 0.38258  0.71289  0.60981  Biso   1.000  H
  H391     1.0000 0.44291  0.76831  0.62879  Biso   1.000  H
  C237     1.0000 0.42233  0.74859  0.76808  Biso   1.000  C
  C238     1.0000 0.73674  0.37222  0.66066  Biso   1.000  C
  C239     1.0000 0.78783  0.38939  0.73385  Biso   1.000  C
  H392     1.0000 0.75830  0.66371  0.85080  Biso   1.000  H
  H393     1.0000 0.37229  0.77040  0.62470  Biso   1.000  H
  H394     1.0000 0.47453  0.80410  0.62208  Biso   1.000  H
  C240     1.0000 0.39019  0.81653  0.56979  Biso   1.000  C
  H395     1.0000 0.40048  0.78251  0.63790  Biso   1.000  H
  C241     1.0000 0.40600  0.83602  0.57928  Biso   1.000  C
  H396     1.0000 0.50869  0.80852  0.62969  Biso   1.000  H
  H397     1.0000 0.55127  0.76689  0.56778  Biso   1.000  H
  H398     1.0000 0.49280  0.71102  0.54908  Biso   1.000  H
  C242     1.0000 0.41398  0.79053  0.54438  Biso   1.000  C
  C243     1.0000 0.34320  0.70505  0.78256  Biso   1.000  C
  H399     1.0000 0.39570  0.77650  0.74699  Biso   1.000  H
  H400     1.0000 0.44731  0.77199  0.79209  Biso   1.000  H
  C244     1.0000 0.66798  0.32678  0.67491  Biso   1.000  C
  O29      1.0000 0.73652  0.38848  0.61850  Biso   1.000  O
  C245     1.0000 0.71810  0.34449  0.74801  Biso   1.000  C
  C246     1.0000 0.84563  0.42013  0.76498  Biso   1.000  C
  H401     1.0000 0.34917  0.84882  0.58069  Biso   1.000  H
  H402     1.0000 0.35163  0.79130  0.55100  Biso   1.000  H
  H403     1.0000 0.44552  0.83352  0.55438  Biso   1.000  H
  H404     1.0000 0.33813  0.82509  0.57350  Biso   1.000  H
  H405     1.0000 0.44500  0.83110  0.55368  Biso   1.000  H
  H406     1.0000 0.35111  0.78889  0.55879  Biso   1.000  H
  H407     1.0000 0.44000  0.83119  0.54559  Biso   1.000  H
  H408     1.0000 0.40972  0.87709  0.58890  Biso   1.000  H
  H409     1.0000 0.40577  0.77860  0.51510  Biso   1.000  H
  C247     1.0000 0.33209  0.69094  0.82498  Biso   1.000  C
  C248     1.0000 0.28287  0.67386  0.75162  Biso   1.000  C
  O30      1.0000 0.61220  0.29699  0.64461  Biso   1.000  O
  C249     1.0000 0.65739  0.31357  0.71745  Biso   1.000  C
  C250     1.0000 0.79872  0.35250  0.59111  Biso   1.000  C
  C251     1.0000 0.70863  0.33393  0.79250  Biso   1.000  C
  C252     1.0000 0.83504  0.40902  0.80727  Biso   1.000  C
  H410     1.0000 0.89224  0.44882  0.75610  Biso   1.000  H
  C253     1.0000 0.26333  0.64554  0.83866  Biso   1.000  C
  O31      1.0000 0.38802  0.72058  0.85550  Biso   1.000  O
  C254     1.0000 0.21314  0.62901  0.76530  Biso   1.000  C
  C255     1.0000 0.29197  0.68593  0.70745  Biso   1.000  C
  C256     1.0000 0.52331  0.32992  0.63234  Biso   1.000  C
  C257     1.0000 0.57804  0.26985  0.73209  Biso   1.000  C
  H411     1.0000 0.77672  0.31038  0.59130  Biso   1.000  H
  H412     1.0000 0.86718  0.35383  0.60108  Biso   1.000  H
  C258     1.0000 0.79178  0.37819  0.54678  Biso   1.000  C
  H413     1.0000 0.66291  0.30528  0.80219  Biso   1.000  H
  C259     1.0000 0.76538  0.36512  0.82133  Biso   1.000  C
  H414     1.0000 0.87344  0.43019  0.82699  Biso   1.000  H
  C260     1.0000 0.20449  0.61489  0.80960  Biso   1.000  C
  O32      1.0000 0.26273  0.62873  0.88059  Biso   1.000  O
  C261     1.0000 0.47461  0.68702  0.86934  Biso   1.000  C
  C262     1.0000 0.15572  0.59872  0.73395  Biso   1.000  C
  C263     1.0000 0.23477  0.65533  0.67817  Biso   1.000  C
  H415     1.0000 0.33739  0.71503  0.69809  Biso   1.000  H
  C264     1.0000 0.47602  0.29581  0.59648  Biso   1.000  C
  C265     1.0000 0.44537  0.28361  0.61140  Biso   1.000  C
  H416     1.0000 0.54053  0.37081  0.62329  Biso   1.000  H
  H417     1.0000 0.47774  0.33270  0.65628  Biso   1.000  H
  H418     1.0000 0.54038  0.36152  0.61198  Biso   1.000  H
  H419     1.0000 0.49392  0.34900  0.65730  Biso   1.000  H
  O33      1.0000 0.50004  0.30624  0.74999  Biso   1.000  O
  H420     1.0000 0.55314  0.24622  0.70819  Biso   1.000  H
  H421     1.0000 0.60452  0.24212  0.75338  Biso   1.000  H
  H422     1.0000 0.84205  0.35943  0.52878  Biso   1.000  H
  H423     1.0000 0.80461  0.42158  0.54758  Biso   1.000  H
  C266     1.0000 0.68901  0.36662  0.52798  Biso   1.000  C
  H424     1.0000 0.75822  0.35729  0.85039  Biso   1.000  H
  C267     1.0000 0.13953  0.56362  0.82446  Biso   1.000  C
  C268     1.0000 0.21038  0.66781  0.90923  Biso   1.000  C
  H425     1.0000 0.45514  0.64672  0.87880  Biso   1.000  H
  H426     1.0000 0.52122  0.68260  0.84588  Biso   1.000  H
  C269     1.0000 0.52002  0.71949  0.90357  Biso   1.000  C
  H427     1.0000 0.52159  0.68142  0.84610  Biso   1.000  H
  H428     1.0000 0.45619  0.64750  0.88078  Biso   1.000  H
  H429     1.0000 0.50369  0.66562  0.84527  Biso   1.000  H
  H430     1.0000 0.45544  0.65710  0.89069  Biso   1.000  H
  C270     1.0000 0.52301  0.73301  0.90849  Biso   1.000  C
  C271     1.0000 0.55224  0.73192  0.88868  Biso   1.000  C
  H431     1.0000 0.10978  0.56931  0.74239  Biso   1.000  H
  C272     1.0000 0.16623  0.61152  0.69163  Biso   1.000  C
  H432     1.0000 0.24170  0.66371  0.64918  Biso   1.000  H
  C273     1.0000 0.47960  0.26721  0.56889  Biso   1.000  C
  H433     1.0000 0.52502  0.29012  0.57398  Biso   1.000  H
  C274     1.0000 0.43583  0.23570  0.60897  Biso   1.000  C
  H434     1.0000 0.42218  0.32022  0.58478  Biso   1.000  H
  H435     1.0000 0.43970  0.24740  0.62889  Biso   1.000  H
  H436     1.0000 0.38019  0.30260  0.60958  Biso   1.000  H
  C275     1.0000 0.42203  0.26985  0.76789  Biso   1.000  C
  H437     1.0000 0.67992  0.32309  0.52469  Biso   1.000  H
  H438     1.0000 0.63920  0.38092  0.54809  Biso   1.000  H
  C276     1.0000 0.67164  0.39608  0.48659  Biso   1.000  C
  O34      1.0000 0.18771  0.50906  0.81053  Biso   1.000  O
  H439     1.0000 0.13327  0.56412  0.85537  Biso   1.000  H
  H440     1.0000 0.07353  0.56680  0.81200  Biso   1.000  H
  H441     1.0000 0.14572  0.67810  0.89740  Biso   1.000  H
  H442     1.0000 0.24767  0.70519  0.91338  Biso   1.000  H
  C277     1.0000 0.19778  0.63570  0.95068  Biso   1.000  C
  H443     1.0000 0.14043  0.65692  0.90897  Biso   1.000  H
  H444     1.0000 0.21590  0.70943  0.89900  Biso   1.000  H
  C278     1.0000 0.24707  0.66521  0.95340  Biso   1.000  C
  H445     1.0000 0.56887  0.69271  0.91677  Biso   1.000  H
  H446     1.0000 0.46924  0.72741  0.92489  Biso   1.000  H
  C279     1.0000 0.57171  0.77910  0.89398  Biso   1.000  C
  H447     1.0000 0.47379  0.74189  0.93048  Biso   1.000  H
  H448     1.0000 0.58140  0.71539  0.92160  Biso   1.000  H
  C280     1.0000 0.55000  0.79089  0.88379  Biso   1.000  C
  C281     1.0000 0.51383  0.74791  0.93409  Biso   1.000  C
  H449     1.0000 0.61742  0.71289  0.89018  Biso   1.000  H
  H450     1.0000 0.55709  0.76831  0.87119  Biso   1.000  H
  H451     1.0000 0.12753  0.59112  0.67159  Biso   1.000  H
  C282     1.0000 0.39302  0.23028  0.54700  Biso   1.000  C
  H452     1.0000 0.53934  0.24240  0.57068  Biso   1.000  H
  H453     1.0000 0.49482  0.30351  0.55240  Biso   1.000  H
  H454     1.0000 0.38713  0.24098  0.63160  Biso   1.000  H
  H455     1.0000 0.48952  0.21061  0.62010  Biso   1.000  H
  C283     1.0000 0.38608  0.20282  0.57059  Biso   1.000  C
  H456     1.0000 0.44694  0.24622  0.79180  Biso   1.000  H
  H457     1.0000 0.39548  0.24212  0.74660  Biso   1.000  H
  C284     1.0000 0.34261  0.31357  0.78250  Biso   1.000  C
  H458     1.0000 0.69811  0.37108  0.46409  Biso   1.000  H
  H459     1.0000 0.70400  0.43511  0.48608  Biso   1.000  H
  H460     1.0000 0.60124  0.40150  0.48228  Biso   1.000  H
  C285     1.0000 0.14058  0.45496  0.82552  Biso   1.000  C
  H461     1.0000 0.17250  0.59481  0.94650  Biso   1.000  H
  H462     1.0000 0.15281  0.65779  0.96938  Biso   1.000  H
  C286     1.0000 0.31479  0.63443  0.97107  Biso   1.000  C
  C287     1.0000 0.23477  0.59663  0.97050  Biso   1.000  C
  H463     1.0000 0.20919  0.69290  0.97117  Biso   1.000  H
  H464     1.0000 0.31673  0.67723  0.95439  Biso   1.000  H
  H465     1.0000 0.62771  0.77040  0.87528  Biso   1.000  H
  H466     1.0000 0.52554  0.80410  0.87787  Biso   1.000  H
  C288     1.0000 0.60981  0.81653  0.93019  Biso   1.000  C
  H467     1.0000 0.59952  0.78251  0.86208  Biso   1.000  H
  C289     1.0000 0.59400  0.83602  0.92067  Biso   1.000  C
  H468     1.0000 0.49131  0.80852  0.87030  Biso   1.000  H
  H469     1.0000 0.44873  0.76689  0.93218  Biso   1.000  H
  H470     1.0000 0.50720  0.71102  0.95087  Biso   1.000  H
  C290     1.0000 0.58602  0.79053  0.95557  Biso   1.000  C
  H471     1.0000 0.34134  0.23028  0.55640  Biso   1.000  H
  H472     1.0000 0.43672  0.18980  0.55080  Biso   1.000  H
  H473     1.0000 0.32993  0.24932  0.55349  Biso   1.000  H
  H474     1.0000 0.39242  0.18930  0.55758  Biso   1.000  H
  H475     1.0000 0.40242  0.22992  0.51660  Biso   1.000  H
  H476     1.0000 0.34969  0.16799  0.58059  Biso   1.000  H
  C291     1.0000 0.33202  0.32678  0.82507  Biso   1.000  C
  C292     1.0000 0.28190  0.34449  0.75197  Biso   1.000  C
  C293     1.0000 0.20419  0.40319  0.81046  Biso   1.000  C
  H477     1.0000 0.07368  0.45159  0.81388  Biso   1.000  H
  H478     1.0000 0.13633  0.45510  0.85649  Biso   1.000  H
  H479     1.0000 0.36080  0.61521  0.95129  Biso   1.000  H
  H480     1.0000 0.33813  0.67523  0.97727  Biso   1.000  H
  C294     1.0000 0.30509  0.59772  0.01109  Biso   1.000  C
  C295     1.0000 0.33097  0.59271  0.00150  Biso   1.000  C
  H481     1.0000 0.23850  0.56712  0.94739  Biso   1.000  H
  H482     1.0000 0.17287  0.59112  0.98610  Biso   1.000  H
  H483     1.0000 0.65083  0.84882  0.91930  Biso   1.000  H
  H484     1.0000 0.64845  0.79130  0.94899  Biso   1.000  H
  H485     1.0000 0.55448  0.83352  0.94560  Biso   1.000  H
  H486     1.0000 0.66194  0.82509  0.92649  Biso   1.000  H
  H487     1.0000 0.55500  0.83110  0.94627  Biso   1.000  H
  H488     1.0000 0.64889  0.78889  0.94119  Biso   1.000  H
  H489     1.0000 0.56000  0.83119  0.95439  Biso   1.000  H
  H490     1.0000 0.59028  0.87709  0.91108  Biso   1.000  H
  H491     1.0000 0.59423  0.77860  0.98488  Biso   1.000  H
  O35      1.0000 0.38780  0.29699  0.85537  Biso   1.000  O
  C296     1.0000 0.26333  0.37222  0.83929  Biso   1.000  C
  C297     1.0000 0.21217  0.38939  0.76613  Biso   1.000  C
  C298     1.0000 0.29137  0.33393  0.70748  Biso   1.000  C
  H492     1.0000 0.36901  0.59472  0.02480  Biso   1.000  H
  H493     1.0000 0.25871  0.61730  0.03011  Biso   1.000  H
  H494     1.0000 0.28130  0.55770  0.00431  Biso   1.000  H
  H495     1.0000 0.32657  0.55633  0.01851  Biso   1.000  H
  H496     1.0000 0.33194  0.62760  0.02001  Biso   1.000  H
  H497     1.0000 0.39033  0.59171  0.98459  Biso   1.000  H
  C299     1.0000 0.47669  0.32992  0.86764  Biso   1.000  C
  O36      1.0000 0.26348  0.38848  0.88148  Biso   1.000  O
  C300     1.0000 0.15437  0.42013  0.73500  Biso   1.000  C
  H498     1.0000 0.33709  0.30528  0.69780  Biso   1.000  H
  C301     1.0000 0.23462  0.36512  0.67865  Biso   1.000  C
  H499     1.0000 0.45954  0.37081  0.87669  Biso   1.000  H
  H500     1.0000 0.52234  0.33270  0.84367  Biso   1.000  H
  C302     1.0000 0.52398  0.29581  0.90347  Biso   1.000  C
  H501     1.0000 0.45962  0.36152  0.88797  Biso   1.000  H
  H502     1.0000 0.50608  0.34900  0.84268  Biso   1.000  H
  C303     1.0000 0.55463  0.28361  0.88858  Biso   1.000  C
  C304     1.0000 0.20128  0.35250  0.90884  Biso   1.000  C
  C305     1.0000 0.16504  0.40902  0.69272  Biso   1.000  C
  H503     1.0000 0.10784  0.44882  0.74389  Biso   1.000  H
  H504     1.0000 0.24178  0.35729  0.64960  Biso   1.000  H
  H505     1.0000 0.57782  0.32022  0.91517  Biso   1.000  H
  H506     1.0000 0.47498  0.29012  0.92598  Biso   1.000  H
  C306     1.0000 0.56417  0.23570  0.89098  Biso   1.000  C
  C307     1.0000 0.52040  0.26721  0.93109  Biso   1.000  C
  H507     1.0000 0.56030  0.24740  0.87110  Biso   1.000  H
  H508     1.0000 0.61981  0.30260  0.89037  Biso   1.000  H
  H509     1.0000 0.22328  0.31038  0.90868  Biso   1.000  H
  H510     1.0000 0.13282  0.35383  0.89887  Biso   1.000  H
  C308     1.0000 0.20822  0.37819  0.95318  Biso   1.000  C
  H511     1.0000 0.12663  0.43019  0.67300  Biso   1.000  H
  H512     1.0000 0.61287  0.24098  0.86838  Biso   1.000  H
  H513     1.0000 0.51048  0.21061  0.87989  Biso   1.000  H
  C309     1.0000 0.61392  0.20282  0.92940  Biso   1.000  C
  H514     1.0000 0.46074  0.24240  0.92930  Biso   1.000  H
  H515     1.0000 0.50518  0.30351  0.94758  Biso   1.000  H
  C310     1.0000 0.60698  0.23028  0.95298  Biso   1.000  C
  H516     1.0000 0.15803  0.35943  0.97117  Biso   1.000  H
  H517     1.0000 0.19539  0.42158  0.95238  Biso   1.000  H
  C311     1.0000 0.31099  0.36662  0.97197  Biso   1.000  C
  H518     1.0000 0.65874  0.23028  0.94359  Biso   1.000  H
  H519     1.0000 0.65031  0.16799  0.91939  Biso   1.000  H
  H520     1.0000 0.56328  0.18980  0.94918  Biso   1.000  H
  H521     1.0000 0.60758  0.18930  0.94237  Biso   1.000  H
  H522     1.0000 0.67015  0.24932  0.94650  Biso   1.000  H
  H523     1.0000 0.59758  0.22992  0.98338  Biso   1.000  H
  H524     1.0000 0.32008  0.32309  0.97529  Biso   1.000  H
  H525     1.0000 0.36080  0.38092  0.95190  Biso   1.000  H
  C312     1.0000 0.32844  0.39608  0.01339  Biso   1.000  C
  H526     1.0000 0.30189  0.37108  0.03589  Biso   1.000  H
  H527     1.0000 0.29600  0.43511  0.01390  Biso   1.000  H
  H528     1.0000 0.39884  0.40150  0.01771  Biso   1.000  H
  C313     1.0000 0.90603  0.66403  0.42069  Biso   1.000  C
  C314     1.0000 0.92833  0.72090  0.39400  Biso   1.000  C
  C315     1.0000 0.95003  0.70911  0.38380  Biso   1.000  C
  C316     1.0000 0.91401  0.70952  0.45559  Biso   1.000  C
  H529     1.0000 0.84921  0.65123  0.41928  Biso   1.000  H
  H530     1.0000 0.94548  0.66653  0.44558  Biso   1.000  H
  H531     1.0000 0.83809  0.67491  0.42650  Biso   1.000  H
  H532     1.0000 0.94504  0.66890  0.44629  Biso   1.000  H
  H533     1.0000 0.94004  0.66881  0.45441  Biso   1.000  H
  H534     1.0000 0.90969  0.62291  0.41110  Biso   1.000  H
  C317     1.0000 0.98001  0.78051  0.40359  Biso   1.000  C
  C318     1.0000 0.97703  0.76703  0.40851  Biso   1.000  C
  C319     1.0000 0.94780  0.76812  0.38869  Biso   1.000  C
  C320     1.0000 0.98620  0.75209  0.43408  Biso   1.000  C
  H535     1.0000 0.94295  0.73169  0.37121  Biso   1.000  H
  H536     1.0000 0.87232  0.72960  0.37530  Biso   1.000  H
  H537     1.0000 0.97449  0.69590  0.37789  Biso   1.000  H
  C321     1.0000 0.89022  0.68352  0.43018  Biso   1.000  C
  H538     1.0000 0.90051  0.71753  0.36210  Biso   1.000  H
  H539     1.0000 0.00873  0.69153  0.37028  Biso   1.000  H
  H540     1.0000 0.85159  0.70870  0.44900  Biso   1.000  H
  H541     1.0000 0.85114  0.71111  0.44121  Biso   1.000  H
  H542     1.0000 0.90581  0.72140  0.48490  Biso   1.000  H
  C322     1.0000 0.02543  0.81302  0.36935  Biso   1.000  C
  H543     1.0000 0.03080  0.77263  0.42490  Biso   1.000  H
  H544     1.0000 0.02618  0.75811  0.43050  Biso   1.000  H
  H545     1.0000 0.93109  0.80733  0.41679  Biso   1.000  H
  H546     1.0000 0.91864  0.78461  0.42158  Biso   1.000  H
  H547     1.0000 0.88262  0.78711  0.39019  Biso   1.000  H
  H548     1.0000 0.05131  0.73311  0.43219  Biso   1.000  H
  H549     1.0000 0.99284  0.78903  0.45089  Biso   1.000  H
  O37      1.0000 0.11201  0.77942  0.35552  Biso   1.000  O
  H550     1.0000 0.04490  0.85332  0.37878  Biso   1.000  H
  H551     1.0000 0.04378  0.85250  0.38080  Biso   1.000  H
  H552     1.0000 0.04460  0.84290  0.39071  Biso   1.000  H
  H553     1.0000 0.97882  0.81740  0.34589  Biso   1.000  H
  H554     1.0000 0.97845  0.81862  0.34609  Biso   1.000  H
  H555     1.0000 0.99635  0.83443  0.34529  Biso   1.000  H
  C323     1.0000 0.16787  0.80906  0.32496  Biso   1.000  C
  C324     1.0000 0.15683  0.79499  0.28258  Biso   1.000  C
  C325     1.0000 0.23671  0.85446  0.33867  Biso   1.000  C
  C326     1.0000 0.07771  0.75146  0.26810  Biso   1.000  C
  C327     1.0000 0.21709  0.82618  0.25164  Biso   1.000  C
  O38      1.0000 0.23730  0.87127  0.38061  Biso   1.000  O
  C328     1.0000 0.29547  0.88515  0.30959  Biso   1.000  C
  O39      1.0000 0.00000  0.78766  0.25001  Biso   1.000  O
  H556     1.0000 0.10433  0.72350  0.24700  Biso   1.000  H
  H557     1.0000 0.05273  0.72801  0.29210  Biso   1.000  H
  C329     1.0000 0.28690  0.87104  0.26532  Biso   1.000  C
  C330     1.0000 0.20799  0.81412  0.20747  Biso   1.000  C
  C331     1.0000 0.28958  0.83219  0.40924  Biso   1.000  C
  C332     1.0000 0.36050  0.93638  0.32448  Biso   1.000  C
  C333     1.0000 0.92229  0.75146  0.23189  Biso   1.000  C
  C334     1.0000 0.34432  0.90132  0.23393  Biso   1.000  C
  C335     1.0000 0.26520  0.84472  0.17819  Biso   1.000  C
  H558     1.0000 0.16258  0.78502  0.19810  Biso   1.000  H
  H559     1.0000 0.35431  0.82190  0.39739  Biso   1.000  H
  H560     1.0000 0.25229  0.79481  0.41340  Biso   1.000  H
  C336     1.0000 0.30219  0.86430  0.45070  Biso   1.000  C
  H561     1.0000 0.35961  0.84312  0.40899  Biso   1.000  H
  H562     1.0000 0.28414  0.79062  0.39898  Biso   1.000  H
  C337     1.0000 0.25289  0.83479  0.45338  Biso   1.000  C
  O40      1.0000 0.31233  0.99094  0.31054  Biso   1.000  O
  H563     1.0000 0.36669  0.93593  0.35539  Biso   1.000  H
  H564     1.0000 0.42650  0.93320  0.31198  Biso   1.000  H
  C338     1.0000 0.84324  0.79499  0.21744  Biso   1.000  C
  H565     1.0000 0.89574  0.72350  0.25298  Biso   1.000  H
  H566     1.0000 0.94735  0.72801  0.20788  Biso   1.000  H
  H567     1.0000 0.39019  0.93069  0.24240  Biso   1.000  H
  C339     1.0000 0.33381  0.88852  0.19161  Biso   1.000  C
  H568     1.0000 0.25833  0.83629  0.14920  Biso   1.000  H
  H569     1.0000 0.32754  0.90519  0.44648  Biso   1.000  H
  H570     1.0000 0.34723  0.84221  0.46940  Biso   1.000  H
  C340     1.0000 0.18517  0.86562  0.47109  Biso   1.000  C
  C341     1.0000 0.26520  0.90342  0.47048  Biso   1.000  C
  H571     1.0000 0.29077  0.80710  0.47119  Biso   1.000  H
  H572     1.0000 0.18331  0.82281  0.45441  Biso   1.000  H
  C342     1.0000 0.35939  0.04508  0.32550  Biso   1.000  C
  C343     1.0000 0.83213  0.80906  0.17502  Biso   1.000  C
  C344     1.0000 0.78291  0.82618  0.24838  Biso   1.000  C
  H573     1.0000 0.37251  0.90893  0.17160  Biso   1.000  H
  C345     1.0000 0.19487  0.90232  0.51111  Biso   1.000  C
  H574     1.0000 0.13923  0.88479  0.45131  Biso   1.000  H
  H575     1.0000 0.16191  0.82482  0.47729  Biso   1.000  H
  C346     1.0000 0.16899  0.90733  0.50149  Biso   1.000  C
  H576     1.0000 0.26154  0.93292  0.44741  Biso   1.000  H
  H577     1.0000 0.32709  0.90893  0.48608  Biso   1.000  H
  C347     1.0000 0.29577  0.09681  0.31048  Biso   1.000  C
  H578     1.0000 0.42628  0.04841  0.31390  Biso   1.000  H
  H579     1.0000 0.36371  0.04490  0.35651  Biso   1.000  H
  O41      1.0000 0.88799  0.77942  0.14450  Biso   1.000  O
  C348     1.0000 0.76329  0.85446  0.16131  Biso   1.000  C
  C349     1.0000 0.71310  0.87104  0.23467  Biso   1.000  C
  C350     1.0000 0.79201  0.81412  0.29255  Biso   1.000  C
  H580     1.0000 0.13103  0.90533  0.52479  Biso   1.000  H
  H581     1.0000 0.24133  0.88270  0.53009  Biso   1.000  H
  H582     1.0000 0.21873  0.94230  0.50430  Biso   1.000  H
  H583     1.0000 0.17339  0.94372  0.51849  Biso   1.000  H
  H584     1.0000 0.16810  0.87240  0.51999  Biso   1.000  H
  H585     1.0000 0.10970  0.90833  0.48458  Biso   1.000  H
  C351     1.0000 0.23671  0.12778  0.33931  Biso   1.000  C
  C352     1.0000 0.28779  0.11061  0.26615  Biso   1.000  C
  C353     1.0000 0.97464  0.81302  0.13063  Biso   1.000  C
  O42      1.0000 0.76270  0.87127  0.11938  Biso   1.000  O
  C354     1.0000 0.70453  0.88515  0.19040  Biso   1.000  C
  C355     1.0000 0.65568  0.90132  0.26605  Biso   1.000  C
  C356     1.0000 0.73480  0.84472  0.32183  Biso   1.000  C
  H586     1.0000 0.83742  0.78502  0.30188  Biso   1.000  H
  C357     1.0000 0.16802  0.17322  0.32506  Biso   1.000  C
  O43      1.0000 0.23648  0.11152  0.38150  Biso   1.000  O
  C358     1.0000 0.21814  0.15551  0.25199  Biso   1.000  C
  C359     1.0000 0.34559  0.07992  0.23499  Biso   1.000  C
  C360     1.0000 0.01999  0.78051  0.09640  Biso   1.000  C
  C361     1.0000 0.02297  0.76703  0.09151  Biso   1.000  C
  C362     1.0000 0.05220  0.76812  0.11129  Biso   1.000  C
  H587     1.0000 0.02118  0.81740  0.15409  Biso   1.000  H
  H588     1.0000 0.02163  0.81862  0.15390  Biso   1.000  H
  H589     1.0000 0.00373  0.83443  0.15470  Biso   1.000  H
  H590     1.0000 0.95510  0.85332  0.12120  Biso   1.000  H
  H591     1.0000 0.95622  0.85250  0.11919  Biso   1.000  H
  H592     1.0000 0.95540  0.84290  0.10931  Biso   1.000  H
  C363     1.0000 0.71042  0.83219  0.09077  Biso   1.000  C
  C364     1.0000 0.63950  0.93638  0.17554  Biso   1.000  C
  H593     1.0000 0.60981  0.93069  0.25758  Biso   1.000  H
  C365     1.0000 0.66619  0.88852  0.30837  Biso   1.000  C
  H594     1.0000 0.74174  0.83629  0.35078  Biso   1.000  H
  C366     1.0000 0.15743  0.18643  0.28251  Biso   1.000  C
  O44      1.0000 0.11224  0.20305  0.35536  Biso   1.000  O
  C367     1.0000 0.29868  0.14750  0.40886  Biso   1.000  C
  C368     1.0000 0.20859  0.16612  0.20750  Biso   1.000  C
  C369     1.0000 0.33500  0.09098  0.19273  Biso   1.000  C
  H595     1.0000 0.39220  0.05118  0.24390  Biso   1.000  H
  C370     1.0000 0.07167  0.72090  0.10599  Biso   1.000  C
  C371     1.0000 0.04997  0.70911  0.11618  Biso   1.000  C
  C372     1.0000 0.01380  0.75209  0.06591  Biso   1.000  C
  H596     1.0000 0.06891  0.80733  0.08320  Biso   1.000  H
  H597     1.0000 0.08144  0.78461  0.07840  Biso   1.000  H
  H598     1.0000 0.96920  0.77263  0.07511  Biso   1.000  H
  H599     1.0000 0.97382  0.75811  0.06949  Biso   1.000  H
  H600     1.0000 0.05713  0.73169  0.12881  Biso   1.000  H
  H601     1.0000 0.11738  0.78711  0.10979  Biso   1.000  H
  H602     1.0000 0.64569  0.82190  0.10260  Biso   1.000  H
  H603     1.0000 0.74771  0.79481  0.08659  Biso   1.000  H
  C373     1.0000 0.69781  0.86430  0.04929  Biso   1.000  C
  H604     1.0000 0.64039  0.84312  0.09100  Biso   1.000  H
  H605     1.0000 0.71594  0.79062  0.10100  Biso   1.000  H
  C374     1.0000 0.74711  0.83479  0.04660  Biso   1.000  C
  O45      1.0000 0.68775  0.99094  0.18947  Biso   1.000  O
  H606     1.0000 0.63331  0.93593  0.14460  Biso   1.000  H
  H607     1.0000 0.57350  0.93320  0.18800  Biso   1.000  H
  H608     1.0000 0.62749  0.90893  0.32838  Biso   1.000  H
  C375     1.0000 0.07801  0.23015  0.26791  Biso   1.000  C
  C376     1.0000 0.02327  0.17008  0.36763  Biso   1.000  C
  H609     1.0000 0.27668  0.18962  0.40870  Biso   1.000  H
  H610     1.0000 0.36722  0.14622  0.39889  Biso   1.000  H
  C377     1.0000 0.29182  0.12181  0.45319  Biso   1.000  C
  H611     1.0000 0.16288  0.19472  0.19778  Biso   1.000  H
  C378     1.0000 0.26542  0.13488  0.17864  Biso   1.000  C
  H612     1.0000 0.37341  0.06981  0.17301  Biso   1.000  H
  C379     1.0000 0.09397  0.66403  0.07930  Biso   1.000  C
  H613     1.0000 0.12768  0.72960  0.12468  Biso   1.000  H
  H614     1.0000 0.02551  0.69590  0.12210  Biso   1.000  H
  C380     1.0000 0.10978  0.68352  0.06981  Biso   1.000  C
  H615     1.0000 0.09949  0.71753  0.13788  Biso   1.000  H
  H616     1.0000 0.99135  0.69153  0.12970  Biso   1.000  H
  C381     1.0000 0.08599  0.70952  0.04440  Biso   1.000  C
  H617     1.0000 0.00723  0.78903  0.04909  Biso   1.000  H
  H618     1.0000 0.94869  0.73311  0.06779  Biso   1.000  H
  H619     1.0000 0.67253  0.90519  0.05350  Biso   1.000  H
  H620     1.0000 0.65285  0.84221  0.03059  Biso   1.000  H
  C382     1.0000 0.81483  0.86562  0.02889  Biso   1.000  C
  C383     1.0000 0.73480  0.90342  0.02950  Biso   1.000  C
  H621     1.0000 0.70923  0.80710  0.02880  Biso   1.000  H
  H622     1.0000 0.81669  0.82281  0.04561  Biso   1.000  H
  C384     1.0000 0.64061  0.04508  0.17448  Biso   1.000  C
  O46      1.0000 0.00000  0.19376  0.25001  Biso   1.000  O
  H623     1.0000 0.05310  0.25383  0.29178  Biso   1.000  H
  H624     1.0000 0.10448  0.25792  0.24659  Biso   1.000  H
  H625     1.0000 0.97770  0.16730  0.34369  Biso   1.000  H
  C385     1.0000 0.97599  0.20419  0.40349  Biso   1.000  C
  H626     1.0000 0.99388  0.15100  0.34270  Biso   1.000  H
  C386     1.0000 0.94541  0.21639  0.38860  Biso   1.000  C
  H627     1.0000 0.04050  0.12919  0.37671  Biso   1.000  H
  H628     1.0000 0.04042  0.13852  0.38799  Biso   1.000  H
  H629     1.0000 0.34201  0.14062  0.47119  Biso   1.000  H
  H630     1.0000 0.30457  0.07842  0.45239  Biso   1.000  H
  C387     1.0000 0.18898  0.13342  0.47199  Biso   1.000  C
  H631     1.0000 0.25818  0.14271  0.14958  Biso   1.000  H
  H632     1.0000 0.15079  0.65123  0.08070  Biso   1.000  H
  H633     1.0000 0.05452  0.66653  0.05440  Biso   1.000  H
  H634     1.0000 0.16191  0.67491  0.07351  Biso   1.000  H
  H635     1.0000 0.05504  0.66890  0.05370  Biso   1.000  H
  H636     1.0000 0.09031  0.62291  0.08889  Biso   1.000  H
  H637     1.0000 0.06003  0.66881  0.04561  Biso   1.000  H
  H638     1.0000 0.14841  0.70870  0.05101  Biso   1.000  H
  H639     1.0000 0.14893  0.71111  0.05881  Biso   1.000  H
  H640     1.0000 0.09419  0.72140  0.01509  Biso   1.000  H
  C388     1.0000 0.80513  0.90232  0.98888  Biso   1.000  C
  C389     1.0000 0.83101  0.90733  0.99850  Biso   1.000  C
  H641     1.0000 0.86084  0.88479  0.04871  Biso   1.000  H
  H642     1.0000 0.83809  0.82482  0.02269  Biso   1.000  H
  H643     1.0000 0.73853  0.93292  0.05261  Biso   1.000  H
  H644     1.0000 0.67291  0.90893  0.01390  Biso   1.000  H
  C390     1.0000 0.70423  0.09681  0.18950  Biso   1.000  C
  H645     1.0000 0.57372  0.04841  0.18608  Biso   1.000  H
  H646     1.0000 0.63629  0.04490  0.14351  Biso   1.000  H
  C391     1.0000 0.92199  0.23015  0.23211  Biso   1.000  C
  H647     1.0000 0.92222  0.17978  0.41519  Biso   1.000  H
  C392     1.0000 0.93579  0.26430  0.39099  Biso   1.000  C
  C393     1.0000 0.97964  0.23279  0.43111  Biso   1.000  C
  H648     1.0000 0.02498  0.20988  0.42599  Biso   1.000  H
  H649     1.0000 0.93974  0.25260  0.37108  Biso   1.000  H
  H650     1.0000 0.88023  0.19740  0.39039  Biso   1.000  H
  H651     1.0000 0.17988  0.17691  0.47528  Biso   1.000  H
  H652     1.0000 0.13923  0.11908  0.45188  Biso   1.000  H
  C394     1.0000 0.17160  0.10392  0.51338  Biso   1.000  C
  H653     1.0000 0.86904  0.90533  0.97520  Biso   1.000  H
  H654     1.0000 0.75874  0.88270  0.96989  Biso   1.000  H
  H655     1.0000 0.78134  0.94230  0.99569  Biso   1.000  H
  H656     1.0000 0.82661  0.94372  0.98149  Biso   1.000  H
  H657     1.0000 0.83190  0.87240  0.97999  Biso   1.000  H
  H658     1.0000 0.89030  0.90833  0.01541  Biso   1.000  H
  C395     1.0000 0.76329  0.12778  0.16067  Biso   1.000  C
  C396     1.0000 0.71221  0.11061  0.23387  Biso   1.000  C
  C397     1.0000 0.84264  0.18643  0.21747  Biso   1.000  C
  H659     1.0000 0.94690  0.25383  0.20820  Biso   1.000  H
  H660     1.0000 0.89552  0.25792  0.25340  Biso   1.000  H
  H661     1.0000 0.88709  0.25902  0.36840  Biso   1.000  H
  H662     1.0000 0.98948  0.28939  0.37990  Biso   1.000  H
  C398     1.0000 0.88612  0.29722  0.42938  Biso   1.000  C
  H663     1.0000 0.99478  0.19649  0.44760  Biso   1.000  H
  C399     1.0000 0.89298  0.26972  0.45300  Biso   1.000  C
  H664     1.0000 0.03930  0.25760  0.42928  Biso   1.000  H
  H665     1.0000 0.19808  0.12892  0.53588  Biso   1.000  H
  H666     1.0000 0.20397  0.06489  0.51389  Biso   1.000  H
  H667     1.0000 0.10120  0.09850  0.51769  Biso   1.000  H
  O47      1.0000 0.76352  0.11152  0.11848  Biso   1.000  O
  C400     1.0000 0.83198  0.17322  0.17493  Biso   1.000  C
  C401     1.0000 0.78194  0.15551  0.24799  Biso   1.000  C
  C402     1.0000 0.65441  0.07992  0.26500  Biso   1.000  C
  H668     1.0000 0.84130  0.26972  0.44360  Biso   1.000  H
  H669     1.0000 0.84973  0.33201  0.41941  Biso   1.000  H
  H670     1.0000 0.93668  0.31020  0.44920  Biso   1.000  H
  H671     1.0000 0.89239  0.31070  0.44239  Biso   1.000  H
  H672     1.0000 0.82989  0.25068  0.44648  Biso   1.000  H
  H673     1.0000 0.90238  0.27008  0.48340  Biso   1.000  H
  C403     1.0000 0.70132  0.14750  0.09112  Biso   1.000  C
  O48      1.0000 0.88784  0.20305  0.14463  Biso   1.000  O
  C404     1.0000 0.79141  0.16612  0.29249  Biso   1.000  C
  C405     1.0000 0.66500  0.09098  0.30725  Biso   1.000  C
  H674     1.0000 0.60780  0.05118  0.25608  Biso   1.000  H
  H675     1.0000 0.72332  0.18962  0.09128  Biso   1.000  H
  H676     1.0000 0.63278  0.14622  0.10110  Biso   1.000  H
  C406     1.0000 0.70818  0.12181  0.04679  Biso   1.000  C
  C407     1.0000 0.97673  0.17008  0.13236  Biso   1.000  C
  H677     1.0000 0.83712  0.19472  0.30220  Biso   1.000  H
  C408     1.0000 0.73458  0.13488  0.32135  Biso   1.000  C
  H678     1.0000 0.62659  0.06981  0.32700  Biso   1.000  H
  H679     1.0000 0.65799  0.14062  0.02880  Biso   1.000  H
  H680     1.0000 0.69543  0.07842  0.04759  Biso   1.000  H
  C409     1.0000 0.81102  0.13342  0.02800  Biso   1.000  C
  H681     1.0000 0.95950  0.12919  0.12331  Biso   1.000  H
  H682     1.0000 0.95958  0.13852  0.11200  Biso   1.000  H
  H683     1.0000 0.02230  0.16730  0.15629  Biso   1.000  H
  C410     1.0000 0.02401  0.20419  0.09649  Biso   1.000  C
  H684     1.0000 0.00612  0.15100  0.15729  Biso   1.000  H
  C411     1.0000 0.05459  0.21639  0.11139  Biso   1.000  C
  H685     1.0000 0.74182  0.14271  0.35040  Biso   1.000  H
  C412     1.0000 0.82840  0.10392  0.98658  Biso   1.000  C
  H686     1.0000 0.82012  0.17691  0.02471  Biso   1.000  H
  H687     1.0000 0.86084  0.11908  0.04810  Biso   1.000  H
  H688     1.0000 0.97502  0.20988  0.07399  Biso   1.000  H
  H689     1.0000 0.07778  0.17978  0.08480  Biso   1.000  H
  C413     1.0000 0.06421  0.26430  0.10899  Biso   1.000  C
  C414     1.0000 0.02043  0.23279  0.06891  Biso   1.000  C
  H690     1.0000 0.06033  0.25260  0.12890  Biso   1.000  H
  H691     1.0000 0.11977  0.19740  0.10960  Biso   1.000  H
  H692     1.0000 0.80192  0.12892  0.96407  Biso   1.000  H
  H693     1.0000 0.79603  0.06489  0.98610  Biso   1.000  H
  H694     1.0000 0.89880  0.09850  0.98229  Biso   1.000  H
  H695     1.0000 0.11291  0.25902  0.13159  Biso   1.000  H
  H696     1.0000 0.01052  0.28939  0.12011  Biso   1.000  H
  C415     1.0000 0.11388  0.29722  0.07060  Biso   1.000  C
  H697     1.0000 0.96070  0.25760  0.07070  Biso   1.000  H
  H698     1.0000 0.00522  0.19649  0.05239  Biso   1.000  H
  C416     1.0000 0.10702  0.26972  0.04698  Biso   1.000  C
  H699     1.0000 0.15870  0.26972  0.05641  Biso   1.000  H
  H700     1.0000 0.15027  0.33201  0.08061  Biso   1.000  H
  H701     1.0000 0.06332  0.31020  0.05079  Biso   1.000  H
  H702     1.0000 0.10761  0.31070  0.05760  Biso   1.000  H
  H703     1.0000 0.17011  0.25068  0.05350  Biso   1.000  H
  H704     1.0000 0.09762  0.27008  0.01659  Biso   1.000  H
