data_image0
_cell_length_a       40.939
_cell_length_b       11.406
_cell_length_c       22.643
_cell_angle_alpha    90
_cell_angle_beta     91.15
_cell_angle_gamma    90

_symmetry_space_group_name_H-M    "P 1"
_symmetry_int_tables_number       1

loop_
  _symmetry_equiv_pos_as_xyz
  'x, y, z'

loop_
  _atom_site_label
  _atom_site_occupancy
  _atom_site_fract_x
  _atom_site_fract_y
  _atom_site_fract_z
  _atom_site_thermal_displace_type
  _atom_site_B_iso_or_equiv
  _atom_site_type_symbol
  C1       1.0000 0.50982  0.48273  0.59059  Biso   1.000  C
  C2       1.0000 0.49712  0.38103  0.62588  Biso   1.000  C
  H1       1.0000 0.51764  0.54427  0.61753  Biso   1.000  H
  H2       1.0000 0.52787  0.45608  0.56616  Biso   1.000  H
  H3       1.0000 0.49224  0.51385  0.56514  Biso   1.000  H
  O1       1.0000 0.48420  0.29765  0.58463  Biso   1.000  O
  H4       1.0000 0.47980  0.40777  0.65270  Biso   1.000  H
  H5       1.0000 0.51497  0.34552  0.64996  Biso   1.000  H
  C3       1.0000 0.47731  0.18587  0.60428  Biso   1.000  C
  C4       1.0000 0.47008  0.10337  0.56029  Biso   1.000  C
  C5       1.0000 0.47692  0.15343  0.66356  Biso   1.000  C
  C6       1.0000 0.46744  0.13756  0.49597  Biso   1.000  C
  C7       1.0000 0.46326  0.98939  0.57720  Biso   1.000  C
  C8       1.0000 0.46948  0.03963  0.68039  Biso   1.000  C
  H6       1.0000 0.48181  0.21024  0.69307  Biso   1.000  H
  C9       1.0000 0.43176  0.15772  0.47901  Biso   1.000  C
  H7       1.0000 0.48011  0.21015  0.48921  Biso   1.000  H
  H8       1.0000 0.47659  0.07461  0.47123  Biso   1.000  H
  H9       1.0000 0.45873  0.93205  0.54770  Biso   1.000  H
  C10      1.0000 0.46294  0.95695  0.63631  Biso   1.000  C
  C11      1.0000 0.46951  0.00263  0.74480  Biso   1.000  C
  C12      1.0000 0.41772  0.26696  0.48665  Biso   1.000  C
  C13      1.0000 0.41202  0.06584  0.45891  Biso   1.000  C
  O2       1.0000 0.45618  0.84438  0.65504  Biso   1.000  O
  H10      1.0000 0.48296  0.05874  0.76812  Biso   1.000  H
  C14      1.0000 0.43556  0.99684  0.77081  Biso   1.000  C
  H11      1.0000 0.47991  0.92451  0.74846  Biso   1.000  H
  C15      1.0000 0.38448  0.28573  0.47552  Biso   1.000  C
  H12      1.0000 0.43101  0.33062  0.49973  Biso   1.000  H
  C16      1.0000 0.37901  0.08469  0.44689  Biso   1.000  C
  O3       1.0000 0.42725  0.95879  0.45136  Biso   1.000  O
  C17      1.0000 0.45128  0.75557  0.61153  Biso   1.000  C
  C18      1.0000 0.42126  0.09714  0.79453  Biso   1.000  C
  C19      1.0000 0.41831  0.89243  0.77249  Biso   1.000  C
  C20      1.0000 0.36486  0.19358  0.45529  Biso   1.000  C
  O4       1.0000 0.36911  0.39181  0.48378  Biso   1.000  O
  H13      1.0000 0.36588  0.02174  0.43263  Biso   1.000  H
  C21      1.0000 0.40807  0.86314  0.43117  Biso   1.000  C
  H14      1.0000 0.43324  0.77792  0.58401  Biso   1.000  H
  H15      1.0000 0.47137  0.74496  0.58847  Biso   1.000  H
  C22      1.0000 0.44303  0.64440  0.64280  Biso   1.000  C
  C23      1.0000 0.39064  0.09092  0.81958  Biso   1.000  C
  O5       1.0000 0.43943  0.19858  0.79179  Biso   1.000  O
  C24      1.0000 0.38723  0.88629  0.79612  Biso   1.000  C
  H16      1.0000 0.42793  0.82325  0.75712  Biso   1.000  H
  C25      1.0000 0.32852  0.21006  0.44336  Biso   1.000  C
  C26      1.0000 0.38839  0.48843  0.50273  Biso   1.000  C
  H17      1.0000 0.39087  0.84499  0.45993  Biso   1.000  H
  H18      1.0000 0.39743  0.88217  0.39269  Biso   1.000  H
  C27      1.0000 0.43062  0.76013  0.42476  Biso   1.000  C
  H19      1.0000 0.46014  0.62660  0.67235  Biso   1.000  H
  H20      1.0000 0.42207  0.65352  0.66241  Biso   1.000  H
  H21      1.0000 0.44146  0.58013  0.61418  Biso   1.000  H
  C28      1.0000 0.37301  0.98667  0.82007  Biso   1.000  C
  H22      1.0000 0.38155  0.15913  0.83681  Biso   1.000  H
  C29      1.0000 0.42590  0.30186  0.81808  Biso   1.000  C
  O6       1.0000 0.36885  0.78529  0.79926  Biso   1.000  O
  H23      1.0000 0.32150  0.15702  0.41094  Biso   1.000  H
  H24      1.0000 0.32452  0.29160  0.43011  Biso   1.000  H
  C30      1.0000 0.30811  0.18552  0.49712  Biso   1.000  C
  H25      1.0000 0.40019  0.46896  0.54005  Biso   1.000  H
  H26      1.0000 0.40467  0.50789  0.47251  Biso   1.000  H
  C31      1.0000 0.36585  0.59083  0.51201  Biso   1.000  C
  H27      1.0000 0.44016  0.73979  0.46346  Biso   1.000  H
  H28      1.0000 0.41828  0.69297  0.40904  Biso   1.000  H
  H29      1.0000 0.44807  0.78038  0.39764  Biso   1.000  H
  C32      1.0000 0.33848  0.98238  0.84321  Biso   1.000  C
  H30      1.0000 0.40506  0.32325  0.79793  Biso   1.000  H
  H31      1.0000 0.42163  0.28801  0.86040  Biso   1.000  H
  C33      1.0000 0.45057  0.39891  0.81145  Biso   1.000  C
  C34      1.0000 0.37914  0.68543  0.76706  Biso   1.000  C
  C35      1.0000 0.30172  0.27372  0.53714  Biso   1.000  C
  C36      1.0000 0.29513  0.07347  0.50653  Biso   1.000  C
  H32      1.0000 0.35084  0.57268  0.54385  Biso   1.000  H
  H33      1.0000 0.37877  0.66035  0.52261  Biso   1.000  H
  H34      1.0000 0.35331  0.60617  0.47547  Biso   1.000  H
  C37      1.0000 0.31398  0.01192  0.79436  Biso   1.000  C
  H35      1.0000 0.33633  0.03910  0.87599  Biso   1.000  H
  H36      1.0000 0.33394  0.90303  0.85872  Biso   1.000  H
  H37      1.0000 0.44275  0.46975  0.83115  Biso   1.000  H
  H38      1.0000 0.47148  0.37472  0.82943  Biso   1.000  H
  H39      1.0000 0.45354  0.41531  0.76940  Biso   1.000  H
  H40      1.0000 0.38111  0.70524  0.72474  Biso   1.000  H
  H41      1.0000 0.40073  0.65843  0.78217  Biso   1.000  H
  C38      1.0000 0.35418  0.59048  0.77448  Biso   1.000  C
  H42      1.0000 0.31084  0.34929  0.53131  Biso   1.000  H
  C39      1.0000 0.28226  0.25408  0.58586  Biso   1.000  C
  C40      1.0000 0.27502  0.05462  0.55494  Biso   1.000  C
  O7       1.0000 0.30291  0.98860  0.46651  Biso   1.000  O
  C41      1.0000 0.30718  0.13791  0.78252  Biso   1.000  C
  C42      1.0000 0.29888  0.93161  0.76101  Biso   1.000  C
  H43      1.0000 0.35347  0.56768  0.81618  Biso   1.000  H
  H44      1.0000 0.33267  0.61959  0.76162  Biso   1.000  H
  H45      1.0000 0.36010  0.52244  0.75063  Biso   1.000  H
  O8       1.0000 0.27486  0.34008  0.62632  Biso   1.000  O
  C43      1.0000 0.26860  0.14352  0.59461  Biso   1.000  C
  H46      1.0000 0.26566  0.97931  0.56068  Biso   1.000  H
  C44      1.0000 0.29136  0.87182  0.47521  Biso   1.000  C
  C45      1.0000 0.28384  0.16807  0.73521  Biso   1.000  C
  O9       1.0000 0.32100  0.21576  0.81110  Biso   1.000  O
  C46      1.0000 0.27659  0.96230  0.71122  Biso   1.000  C
  H47      1.0000 0.30261  0.85104  0.76953  Biso   1.000  H
  C47      1.0000 0.29029  0.45152  0.62067  Biso   1.000  C
  C48      1.0000 0.24770  0.12020  0.64801  Biso   1.000  C
  H48      1.0000 0.29873  0.84219  0.51435  Biso   1.000  H
  H49      1.0000 0.26718  0.87016  0.47344  Biso   1.000  H
  C49      1.0000 0.30494  0.79721  0.42715  Biso   1.000  C
  C50      1.0000 0.26950  0.08820  0.70027  Biso   1.000  C
  H50      1.0000 0.27862  0.24838  0.72907  Biso   1.000  H
  O10      1.0000 0.26445  0.88480  0.68044  Biso   1.000  O
  H51      1.0000 0.31433  0.44266  0.62363  Biso   1.000  H
  H52      1.0000 0.28460  0.48667  0.58184  Biso   1.000  H
  C51      1.0000 0.27838  0.52858  0.66983  Biso   1.000  C
  H53      1.0000 0.23231  0.05532  0.63927  Biso   1.000  H
  H54      1.0000 0.23481  0.19104  0.65733  Biso   1.000  H
  H55      1.0000 0.32886  0.79879  0.42962  Biso   1.000  H
  H56      1.0000 0.29728  0.71629  0.43174  Biso   1.000  H
  H57      1.0000 0.29756  0.82746  0.38868  Biso   1.000  H
  H58      1.0000 0.28425  0.49316  0.70804  Biso   1.000  H
  H59      1.0000 0.28853  0.60608  0.66701  Biso   1.000  H
  H60      1.0000 0.25457  0.53665  0.66648  Biso   1.000  H
  C52      1.0000 0.49022  0.51727  0.40939  Biso   1.000  C
  C53      1.0000 0.50294  0.61897  0.37410  Biso   1.000  C
  H61      1.0000 0.48240  0.45573  0.38245  Biso   1.000  H
  H62      1.0000 0.47217  0.54392  0.43386  Biso   1.000  H
  H63      1.0000 0.50780  0.48615  0.43488  Biso   1.000  H
  O11      1.0000 0.51584  0.70235  0.41540  Biso   1.000  O
  H64      1.0000 0.52023  0.59223  0.34729  Biso   1.000  H
  H65      1.0000 0.48507  0.65448  0.35007  Biso   1.000  H
  C54      1.0000 0.52273  0.81405  0.39574  Biso   1.000  C
  C55      1.0000 0.52314  0.84657  0.33642  Biso   1.000  C
  C56      1.0000 0.52998  0.89655  0.43969  Biso   1.000  C
  C57      1.0000 0.53058  0.96037  0.31959  Biso   1.000  C
  H66      1.0000 0.51822  0.78976  0.30691  Biso   1.000  H
  C58      1.0000 0.53260  0.86235  0.50401  Biso   1.000  C
  C59      1.0000 0.53678  0.01061  0.42282  Biso   1.000  C
  C60      1.0000 0.53052  0.99737  0.25523  Biso   1.000  C
  C61      1.0000 0.53712  0.04296  0.36367  Biso   1.000  C
  H67      1.0000 0.51995  0.78985  0.51081  Biso   1.000  H
  H68      1.0000 0.52344  0.92539  0.52879  Biso   1.000  H
  C62      1.0000 0.56828  0.84228  0.52102  Biso   1.000  C
  H69      1.0000 0.54131  0.06795  0.45228  Biso   1.000  H
  H70      1.0000 0.51707  0.94126  0.23186  Biso   1.000  H
  C63      1.0000 0.56450  0.00307  0.22917  Biso   1.000  C
  H71      1.0000 0.52012  0.07549  0.25152  Biso   1.000  H
  O12      1.0000 0.54385  0.15562  0.34494  Biso   1.000  O
  C64      1.0000 0.58231  0.73295  0.51333  Biso   1.000  C
  C65      1.0000 0.58804  0.93416  0.54112  Biso   1.000  C
  C66      1.0000 0.57880  0.90286  0.20549  Biso   1.000  C
  C67      1.0000 0.58173  0.10757  0.22753  Biso   1.000  C
  C68      1.0000 0.54876  0.24443  0.38845  Biso   1.000  C
  H72      1.0000 0.56905  0.66938  0.50026  Biso   1.000  H
  C69      1.0000 0.61558  0.71427  0.52446  Biso   1.000  C
  C70      1.0000 0.62103  0.91531  0.55309  Biso   1.000  C
  O13      1.0000 0.57279  0.04112  0.54867  Biso   1.000  O
  O14      1.0000 0.56061  0.80142  0.20819  Biso   1.000  O
  C71      1.0000 0.60939  0.90908  0.18040  Biso   1.000  C
  H73      1.0000 0.57210  0.17675  0.24291  Biso   1.000  H
  C72      1.0000 0.61281  0.11371  0.20386  Biso   1.000  C
  H74      1.0000 0.56680  0.22199  0.41597  Biso   1.000  H
  H75      1.0000 0.52869  0.25504  0.41151  Biso   1.000  H
  C73      1.0000 0.55701  0.35560  0.35718  Biso   1.000  C
  O15      1.0000 0.63095  0.60810  0.51620  Biso   1.000  O
  C74      1.0000 0.63518  0.80642  0.54469  Biso   1.000  C
  H76      1.0000 0.63416  0.97826  0.56735  Biso   1.000  H
  C75      1.0000 0.59197  0.13677  0.56881  Biso   1.000  C
  C76      1.0000 0.57414  0.69805  0.18190  Biso   1.000  C
  H77      1.0000 0.61849  0.84087  0.16322  Biso   1.000  H
  C77      1.0000 0.62702  0.01333  0.17992  Biso   1.000  C
  O16      1.0000 0.63119  0.21471  0.20072  Biso   1.000  O
  H78      1.0000 0.53990  0.37331  0.32767  Biso   1.000  H
  H79      1.0000 0.57797  0.34648  0.33757  Biso   1.000  H
  H80      1.0000 0.55857  0.41987  0.38585  Biso   1.000  H
  C78      1.0000 0.61164  0.51157  0.49725  Biso   1.000  C
  C79      1.0000 0.67151  0.78985  0.55662  Biso   1.000  C
  H81      1.0000 0.60916  0.15492  0.54010  Biso   1.000  H
  H82      1.0000 0.60260  0.11783  0.60729  Biso   1.000  H
  C80      1.0000 0.56942  0.23987  0.57522  Biso   1.000  C
  H83      1.0000 0.59498  0.67675  0.20209  Biso   1.000  H
  H84      1.0000 0.57843  0.71199  0.13959  Biso   1.000  H
  C81      1.0000 0.54947  0.60109  0.18857  Biso   1.000  C
  C82      1.0000 0.66155  0.01762  0.15677  Biso   1.000  C
  C83      1.0000 0.62090  0.31457  0.23292  Biso   1.000  C
  H85      1.0000 0.59984  0.53095  0.45993  Biso   1.000  H
  H86      1.0000 0.59537  0.49211  0.52747  Biso   1.000  H
  C84      1.0000 0.63418  0.40917  0.48798  Biso   1.000  C
  H87      1.0000 0.67856  0.84298  0.58909  Biso   1.000  H
  H88      1.0000 0.67552  0.70840  0.56987  Biso   1.000  H
  C85      1.0000 0.69192  0.81448  0.50286  Biso   1.000  C
  H89      1.0000 0.55988  0.26021  0.53652  Biso   1.000  H
  H90      1.0000 0.58176  0.30703  0.59094  Biso   1.000  H
  H91      1.0000 0.55196  0.21962  0.60238  Biso   1.000  H
  H92      1.0000 0.55729  0.53025  0.16883  Biso   1.000  H
  H93      1.0000 0.52855  0.62520  0.17055  Biso   1.000  H
  H94      1.0000 0.54652  0.58469  0.23058  Biso   1.000  H
  C86      1.0000 0.68606  0.98808  0.20562  Biso   1.000  C
  H95      1.0000 0.66370  0.96090  0.12399  Biso   1.000  H
  H96      1.0000 0.66609  0.09697  0.14126  Biso   1.000  H
  H97      1.0000 0.61892  0.29476  0.27524  Biso   1.000  H
  H98      1.0000 0.59931  0.34157  0.21782  Biso   1.000  H
  C87      1.0000 0.64585  0.40952  0.22550  Biso   1.000  C
  H99      1.0000 0.64919  0.42732  0.45613  Biso   1.000  H
  H100     1.0000 0.62129  0.33965  0.47742  Biso   1.000  H
  H101     1.0000 0.64673  0.39383  0.52451  Biso   1.000  H
  C88      1.0000 0.69832  0.72628  0.46284  Biso   1.000  C
  C89      1.0000 0.70491  0.92644  0.49350  Biso   1.000  C
  C90      1.0000 0.69288  0.86209  0.21751  Biso   1.000  C
  C91      1.0000 0.70116  0.06839  0.23897  Biso   1.000  C
  H102     1.0000 0.64656  0.43232  0.18380  Biso   1.000  H
  H103     1.0000 0.66737  0.38041  0.23836  Biso   1.000  H
  H104     1.0000 0.63996  0.47756  0.24940  Biso   1.000  H
  H105     1.0000 0.68920  0.65071  0.46872  Biso   1.000  H
  C92      1.0000 0.71778  0.74592  0.41412  Biso   1.000  C
  C93      1.0000 0.72501  0.94538  0.44504  Biso   1.000  C
  O17      1.0000 0.69712  0.01140  0.53347  Biso   1.000  O
  O18      1.0000 0.67903  0.78415  0.18888  Biso   1.000  O
  C94      1.0000 0.71622  0.83184  0.26477  Biso   1.000  C
  H106     1.0000 0.69745  0.14896  0.23045  Biso   1.000  H
  C95      1.0000 0.72345  0.03770  0.28880  Biso   1.000  C
  O19      1.0000 0.72517  0.65992  0.37366  Biso   1.000  O
  C96      1.0000 0.73146  0.85648  0.40537  Biso   1.000  C
  H107     1.0000 0.73438  0.02060  0.43934  Biso   1.000  H
  C97      1.0000 0.70870  0.12818  0.52477  Biso   1.000  C
  C98      1.0000 0.73056  0.91180  0.29971  Biso   1.000  C
  H108     1.0000 0.72144  0.75162  0.27091  Biso   1.000  H
  O20      1.0000 0.73561  0.11520  0.31959  Biso   1.000  O
  C99      1.0000 0.70975  0.54848  0.37931  Biso   1.000  C
  C100     1.0000 0.75234  0.87980  0.35197  Biso   1.000  C
  H109     1.0000 0.70130  0.15781  0.48563  Biso   1.000  H
  H110     1.0000 0.73288  0.12984  0.52654  Biso   1.000  H
  C101     1.0000 0.69512  0.20279  0.57283  Biso   1.000  C
  H111     1.0000 0.68570  0.55725  0.37635  Biso   1.000  H
  H112     1.0000 0.71543  0.51324  0.41814  Biso   1.000  H
  C102     1.0000 0.72168  0.47142  0.33015  Biso   1.000  C
  H113     1.0000 0.76775  0.94468  0.36071  Biso   1.000  H
  H114     1.0000 0.76523  0.80896  0.34265  Biso   1.000  H
  H115     1.0000 0.67117  0.20121  0.57040  Biso   1.000  H
  H116     1.0000 0.70276  0.28371  0.56824  Biso   1.000  H
  H117     1.0000 0.70248  0.17245  0.61135  Biso   1.000  H
  H118     1.0000 0.71581  0.50684  0.29194  Biso   1.000  H
  H119     1.0000 0.71151  0.39383  0.33297  Biso   1.000  H
  H120     1.0000 0.74549  0.46335  0.33350  Biso   1.000  H
  C103     1.0000 0.57880  0.59705  0.70548  Biso   1.000  C
  C104     1.0000 0.56451  0.49693  0.72916  Biso   1.000  C
  O21      1.0000 0.56063  0.69858  0.70818  Biso   1.000  O
  C105     1.0000 0.60942  0.59092  0.68039  Biso   1.000  C
  C106     1.0000 0.53055  0.50263  0.75522  Biso   1.000  C
  C107     1.0000 0.58176  0.39243  0.72752  Biso   1.000  C
  C108     1.0000 0.57417  0.80186  0.68189  Biso   1.000  C
  C109     1.0000 0.62705  0.48667  0.67991  Biso   1.000  C
  H121     1.0000 0.61852  0.65913  0.66321  Biso   1.000  H
  H122     1.0000 0.52015  0.42451  0.75151  Biso   1.000  H
  H123     1.0000 0.51710  0.55874  0.73185  Biso   1.000  H
  C110     1.0000 0.53058  0.53963  0.81958  Biso   1.000  C
  H124     1.0000 0.57213  0.32325  0.74290  Biso   1.000  H
  C111     1.0000 0.61284  0.38629  0.70385  Biso   1.000  C
  H125     1.0000 0.59498  0.82325  0.70208  Biso   1.000  H
  H126     1.0000 0.57844  0.78801  0.63962  Biso   1.000  H
  C112     1.0000 0.54950  0.89891  0.68856  Biso   1.000  C
  C113     1.0000 0.66158  0.48238  0.65676  Biso   1.000  C
  C114     1.0000 0.52315  0.65343  0.83645  Biso   1.000  C
  C115     1.0000 0.53713  0.45695  0.86366  Biso   1.000  C
  O22      1.0000 0.63122  0.28529  0.70071  Biso   1.000  O
  H127     1.0000 0.55732  0.96975  0.66882  Biso   1.000  H
  H128     1.0000 0.52859  0.87472  0.67059  Biso   1.000  H
  H129     1.0000 0.54652  0.91531  0.73057  Biso   1.000  H
  C116     1.0000 0.68609  0.51192  0.70561  Biso   1.000  C
  H130     1.0000 0.66371  0.53910  0.62398  Biso   1.000  H
  H131     1.0000 0.66612  0.40303  0.64125  Biso   1.000  H
  H132     1.0000 0.51823  0.71024  0.80690  Biso   1.000  H
  C117     1.0000 0.52275  0.68587  0.89573  Biso   1.000  C
  O23      1.0000 0.54388  0.34438  0.84493  Biso   1.000  O
  C118     1.0000 0.53681  0.48939  0.92281  Biso   1.000  C
  C119     1.0000 0.62090  0.18543  0.73291  Biso   1.000  C
  C120     1.0000 0.69289  0.63791  0.71750  Biso   1.000  C
  C121     1.0000 0.70116  0.43161  0.73896  Biso   1.000  C
  O24      1.0000 0.51586  0.79756  0.91539  Biso   1.000  O
  C122     1.0000 0.52998  0.60337  0.93968  Biso   1.000  C
  C123     1.0000 0.54879  0.25557  0.88844  Biso   1.000  C
  H133     1.0000 0.54134  0.43205  0.95232  Biso   1.000  H
  H134     1.0000 0.61893  0.20524  0.77523  Biso   1.000  H
  H135     1.0000 0.59931  0.15843  0.71781  Biso   1.000  H
  C124     1.0000 0.64588  0.09048  0.72549  Biso   1.000  C
  O25      1.0000 0.67906  0.71576  0.68887  Biso   1.000  O
  C125     1.0000 0.71623  0.66807  0.76476  Biso   1.000  C
  H136     1.0000 0.69745  0.35104  0.73044  Biso   1.000  H
  C126     1.0000 0.72348  0.46230  0.78879  Biso   1.000  C
  C127     1.0000 0.50295  0.88103  0.87409  Biso   1.000  C
  C128     1.0000 0.53260  0.63756  0.00400  Biso   1.000  C
  H137     1.0000 0.56683  0.27801  0.91596  Biso   1.000  H
  H138     1.0000 0.52869  0.24496  0.91150  Biso   1.000  H
  C129     1.0000 0.55701  0.14440  0.85717  Biso   1.000  C
  H139     1.0000 0.64657  0.06768  0.68379  Biso   1.000  H
  H140     1.0000 0.66740  0.11959  0.73835  Biso   1.000  H
  H141     1.0000 0.63997  0.02244  0.74939  Biso   1.000  H
  C130     1.0000 0.73056  0.58820  0.79970  Biso   1.000  C
  H142     1.0000 0.72145  0.74838  0.77090  Biso   1.000  H
  O26      1.0000 0.73562  0.38480  0.81958  Biso   1.000  O
  H143     1.0000 0.52026  0.90777  0.84728  Biso   1.000  H
  H144     1.0000 0.48509  0.84552  0.85006  Biso   1.000  H
  C131     1.0000 0.49025  0.98264  0.90938  Biso   1.000  C
  H145     1.0000 0.51993  0.71015  0.01080  Biso   1.000  H
  H146     1.0000 0.52345  0.57461  0.02878  Biso   1.000  H
  C132     1.0000 0.56828  0.65772  0.02096  Biso   1.000  C
  H147     1.0000 0.53990  0.12660  0.82766  Biso   1.000  H
  H148     1.0000 0.57800  0.15352  0.83756  Biso   1.000  H
  H149     1.0000 0.55858  0.08013  0.88584  Biso   1.000  H
  C133     1.0000 0.75237  0.62020  0.85200  Biso   1.000  C
  H150     1.0000 0.47220  0.95608  0.93385  Biso   1.000  H
  H151     1.0000 0.48243  0.04427  0.88244  Biso   1.000  H
  H152     1.0000 0.50782  0.01385  0.93487  Biso   1.000  H
  C134     1.0000 0.58232  0.76696  0.01332  Biso   1.000  C
  C135     1.0000 0.58802  0.56575  0.04106  Biso   1.000  C
  H153     1.0000 0.76776  0.55532  0.86070  Biso   1.000  H
  H154     1.0000 0.76526  0.69104  0.84264  Biso   1.000  H
  C136     1.0000 0.73146  0.64352  0.90536  Biso   1.000  C
  H155     1.0000 0.56903  0.83062  0.00025  Biso   1.000  H
  C137     1.0000 0.61556  0.78573  0.02445  Biso   1.000  C
  O27      1.0000 0.57277  0.45879  0.04866  Biso   1.000  O
  C138     1.0000 0.62104  0.58469  0.05308  Biso   1.000  C
  C139     1.0000 0.71781  0.75408  0.91411  Biso   1.000  C
  C140     1.0000 0.72502  0.55462  0.94503  Biso   1.000  C
  O28      1.0000 0.63093  0.89181  0.01619  Biso   1.000  O
  C141     1.0000 0.63518  0.69358  0.04468  Biso   1.000  C
  C142     1.0000 0.59195  0.36323  0.06880  Biso   1.000  C
  H156     1.0000 0.63416  0.52174  0.06734  Biso   1.000  H
  C143     1.0000 0.69832  0.77372  0.96283  Biso   1.000  C
  O29      1.0000 0.72520  0.84008  0.87365  Biso   1.000  O
  C144     1.0000 0.70494  0.57347  0.99349  Biso   1.000  C
  H157     1.0000 0.73441  0.47940  0.93933  Biso   1.000  H
  C145     1.0000 0.61167  0.98834  0.99724  Biso   1.000  C
  C146     1.0000 0.67152  0.71006  0.05661  Biso   1.000  C
  H158     1.0000 0.60917  0.34508  0.04009  Biso   1.000  H
  H159     1.0000 0.60261  0.38217  0.10728  Biso   1.000  H
  C147     1.0000 0.56942  0.26013  0.07521  Biso   1.000  C
  C148     1.0000 0.69193  0.68552  0.00285  Biso   1.000  C
  H160     1.0000 0.68920  0.84929  0.96871  Biso   1.000  H
  C149     1.0000 0.70975  0.95152  0.87935  Biso   1.000  C
  O30      1.0000 0.69713  0.48860  0.03346  Biso   1.000  O
  H161     1.0000 0.59987  0.96896  0.95992  Biso   1.000  H
  C150     1.0000 0.63421  0.09083  0.98801  Biso   1.000  C
  H162     1.0000 0.59535  0.00789  0.02746  Biso   1.000  H
  H163     1.0000 0.67854  0.65702  0.08903  Biso   1.000  H
  H164     1.0000 0.67552  0.79160  0.06986  Biso   1.000  H
  H165     1.0000 0.55988  0.23979  0.03651  Biso   1.000  H
  H166     1.0000 0.58174  0.19297  0.09093  Biso   1.000  H
  H167     1.0000 0.55194  0.28038  0.10233  Biso   1.000  H
  H168     1.0000 0.68573  0.94266  0.87634  Biso   1.000  H
  H169     1.0000 0.71544  0.98667  0.91813  Biso   1.000  H
  C151     1.0000 0.72169  0.02858  0.83014  Biso   1.000  C
  C152     1.0000 0.70868  0.37182  0.02476  Biso   1.000  C
  H170     1.0000 0.64922  0.07268  0.95612  Biso   1.000  H
  H171     1.0000 0.62129  0.16035  0.97741  Biso   1.000  H
  H172     1.0000 0.64671  0.10617  0.02450  Biso   1.000  H
  H173     1.0000 0.71582  0.99316  0.79197  Biso   1.000  H
  H174     1.0000 0.71154  0.10617  0.83296  Biso   1.000  H
  H175     1.0000 0.74549  0.03665  0.83349  Biso   1.000  H
  H176     1.0000 0.70133  0.34219  0.98562  Biso   1.000  H
  H177     1.0000 0.73286  0.37016  0.02653  Biso   1.000  H
  C153     1.0000 0.69510  0.29721  0.07282  Biso   1.000  C
  H178     1.0000 0.67118  0.29879  0.07035  Biso   1.000  H
  H179     1.0000 0.70276  0.21629  0.06823  Biso   1.000  H
  H180     1.0000 0.70249  0.32746  0.11134  Biso   1.000  H
  C154     1.0000 0.42123  0.40286  0.29450  Biso   1.000  C
  C155     1.0000 0.39061  0.40908  0.31959  Biso   1.000  C
  O31      1.0000 0.43940  0.30142  0.29180  Biso   1.000  O
  C156     1.0000 0.43553  0.50307  0.27082  Biso   1.000  C
  C157     1.0000 0.37301  0.51333  0.32008  Biso   1.000  C
  H181     1.0000 0.38152  0.34087  0.33677  Biso   1.000  H
  C158     1.0000 0.42589  0.19805  0.31809  Biso   1.000  C
  C159     1.0000 0.41830  0.60757  0.27246  Biso   1.000  C
  C160     1.0000 0.46951  0.49737  0.24480  Biso   1.000  C
  C161     1.0000 0.33845  0.51762  0.34322  Biso   1.000  C
  C162     1.0000 0.38722  0.61371  0.29613  Biso   1.000  C
  H182     1.0000 0.40505  0.17675  0.29790  Biso   1.000  H
  H183     1.0000 0.42160  0.21199  0.36040  Biso   1.000  H
  C163     1.0000 0.45056  0.10109  0.31142  Biso   1.000  C
  H184     1.0000 0.42793  0.67675  0.25713  Biso   1.000  H
  H185     1.0000 0.47988  0.57549  0.24847  Biso   1.000  H
  H186     1.0000 0.48293  0.44126  0.26813  Biso   1.000  H
  C164     1.0000 0.46945  0.46037  0.18040  Biso   1.000  C
  C165     1.0000 0.31397  0.48808  0.29437  Biso   1.000  C
  H187     1.0000 0.33633  0.46090  0.37600  Biso   1.000  H
  H188     1.0000 0.33391  0.59697  0.35873  Biso   1.000  H
  O32      1.0000 0.36884  0.71471  0.29927  Biso   1.000  O
  H189     1.0000 0.44272  0.03025  0.33116  Biso   1.000  H
  H190     1.0000 0.47147  0.12520  0.32944  Biso   1.000  H
  H191     1.0000 0.45351  0.08469  0.26941  Biso   1.000  H
  C166     1.0000 0.47689  0.34657  0.16357  Biso   1.000  C
  C167     1.0000 0.46291  0.54296  0.13632  Biso   1.000  C
  C168     1.0000 0.30715  0.36209  0.28253  Biso   1.000  C
  C169     1.0000 0.29887  0.56839  0.26102  Biso   1.000  C
  C170     1.0000 0.37913  0.81457  0.26707  Biso   1.000  C
  H192     1.0000 0.48181  0.28976  0.19308  Biso   1.000  H
  C171     1.0000 0.47730  0.31413  0.10425  Biso   1.000  C
  O33      1.0000 0.45618  0.65562  0.15505  Biso   1.000  O
  C172     1.0000 0.46325  0.51061  0.07717  Biso   1.000  C
  C173     1.0000 0.28381  0.33193  0.23522  Biso   1.000  C
  O34      1.0000 0.32097  0.28424  0.31111  Biso   1.000  O
  C174     1.0000 0.27656  0.53770  0.21119  Biso   1.000  C
  H193     1.0000 0.30258  0.64896  0.26954  Biso   1.000  H
  H194     1.0000 0.38111  0.79467  0.22475  Biso   1.000  H
  H195     1.0000 0.40072  0.84157  0.28217  Biso   1.000  H
  C175     1.0000 0.35415  0.90952  0.27449  Biso   1.000  C
  O35      1.0000 0.48419  0.20235  0.08459  Biso   1.000  O
  C176     1.0000 0.47005  0.39663  0.06030  Biso   1.000  C
  C177     1.0000 0.45127  0.74435  0.11154  Biso   1.000  C
  H196     1.0000 0.45870  0.56795  0.04771  Biso   1.000  H
  C178     1.0000 0.26947  0.41180  0.20028  Biso   1.000  C
  H197     1.0000 0.27859  0.25162  0.22908  Biso   1.000  H
  O36      1.0000 0.26442  0.61520  0.18045  Biso   1.000  O
  H198     1.0000 0.35347  0.93232  0.31619  Biso   1.000  H
  H199     1.0000 0.33264  0.88041  0.26163  Biso   1.000  H
  H200     1.0000 0.36007  0.97756  0.25059  Biso   1.000  H
  C179     1.0000 0.49709  0.11897  0.12589  Biso   1.000  C
  C180     1.0000 0.46746  0.36235  0.99598  Biso   1.000  C
  H201     1.0000 0.43323  0.72199  0.08402  Biso   1.000  H
  H202     1.0000 0.47134  0.75504  0.08848  Biso   1.000  H
  C181     1.0000 0.44302  0.85560  0.14281  Biso   1.000  C
  C182     1.0000 0.24767  0.37980  0.14802  Biso   1.000  C
  H203     1.0000 0.47980  0.09223  0.15270  Biso   1.000  H
  H204     1.0000 0.51496  0.15448  0.14997  Biso   1.000  H
  C183     1.0000 0.50981  0.01727  0.09060  Biso   1.000  C
  C184     1.0000 0.43178  0.34228  0.97902  Biso   1.000  C
  H205     1.0000 0.48011  0.28985  0.98922  Biso   1.000  H
  H206     1.0000 0.47661  0.42539  0.97124  Biso   1.000  H
  H207     1.0000 0.46013  0.87331  0.17232  Biso   1.000  H
  H208     1.0000 0.42204  0.84648  0.16242  Biso   1.000  H
  H209     1.0000 0.44146  0.91987  0.11414  Biso   1.000  H
  H210     1.0000 0.23228  0.44468  0.13928  Biso   1.000  H
  H211     1.0000 0.23480  0.30896  0.15734  Biso   1.000  H
  C185     1.0000 0.26857  0.35648  0.09462  Biso   1.000  C
  H212     1.0000 0.52784  0.04392  0.06613  Biso   1.000  H
  H213     1.0000 0.51763  0.95573  0.11754  Biso   1.000  H
  H214     1.0000 0.49221  0.98615  0.06511  Biso   1.000  H
  C186     1.0000 0.41772  0.23304  0.98666  Biso   1.000  C
  C187     1.0000 0.41201  0.43416  0.95892  Biso   1.000  C
  C188     1.0000 0.28223  0.24592  0.08587  Biso   1.000  C
  C189     1.0000 0.27502  0.44538  0.05495  Biso   1.000  C
  C190     1.0000 0.38447  0.21427  0.97553  Biso   1.000  C
  H215     1.0000 0.43100  0.16938  0.99973  Biso   1.000  H
  C191     1.0000 0.37902  0.41531  0.94690  Biso   1.000  C
  O37      1.0000 0.42727  0.54112  0.95137  Biso   1.000  O
  O38      1.0000 0.27483  0.15992  0.12633  Biso   1.000  O
  C192     1.0000 0.30171  0.22628  0.03715  Biso   1.000  C
  H216     1.0000 0.26565  0.52060  0.06065  Biso   1.000  H
  C193     1.0000 0.29512  0.42653  0.00654  Biso   1.000  C
  C194     1.0000 0.36488  0.30642  0.95530  Biso   1.000  C
  O39      1.0000 0.36910  0.10810  0.98379  Biso   1.000  O
  H217     1.0000 0.36590  0.47826  0.93264  Biso   1.000  H
  C195     1.0000 0.40809  0.63677  0.93118  Biso   1.000  C
  C196     1.0000 0.29028  0.04848  0.12068  Biso   1.000  C
  H218     1.0000 0.31083  0.15071  0.03132  Biso   1.000  H
  C197     1.0000 0.30811  0.31448  0.99717  Biso   1.000  C
  O40      1.0000 0.30291  0.51131  0.96652  Biso   1.000  O
  C198     1.0000 0.32854  0.28994  0.94337  Biso   1.000  C
  C199     1.0000 0.38839  0.01157  0.00274  Biso   1.000  C
  H219     1.0000 0.39089  0.65492  0.95994  Biso   1.000  H
  H220     1.0000 0.39745  0.61783  0.89270  Biso   1.000  H
  C200     1.0000 0.43064  0.73987  0.92477  Biso   1.000  C
  H221     1.0000 0.31430  0.05734  0.12364  Biso   1.000  H
  H222     1.0000 0.28460  0.01324  0.08185  Biso   1.000  H
  C201     1.0000 0.27835  0.97142  0.16984  Biso   1.000  C
  C202     1.0000 0.29135  0.62818  0.97522  Biso   1.000  C
  H223     1.0000 0.32149  0.34298  0.91095  Biso   1.000  H
  H224     1.0000 0.32451  0.20840  0.93012  Biso   1.000  H
  H225     1.0000 0.40019  0.03104  0.04006  Biso   1.000  H
  H226     1.0000 0.40469  0.99211  0.97252  Biso   1.000  H
  C203     1.0000 0.36585  0.90917  0.01201  Biso   1.000  C
  H227     1.0000 0.44018  0.76021  0.96347  Biso   1.000  H
  H228     1.0000 0.41830  0.80694  0.90905  Biso   1.000  H
  H229     1.0000 0.44809  0.71962  0.89765  Biso   1.000  H
  H230     1.0000 0.28422  0.00684  0.20805  Biso   1.000  H
  H231     1.0000 0.28850  0.89383  0.16702  Biso   1.000  H
  H232     1.0000 0.25454  0.96335  0.16649  Biso   1.000  H
  H233     1.0000 0.29873  0.65781  0.01436  Biso   1.000  H
  H234     1.0000 0.26718  0.62984  0.97345  Biso   1.000  H
  C204     1.0000 0.30494  0.70279  0.92716  Biso   1.000  C
  H235     1.0000 0.35333  0.89383  0.97548  Biso   1.000  H
  H236     1.0000 0.35081  0.92732  0.04386  Biso   1.000  H
  H237     1.0000 0.37874  0.83965  0.02262  Biso   1.000  H
  H238     1.0000 0.32886  0.70121  0.92963  Biso   1.000  H
  H239     1.0000 0.29730  0.78371  0.93175  Biso   1.000  H
  H240     1.0000 0.29757  0.67245  0.88868  Biso   1.000  H
  C205     1.0000 0.74493  0.62388  0.60000  Biso   1.000  C
  C206     1.0000 0.76239  0.60845  0.54253  Biso   1.000  C
  H241     1.0000 0.73382  0.70095  0.60022  Biso   1.000  H
  H242     1.0000 0.72809  0.56216  0.60371  Biso   1.000  H
  C207     1.0000 0.76863  0.61669  0.65159  Biso   1.000  C
  C208     1.0000 0.76360  0.48895  0.51735  Biso   1.000  C
  C209     1.0000 0.77712  0.69586  0.51426  Biso   1.000  C
  C210     1.0000 0.77820  0.50999  0.67522  Biso   1.000  C
  C211     1.0000 0.78195  0.71848  0.67628  Biso   1.000  C
  O41      1.0000 0.75059  0.40601  0.54213  Biso   1.000  O
  C212     1.0000 0.78102  0.47063  0.46240  Biso   1.000  C
  C213     1.0000 0.79550  0.67728  0.45957  Biso   1.000  C
  H243     1.0000 0.77573  0.77301  0.52990  Biso   1.000  H
  H244     1.0000 0.76923  0.43968  0.65928  Biso   1.000  H
  C214     1.0000 0.80075  0.50359  0.72196  Biso   1.000  C
  O42      1.0000 0.77170  0.82167  0.65075  Biso   1.000  O
  C215     1.0000 0.80438  0.71278  0.72280  Biso   1.000  C
  C216     1.0000 0.79661  0.55690  0.43470  Biso   1.000  C
  H245     1.0000 0.78122  0.39418  0.44570  Biso   1.000  H
  O43      1.0000 0.80955  0.75881  0.43563  Biso   1.000  O
  O44      1.0000 0.81112  0.40058  0.74718  Biso   1.000  O
  C217     1.0000 0.81436  0.60538  0.74630  Biso   1.000  C
  C218     1.0000 0.77042  0.92276  0.69130  Biso   1.000  C
  C219     1.0000 0.78422  0.91995  0.66281  Biso   1.000  C
  H246     1.0000 0.81313  0.78318  0.73896  Biso   1.000  H
  C220     1.0000 0.81665  0.53779  0.38046  Biso   1.000  C
  C221     1.0000 0.79668  0.29327  0.72708  Biso   1.000  C
  C222     1.0000 0.83940  0.59828  0.79665  Biso   1.000  C
  H247     1.0000 0.76102  0.89821  0.72929  Biso   1.000  H
  H248     1.0000 0.79273  0.95283  0.69921  Biso   1.000  H
  H249     1.0000 0.78147  0.93661  0.70530  Biso   1.000  H
  C223     1.0000 0.75014  0.01561  0.66431  Biso   1.000  C
  H250     1.0000 0.80795  0.91697  0.65521  Biso   1.000  H
  C224     1.0000 0.76862  0.02043  0.62601  Biso   1.000  C
  H251     1.0000 0.81591  0.60898  0.35537  Biso   1.000  H
  H252     1.0000 0.80753  0.47159  0.35714  Biso   1.000  H
  C225     1.0000 0.85179  0.51122  0.39897  Biso   1.000  C
  H253     1.0000 0.80117  0.28090  0.68476  Biso   1.000  H
  H254     1.0000 0.77273  0.29546  0.73207  Biso   1.000  H
  C226     1.0000 0.81142  0.19726  0.76330  Biso   1.000  C
  H255     1.0000 0.83928  0.67307  0.81887  Biso   1.000  H
  H256     1.0000 0.83298  0.53507  0.82400  Biso   1.000  H
  C227     1.0000 0.87375  0.57479  0.77572  Biso   1.000  C
  H257     1.0000 0.72704  0.99246  0.66528  Biso   1.000  H
  H258     1.0000 0.75645  0.02727  0.62319  Biso   1.000  H
  H259     1.0000 0.75322  0.08873  0.68635  Biso   1.000  H
  H260     1.0000 0.74532  0.00473  0.61970  Biso   1.000  H
  H261     1.0000 0.77936  0.02551  0.58776  Biso   1.000  H
  H262     1.0000 0.77144  0.09469  0.64726  Biso   1.000  H
  C228     1.0000 0.86080  0.39926  0.41672  Biso   1.000  C
  C229     1.0000 0.87512  0.60039  0.39967  Biso   1.000  C
  H263     1.0000 0.80160  0.12230  0.75151  Biso   1.000  H
  H264     1.0000 0.80732  0.21182  0.80514  Biso   1.000  H
  H265     1.0000 0.83502  0.19463  0.75699  Biso   1.000  H
  C230     1.0000 0.88755  0.46379  0.77991  Biso   1.000  C
  C231     1.0000 0.89257  0.66500  0.75200  Biso   1.000  C
  O45      1.0000 0.83663  0.31554  0.41549  Biso   1.000  O
  C232     1.0000 0.89307  0.37656  0.43470  Biso   1.000  C
  H266     1.0000 0.86908  0.67736  0.38762  Biso   1.000  H
  C233     1.0000 0.90703  0.57785  0.41783  Biso   1.000  C
  H267     1.0000 0.87538  0.40216  0.79710  Biso   1.000  H
  C234     1.0000 0.91876  0.44056  0.75950  Biso   1.000  C
  O46      1.0000 0.87828  0.77398  0.75014  Biso   1.000  O
  C235     1.0000 0.92381  0.64221  0.73234  Biso   1.000  C
  C236     1.0000 0.84447  0.19876  0.43258  Biso   1.000  C
  C237     1.0000 0.91634  0.46537  0.43550  Biso   1.000  C
  H268     1.0000 0.89916  0.29949  0.44650  Biso   1.000  H
  O47      1.0000 0.93121  0.66202  0.41973  Biso   1.000  O
  O48      1.0000 0.93346  0.33149  0.76123  Biso   1.000  O
  C238     1.0000 0.93722  0.52998  0.73508  Biso   1.000  C
  C239     1.0000 0.89686  0.86867  0.72713  Biso   1.000  C
  H269     1.0000 0.93634  0.70454  0.71666  Biso   1.000  H
  H270     1.0000 0.85398  0.19788  0.47318  Biso   1.000  H
  H271     1.0000 0.86058  0.16491  0.40546  Biso   1.000  H
  C240     1.0000 0.81308  0.12792  0.43029  Biso   1.000  C
  C241     1.0000 0.95133  0.43942  0.45436  Biso   1.000  C
  C242     1.0000 0.92384  0.77459  0.39830  Biso   1.000  C
  C243     1.0000 0.91885  0.24128  0.79431  Biso   1.000  C
  C244     1.0000 0.97037  0.50640  0.70866  Biso   1.000  C
  H272     1.0000 0.90373  0.85069  0.68644  Biso   1.000  H
  H273     1.0000 0.91663  0.88234  0.75204  Biso   1.000  H
  C245     1.0000 0.87517  0.97545  0.72708  Biso   1.000  C
  H274     1.0000 0.80357  0.13107  0.39022  Biso   1.000  H
  H275     1.0000 0.79756  0.16070  0.45825  Biso   1.000  H
  H276     1.0000 0.81783  0.04629  0.44084  Biso   1.000  H
  C246     1.0000 0.95692  0.45546  0.52022  Biso   1.000  C
  H277     1.0000 0.96616  0.49211  0.43285  Biso   1.000  H
  H278     1.0000 0.95673  0.35771  0.44349  Biso   1.000  H
  H279     1.0000 0.90815  0.81396  0.42441  Biso   1.000  H
  H280     1.0000 0.91399  0.76959  0.35806  Biso   1.000  H
  C247     1.0000 0.95536  0.84210  0.39698  Biso   1.000  C
  H281     1.0000 0.89736  0.21997  0.77656  Biso   1.000  H
  H282     1.0000 0.91552  0.26749  0.83539  Biso   1.000  H
  C248     1.0000 0.94161  0.13721  0.79343  Biso   1.000  C
  C249     1.0000 0.96698  0.48816  0.64271  Biso   1.000  C
  H283     1.0000 0.98509  0.57356  0.71688  Biso   1.000  H
  H284     1.0000 0.98015  0.43574  0.72721  Biso   1.000  H
  H285     1.0000 0.85574  0.96090  0.70221  Biso   1.000  H
  H286     1.0000 0.86848  0.99228  0.76759  Biso   1.000  H
  H287     1.0000 0.88716  0.04278  0.71162  Biso   1.000  H
  C250     1.0000 0.95423  0.36200  0.55967  Biso   1.000  C
  C251     1.0000 0.96490  0.56470  0.54359  Biso   1.000  C
  H288     1.0000 0.96969  0.80773  0.36752  Biso   1.000  H
  H289     1.0000 0.96615  0.83851  0.43603  Biso   1.000  H
  H290     1.0000 0.95080  0.92399  0.38678  Biso   1.000  H
  H291     1.0000 0.94584  0.11529  0.75244  Biso   1.000  H
  H292     1.0000 0.93153  0.07102  0.81379  Biso   1.000  H
  H293     1.0000 0.96225  0.15772  0.81353  Biso   1.000  H
  C252     1.0000 0.95939  0.37857  0.61948  Biso   1.000  C
  C253     1.0000 0.96971  0.58206  0.60313  Biso   1.000  C
  O49      1.0000 0.94601  0.25487  0.53436  Biso   1.000  O
  H294     1.0000 0.96710  0.62932  0.51753  Biso   1.000  H
  H295     1.0000 0.95770  0.31352  0.64541  Biso   1.000  H
  O50      1.0000 0.97784  0.68902  0.62844  Biso   1.000  O
  C254     1.0000 0.93982  0.15948  0.57261  Biso   1.000  C
  C255     1.0000 0.98118  0.78757  0.59046  Biso   1.000  C
  H296     1.0000 0.91993  0.17140  0.59593  Biso   1.000  H
  H297     1.0000 0.95865  0.14203  0.59920  Biso   1.000  H
  C256     1.0000 0.93481  0.06198  0.52230  Biso   1.000  C
  H298     1.0000 0.92462  0.18587  0.60331  Biso   1.000  H
  H299     1.0000 0.96056  0.13677  0.59266  Biso   1.000  H
  C257     1.0000 0.92571  0.05401  0.54301  Biso   1.000  C
  H300     1.0000 0.96028  0.80396  0.56930  Biso   1.000  H
  H301     1.0000 0.99819  0.77249  0.56090  Biso   1.000  H
  C258     1.0000 0.99084  0.89041  0.62920  Biso   1.000  C
  H302     1.0000 0.91511  0.07969  0.49871  Biso   1.000  H
  H303     1.0000 0.95380  0.06085  0.49677  Biso   1.000  H
  H304     1.0000 0.90373  0.07233  0.52760  Biso   1.000  H
  H305     1.0000 0.93236  0.98457  0.54085  Biso   1.000  H
  H306     1.0000 0.93962  0.03042  0.51037  Biso   1.000  H
  H307     1.0000 0.92437  0.98974  0.57159  Biso   1.000  H
  H308     1.0000 0.99401  0.95993  0.60455  Biso   1.000  H
  H309     1.0000 0.97354  0.90575  0.65747  Biso   1.000  H
  H310     1.0000 0.01123  0.87217  0.65066  Biso   1.000  H
  C259     1.0000 0.25511  0.37612  0.39998  Biso   1.000  C
  C260     1.0000 0.23140  0.38331  0.34839  Biso   1.000  C
  C261     1.0000 0.23764  0.39146  0.45745  Biso   1.000  C
  H311     1.0000 0.26624  0.29897  0.39981  Biso   1.000  H
  H312     1.0000 0.27194  0.43784  0.39627  Biso   1.000  H
  C262     1.0000 0.21808  0.28152  0.32370  Biso   1.000  C
  C263     1.0000 0.22183  0.49001  0.32476  Biso   1.000  C
  C264     1.0000 0.23643  0.51096  0.48263  Biso   1.000  C
  C265     1.0000 0.22291  0.30414  0.48572  Biso   1.000  C
  O51      1.0000 0.22833  0.17833  0.34927  Biso   1.000  O
  C266     1.0000 0.19566  0.28722  0.27718  Biso   1.000  C
  H313     1.0000 0.23083  0.56023  0.34070  Biso   1.000  H
  C267     1.0000 0.19928  0.49641  0.27802  Biso   1.000  C
  O52      1.0000 0.24945  0.59399  0.45789  Biso   1.000  O
  C268     1.0000 0.21904  0.52937  0.53758  Biso   1.000  C
  H314     1.0000 0.22430  0.22699  0.47009  Biso   1.000  H
  C269     1.0000 0.20454  0.32272  0.54041  Biso   1.000  C
  C270     1.0000 0.22962  0.07724  0.30868  Biso   1.000  C
  C271     1.0000 0.21581  0.07996  0.33721  Biso   1.000  C
  C272     1.0000 0.18570  0.39462  0.25373  Biso   1.000  C
  H315     1.0000 0.18693  0.21682  0.26102  Biso   1.000  H
  O53      1.0000 0.18891  0.59942  0.25280  Biso   1.000  O
  C273     1.0000 0.20342  0.44310  0.56528  Biso   1.000  C
  H316     1.0000 0.21881  0.60573  0.55428  Biso   1.000  H
  O54      1.0000 0.19049  0.24119  0.56435  Biso   1.000  O
  H317     1.0000 0.23901  0.10179  0.27073  Biso   1.000  H
  H318     1.0000 0.20730  0.04708  0.30077  Biso   1.000  H
  H319     1.0000 0.21857  0.06330  0.29468  Biso   1.000  H
  C274     1.0000 0.24992  0.98439  0.33571  Biso   1.000  C
  H320     1.0000 0.19208  0.08303  0.34477  Biso   1.000  H
  C275     1.0000 0.23142  0.97957  0.37401  Biso   1.000  C
  C276     1.0000 0.16064  0.40172  0.20333  Biso   1.000  C
  C277     1.0000 0.20335  0.70665  0.27290  Biso   1.000  C
  C278     1.0000 0.18338  0.46221  0.61957  Biso   1.000  C
  H321     1.0000 0.27299  0.00754  0.33470  Biso   1.000  H
  H322     1.0000 0.24359  0.97265  0.37679  Biso   1.000  H
  H323     1.0000 0.24682  0.91127  0.31363  Biso   1.000  H
  H324     1.0000 0.25472  0.99527  0.38028  Biso   1.000  H
  H325     1.0000 0.22068  0.97440  0.41222  Biso   1.000  H
  H326     1.0000 0.22859  0.90523  0.35272  Biso   1.000  H
  H327     1.0000 0.16078  0.32693  0.18111  Biso   1.000  H
  H328     1.0000 0.16705  0.46493  0.17598  Biso   1.000  H
  C279     1.0000 0.12631  0.42521  0.22431  Biso   1.000  C
  H329     1.0000 0.19886  0.71910  0.31526  Biso   1.000  H
  H330     1.0000 0.22731  0.70454  0.26791  Biso   1.000  H
  C280     1.0000 0.18861  0.80265  0.23668  Biso   1.000  C
  H331     1.0000 0.18413  0.39102  0.64461  Biso   1.000  H
  H332     1.0000 0.19251  0.52841  0.64284  Biso   1.000  H
  C281     1.0000 0.14825  0.48878  0.60101  Biso   1.000  C
  C282     1.0000 0.11251  0.53621  0.22011  Biso   1.000  C
  C283     1.0000 0.10747  0.33500  0.24803  Biso   1.000  C
  H333     1.0000 0.19844  0.87770  0.24852  Biso   1.000  H
  H334     1.0000 0.19271  0.78818  0.19485  Biso   1.000  H
  H335     1.0000 0.16501  0.80537  0.24299  Biso   1.000  H
  C284     1.0000 0.13923  0.60065  0.58330  Biso   1.000  C
  C285     1.0000 0.12491  0.39961  0.60031  Biso   1.000  C
  H336     1.0000 0.12465  0.59784  0.20289  Biso   1.000  H
  C286     1.0000 0.08130  0.55935  0.24048  Biso   1.000  C
  O55      1.0000 0.12178  0.22602  0.24984  Biso   1.000  O
  C287     1.0000 0.07625  0.35779  0.26764  Biso   1.000  C
  O56      1.0000 0.16341  0.68446  0.58454  Biso   1.000  O
  C288     1.0000 0.10696  0.62336  0.56532  Biso   1.000  C
  H337     1.0000 0.13096  0.32264  0.61237  Biso   1.000  H
  C289     1.0000 0.09303  0.42206  0.58220  Biso   1.000  C
  O57      1.0000 0.06657  0.66851  0.23875  Biso   1.000  O
  C290     1.0000 0.06281  0.47002  0.26495  Biso   1.000  C
  C291     1.0000 0.10320  0.13133  0.27290  Biso   1.000  C
  H338     1.0000 0.06370  0.29546  0.28337  Biso   1.000  H
  C292     1.0000 0.15559  0.80116  0.56740  Biso   1.000  C
  C293     1.0000 0.08370  0.53463  0.56453  Biso   1.000  C
  H339     1.0000 0.10090  0.70042  0.55353  Biso   1.000  H
  O58      1.0000 0.06883  0.33798  0.58030  Biso   1.000  O
  C294     1.0000 0.08118  0.75872  0.20571  Biso   1.000  C
  C295     1.0000 0.02966  0.49360  0.29132  Biso   1.000  C
  H340     1.0000 0.09630  0.14931  0.31354  Biso   1.000  H
  H341     1.0000 0.08343  0.11757  0.24794  Biso   1.000  H
  C296     1.0000 0.12487  0.02446  0.27290  Biso   1.000  C
  H342     1.0000 0.14606  0.80203  0.52685  Biso   1.000  H
  H343     1.0000 0.13946  0.83509  0.59452  Biso   1.000  H
  C297     1.0000 0.18698  0.87208  0.56969  Biso   1.000  C
  C298     1.0000 0.04873  0.56058  0.54566  Biso   1.000  C
  C299     1.0000 0.07620  0.22541  0.60172  Biso   1.000  C
  H344     1.0000 0.10268  0.78003  0.22343  Biso   1.000  H
  H345     1.0000 0.08451  0.73251  0.16459  Biso   1.000  H
  C300     1.0000 0.05843  0.86279  0.20655  Biso   1.000  C
  H346     1.0000 0.01494  0.42644  0.28310  Biso   1.000  H
  H347     1.0000 0.01988  0.56426  0.27277  Biso   1.000  H
  C301     1.0000 0.03306  0.51175  0.35727  Biso   1.000  C
  H348     1.0000 0.14430  0.03910  0.29777  Biso   1.000  H
  H349     1.0000 0.13155  0.00772  0.23239  Biso   1.000  H
  H350     1.0000 0.11288  0.95722  0.28836  Biso   1.000  H
  H351     1.0000 0.19649  0.86893  0.60976  Biso   1.000  H
  H352     1.0000 0.20248  0.83930  0.54173  Biso   1.000  H
  H353     1.0000 0.18223  0.95371  0.55918  Biso   1.000  H
  C302     1.0000 0.04314  0.54445  0.47976  Biso   1.000  C
  H354     1.0000 0.03387  0.50789  0.56718  Biso   1.000  H
  H355     1.0000 0.04333  0.64229  0.55649  Biso   1.000  H
  H356     1.0000 0.09188  0.18604  0.57557  Biso   1.000  H
  H357     1.0000 0.08605  0.23041  0.64192  Biso   1.000  H
  C303     1.0000 0.04468  0.15790  0.60300  Biso   1.000  C
  H358     1.0000 0.05421  0.88471  0.24754  Biso   1.000  H
  H359     1.0000 0.06853  0.92890  0.18619  Biso   1.000  H
  H360     1.0000 0.03778  0.84228  0.18645  Biso   1.000  H
  C304     1.0000 0.04064  0.62143  0.38050  Biso   1.000  C
  C305     1.0000 0.03032  0.41785  0.39685  Biso   1.000  C
  C306     1.0000 0.04580  0.63800  0.44031  Biso   1.000  C
  C307     1.0000 0.03514  0.43530  0.45639  Biso   1.000  C
  H361     1.0000 0.03037  0.19227  0.63251  Biso   1.000  H
  H362     1.0000 0.03389  0.16149  0.56395  Biso   1.000  H
  H363     1.0000 0.04924  0.07601  0.61320  Biso   1.000  H
  H364     1.0000 0.04233  0.68648  0.35457  Biso   1.000  H
  O59      1.0000 0.02220  0.31098  0.37154  Biso   1.000  O
  O60      1.0000 0.05402  0.74505  0.46562  Biso   1.000  O
  H365     1.0000 0.03293  0.37068  0.48245  Biso   1.000  H
  C308     1.0000 0.01886  0.21243  0.40957  Biso   1.000  C
  C309     1.0000 0.06022  0.84052  0.42741  Biso   1.000  C
  H366     1.0000 0.03976  0.19604  0.43068  Biso   1.000  H
  H367     1.0000 0.00187  0.22751  0.43912  Biso   1.000  H
  C310     1.0000 0.00920  0.10959  0.37079  Biso   1.000  C
  H368     1.0000 0.08013  0.82851  0.40405  Biso   1.000  H
  H369     1.0000 0.04141  0.85797  0.40078  Biso   1.000  H
  C311     1.0000 0.06522  0.93802  0.47768  Biso   1.000  C
  H370     1.0000 0.07541  0.81413  0.39667  Biso   1.000  H
  H371     1.0000 0.03948  0.86314  0.40736  Biso   1.000  H
  C312     1.0000 0.07432  0.94599  0.45701  Biso   1.000  C
  H372     1.0000 0.00603  0.03998  0.39543  Biso   1.000  H
  H373     1.0000 0.02649  0.09425  0.34251  Biso   1.000  H
  H374     1.0000 0.98881  0.12783  0.34932  Biso   1.000  H
  H375     1.0000 0.08493  0.92022  0.50127  Biso   1.000  H
  H376     1.0000 0.04623  0.93915  0.50326  Biso   1.000  H
  H377     1.0000 0.09631  0.92767  0.47238  Biso   1.000  H
  H378     1.0000 0.06768  0.01543  0.45913  Biso   1.000  H
  H379     1.0000 0.06044  0.96949  0.48961  Biso   1.000  H
  H380     1.0000 0.07567  0.01026  0.42839  Biso   1.000  H
  C313     1.0000 0.75011  0.48439  0.16428  Biso   1.000  C
  C314     1.0000 0.77041  0.57715  0.19131  Biso   1.000  C
  H381     1.0000 0.75644  0.47265  0.12320  Biso   1.000  H
  H382     1.0000 0.75321  0.41127  0.18636  Biso   1.000  H
  H383     1.0000 0.72704  0.50754  0.16529  Biso   1.000  H
  C315     1.0000 0.76861  0.47957  0.12598  Biso   1.000  C
  H384     1.0000 0.74531  0.49527  0.11971  Biso   1.000  H
  O61      1.0000 0.77170  0.67833  0.15072  Biso   1.000  O
  H385     1.0000 0.76102  0.60179  0.22930  Biso   1.000  H
  H386     1.0000 0.79273  0.54708  0.19922  Biso   1.000  H
  H387     1.0000 0.78146  0.56330  0.20531  Biso   1.000  H
  C316     1.0000 0.78422  0.57996  0.16282  Biso   1.000  C
  H388     1.0000 0.77935  0.47449  0.08777  Biso   1.000  H
  H389     1.0000 0.77144  0.40531  0.14727  Biso   1.000  H
  C317     1.0000 0.78195  0.78152  0.17629  Biso   1.000  C
  H390     1.0000 0.80792  0.58303  0.15522  Biso   1.000  H
  C318     1.0000 0.76863  0.88331  0.15160  Biso   1.000  C
  C319     1.0000 0.80437  0.78722  0.22281  Biso   1.000  C
  C320     1.0000 0.74490  0.87612  0.10001  Biso   1.000  C
  C321     1.0000 0.77820  0.99001  0.17523  Biso   1.000  C
  C322     1.0000 0.81433  0.89462  0.24631  Biso   1.000  C
  H391     1.0000 0.81310  0.71673  0.23897  Biso   1.000  H
  C323     1.0000 0.76236  0.89146  0.04254  Biso   1.000  C
  H392     1.0000 0.73379  0.79897  0.10023  Biso   1.000  H
  H393     1.0000 0.72806  0.93775  0.10372  Biso   1.000  H
  C324     1.0000 0.80075  0.99641  0.22197  Biso   1.000  C
  H394     1.0000 0.76920  0.06023  0.15929  Biso   1.000  H
  C325     1.0000 0.83937  0.90172  0.29666  Biso   1.000  C
  C326     1.0000 0.77712  0.80405  0.01427  Biso   1.000  C
  C327     1.0000 0.76360  0.01096  0.01736  Biso   1.000  C
  O62      1.0000 0.81109  0.09942  0.24719  Biso   1.000  O
  H395     1.0000 0.83925  0.82693  0.31888  Biso   1.000  H
  H396     1.0000 0.83298  0.96493  0.32401  Biso   1.000  H
  C328     1.0000 0.87372  0.92521  0.27573  Biso   1.000  C
  H397     1.0000 0.77573  0.72699  0.02990  Biso   1.000  H
  C329     1.0000 0.79552  0.82272  0.95958  Biso   1.000  C
  C330     1.0000 0.78101  0.02937  0.96245  Biso   1.000  C
  O63      1.0000 0.75058  0.09399  0.04214  Biso   1.000  O
  C331     1.0000 0.79665  0.20673  0.22709  Biso   1.000  C
  C332     1.0000 0.89256  0.83500  0.25196  Biso   1.000  C
  C333     1.0000 0.88752  0.03621  0.27988  Biso   1.000  C
  O64      1.0000 0.80956  0.74119  0.93564  Biso   1.000  O
  C334     1.0000 0.79661  0.94310  0.93471  Biso   1.000  C
  H398     1.0000 0.78124  0.10573  0.94571  Biso   1.000  H
  H399     1.0000 0.80117  0.21910  0.18473  Biso   1.000  H
  H400     1.0000 0.77270  0.20454  0.23208  Biso   1.000  H
  C335     1.0000 0.81139  0.30274  0.26331  Biso   1.000  C
  O65      1.0000 0.87825  0.72602  0.25015  Biso   1.000  O
  C336     1.0000 0.92378  0.85779  0.23235  Biso   1.000  C
  H401     1.0000 0.87535  0.09784  0.29711  Biso   1.000  H
  C337     1.0000 0.91873  0.05944  0.25951  Biso   1.000  C
  C338     1.0000 0.81665  0.96221  0.88047  Biso   1.000  C
  H402     1.0000 0.80159  0.37770  0.25147  Biso   1.000  H
  H403     1.0000 0.80732  0.28818  0.30514  Biso   1.000  H
  H404     1.0000 0.83499  0.30537  0.25700  Biso   1.000  H
  C339     1.0000 0.89683  0.63125  0.22714  Biso   1.000  C
  C340     1.0000 0.93722  0.97002  0.23509  Biso   1.000  C
  H405     1.0000 0.93631  0.79546  0.21662  Biso   1.000  H
  O66      1.0000 0.93346  0.16851  0.26124  Biso   1.000  O
  H406     1.0000 0.81593  0.89102  0.85542  Biso   1.000  H
  C341     1.0000 0.85181  0.98878  0.89898  Biso   1.000  C
  H407     1.0000 0.80754  0.02841  0.85715  Biso   1.000  H
  H408     1.0000 0.90373  0.64931  0.18645  Biso   1.000  H
  H409     1.0000 0.91660  0.61757  0.25205  Biso   1.000  H
  C342     1.0000 0.87514  0.52446  0.22709  Biso   1.000  C
  C343     1.0000 0.97034  0.99360  0.20867  Biso   1.000  C
  C344     1.0000 0.91882  0.25872  0.29428  Biso   1.000  C
  C345     1.0000 0.87514  0.89961  0.89968  Biso   1.000  C
  C346     1.0000 0.86080  0.10074  0.91673  Biso   1.000  C
  H410     1.0000 0.85571  0.53910  0.20222  Biso   1.000  H
  H411     1.0000 0.88715  0.45722  0.21163  Biso   1.000  H
  H412     1.0000 0.86848  0.50772  0.26760  Biso   1.000  H
  H413     1.0000 0.98509  0.92644  0.21689  Biso   1.000  H
  H414     1.0000 0.98015  0.06426  0.22722  Biso   1.000  H
  C347     1.0000 0.96697  0.01184  0.14272  Biso   1.000  C
  H415     1.0000 0.89735  0.28003  0.27657  Biso   1.000  H
  H416     1.0000 0.91549  0.23251  0.33540  Biso   1.000  H
  C348     1.0000 0.94160  0.36279  0.29344  Biso   1.000  C
  H417     1.0000 0.86910  0.82264  0.88762  Biso   1.000  H
  C349     1.0000 0.90702  0.92206  0.91784  Biso   1.000  C
  O67      1.0000 0.83663  0.18446  0.91550  Biso   1.000  O
  C350     1.0000 0.89307  0.12336  0.93471  Biso   1.000  C
  C351     1.0000 0.96971  0.91785  0.10314  Biso   1.000  C
  C352     1.0000 0.95939  0.12143  0.11949  Biso   1.000  C
  H418     1.0000 0.94582  0.38471  0.25245  Biso   1.000  H
  H419     1.0000 0.93150  0.42890  0.31380  Biso   1.000  H
  H420     1.0000 0.96222  0.34228  0.31354  Biso   1.000  H
  O68      1.0000 0.93123  0.83798  0.91974  Biso   1.000  O
  C353     1.0000 0.91636  0.03463  0.93551  Biso   1.000  C
  C354     1.0000 0.84446  0.30116  0.93259  Biso   1.000  C
  H421     1.0000 0.89916  0.20042  0.94651  Biso   1.000  H
  O69      1.0000 0.97783  0.81098  0.12845  Biso   1.000  O
  C355     1.0000 0.96489  0.93530  0.04360  Biso   1.000  C
  H422     1.0000 0.95770  0.18648  0.14542  Biso   1.000  H
  C356     1.0000 0.95423  0.13800  0.05968  Biso   1.000  C
  C357     1.0000 0.92386  0.72541  0.89831  Biso   1.000  C
  C358     1.0000 0.95132  0.06058  0.95437  Biso   1.000  C
  H423     1.0000 0.85400  0.30212  0.97319  Biso   1.000  H
  H424     1.0000 0.86060  0.33509  0.90547  Biso   1.000  H
  C359     1.0000 0.81307  0.37208  0.93030  Biso   1.000  C
  C360     1.0000 0.98117  0.71234  0.09042  Biso   1.000  C
  H425     1.0000 0.96707  0.87059  0.01754  Biso   1.000  H
  C361     1.0000 0.95689  0.04454  0.02023  Biso   1.000  C
  O70      1.0000 0.94601  0.24513  0.03437  Biso   1.000  O
  H426     1.0000 0.90815  0.68604  0.92442  Biso   1.000  H
  H427     1.0000 0.91401  0.73041  0.85812  Biso   1.000  H
  C362     1.0000 0.95538  0.65790  0.89703  Biso   1.000  C
  H428     1.0000 0.96618  0.00789  0.93286  Biso   1.000  H
  H429     1.0000 0.95672  0.14229  0.94350  Biso   1.000  H
  H430     1.0000 0.80356  0.36893  0.89028  Biso   1.000  H
  H431     1.0000 0.79755  0.33930  0.95826  Biso   1.000  H
  H432     1.0000 0.81783  0.45371  0.94085  Biso   1.000  H
  H433     1.0000 0.96025  0.69604  0.06931  Biso   1.000  H
  H434     1.0000 0.99816  0.72751  0.06091  Biso   1.000  H
  C363     1.0000 0.99083  0.60959  0.12921  Biso   1.000  C
  C364     1.0000 0.93979  0.34052  0.07262  Biso   1.000  C
  H435     1.0000 0.96968  0.69227  0.86753  Biso   1.000  H
  H436     1.0000 0.96614  0.66149  0.93604  Biso   1.000  H
  H437     1.0000 0.95079  0.57601  0.88679  Biso   1.000  H
  H438     1.0000 0.99400  0.53998  0.10456  Biso   1.000  H
  H439     1.0000 0.97354  0.59425  0.15748  Biso   1.000  H
  H440     1.0000 0.01122  0.62783  0.15067  Biso   1.000  H
  H441     1.0000 0.91990  0.32860  0.09594  Biso   1.000  H
  H442     1.0000 0.95862  0.35797  0.09921  Biso   1.000  H
  C365     1.0000 0.93481  0.43802  0.02231  Biso   1.000  C
  H443     1.0000 0.92459  0.31413  0.10332  Biso   1.000  H
  H444     1.0000 0.96055  0.36314  0.09263  Biso   1.000  H
  C366     1.0000 0.92571  0.44599  0.04298  Biso   1.000  C
  H445     1.0000 0.91510  0.42031  0.99872  Biso   1.000  H
  H446     1.0000 0.95382  0.43915  0.99678  Biso   1.000  H
  H447     1.0000 0.93233  0.51543  0.04086  Biso   1.000  H
  H448     1.0000 0.90370  0.42767  0.02761  Biso   1.000  H
  H449     1.0000 0.92436  0.51026  0.07160  Biso   1.000  H
  H450     1.0000 0.93959  0.46958  0.01038  Biso   1.000  H
  C367     1.0000 0.24993  0.51561  0.83570  Biso   1.000  C
  C368     1.0000 0.22962  0.42276  0.80871  Biso   1.000  C
  C369     1.0000 0.23145  0.52043  0.87400  Biso   1.000  C
  H451     1.0000 0.24362  0.52727  0.87678  Biso   1.000  H
  H452     1.0000 0.24685  0.58873  0.81362  Biso   1.000  H
  H453     1.0000 0.27302  0.49246  0.83469  Biso   1.000  H
  H454     1.0000 0.25475  0.50473  0.88032  Biso   1.000  H
  O71      1.0000 0.22836  0.32167  0.84926  Biso   1.000  O
  H455     1.0000 0.23904  0.39821  0.77072  Biso   1.000  H
  H456     1.0000 0.20731  0.45292  0.80076  Biso   1.000  H
  H457     1.0000 0.21860  0.43670  0.79467  Biso   1.000  H
  C370     1.0000 0.21584  0.41995  0.83720  Biso   1.000  C
  H458     1.0000 0.22071  0.52551  0.91221  Biso   1.000  H
  H459     1.0000 0.22860  0.59469  0.85271  Biso   1.000  H
  C371     1.0000 0.21811  0.21848  0.82369  Biso   1.000  C
  H460     1.0000 0.19211  0.41697  0.84480  Biso   1.000  H
  C372     1.0000 0.19566  0.21278  0.77717  Biso   1.000  C
  C373     1.0000 0.23143  0.11669  0.84842  Biso   1.000  C
  C374     1.0000 0.18570  0.10538  0.75372  Biso   1.000  C
  H461     1.0000 0.18693  0.28318  0.76105  Biso   1.000  H
  C375     1.0000 0.22186  0.00999  0.82475  Biso   1.000  C
  C376     1.0000 0.25514  0.12388  0.89997  Biso   1.000  C
  C377     1.0000 0.16067  0.09828  0.70336  Biso   1.000  C
  C378     1.0000 0.19931  0.00359  0.77801  Biso   1.000  C
  H462     1.0000 0.23083  0.93968  0.84074  Biso   1.000  H
  C379     1.0000 0.23767  0.10854  0.95744  Biso   1.000  C
  H463     1.0000 0.26625  0.20103  0.89980  Biso   1.000  H
  H464     1.0000 0.27197  0.06216  0.89626  Biso   1.000  H
  H465     1.0000 0.16079  0.17307  0.68110  Biso   1.000  H
  H466     1.0000 0.16706  0.03507  0.67597  Biso   1.000  H
  C380     1.0000 0.12631  0.07479  0.72430  Biso   1.000  C
  O72      1.0000 0.18894  0.90058  0.75283  Biso   1.000  O
  C381     1.0000 0.22294  0.19586  0.98571  Biso   1.000  C
  C382     1.0000 0.23644  0.98895  0.98262  Biso   1.000  C
  C383     1.0000 0.10750  0.16500  0.74802  Biso   1.000  C
  C384     1.0000 0.11251  0.96379  0.72010  Biso   1.000  C
  C385     1.0000 0.20338  0.79327  0.77289  Biso   1.000  C
  H467     1.0000 0.22433  0.27301  0.97008  Biso   1.000  H
  C386     1.0000 0.20454  0.17728  0.04040  Biso   1.000  C
  O73      1.0000 0.24948  0.90601  0.95788  Biso   1.000  O
  C387     1.0000 0.21902  0.97054  0.03757  Biso   1.000  C
  O74      1.0000 0.12178  0.27398  0.74983  Biso   1.000  O
  C388     1.0000 0.07626  0.14221  0.76763  Biso   1.000  C
  H468     1.0000 0.12468  0.90216  0.70288  Biso   1.000  H
  C389     1.0000 0.08130  0.94056  0.74047  Biso   1.000  C
  H469     1.0000 0.19887  0.78090  0.81525  Biso   1.000  H
  H470     1.0000 0.22734  0.79546  0.76790  Biso   1.000  H
  C390     1.0000 0.18864  0.69726  0.73671  Biso   1.000  C
  O75      1.0000 0.19050  0.25881  0.06434  Biso   1.000  O
  C391     1.0000 0.20343  0.05690  0.06527  Biso   1.000  C
  H471     1.0000 0.21879  0.89418  0.05427  Biso   1.000  H
  C392     1.0000 0.10321  0.36867  0.77289  Biso   1.000  C
  C393     1.0000 0.06284  0.02998  0.76494  Biso   1.000  C
  H472     1.0000 0.06373  0.20454  0.78336  Biso   1.000  H
  O76      1.0000 0.06658  0.83149  0.73874  Biso   1.000  O
  H473     1.0000 0.19845  0.62230  0.74851  Biso   1.000  H
  H474     1.0000 0.19274  0.71182  0.69484  Biso   1.000  H
  H475     1.0000 0.16504  0.69463  0.74298  Biso   1.000  H
  C394     1.0000 0.18339  0.03779  0.11956  Biso   1.000  C
  H476     1.0000 0.09633  0.35069  0.81353  Biso   1.000  H
  H477     1.0000 0.08344  0.38243  0.74793  Biso   1.000  H
  C395     1.0000 0.12490  0.47545  0.77289  Biso   1.000  C
  C396     1.0000 0.02969  0.00640  0.79131  Biso   1.000  C
  C397     1.0000 0.08121  0.74128  0.70570  Biso   1.000  C
  H478     1.0000 0.19249  0.97159  0.14283  Biso   1.000  H
  H479     1.0000 0.18411  0.10898  0.14460  Biso   1.000  H
  C398     1.0000 0.14825  0.01122  0.10100  Biso   1.000  C
  H480     1.0000 0.14433  0.46090  0.79776  Biso   1.000  H
  H481     1.0000 0.11291  0.54278  0.78839  Biso   1.000  H
  H482     1.0000 0.13156  0.49228  0.73238  Biso   1.000  H
  H483     1.0000 0.01495  0.07356  0.78314  Biso   1.000  H
  H484     1.0000 0.01991  0.93574  0.77280  Biso   1.000  H
  C399     1.0000 0.03306  0.98816  0.85730  Biso   1.000  C
  H485     1.0000 0.10271  0.71997  0.72346  Biso   1.000  H
  H486     1.0000 0.08454  0.76740  0.66458  Biso   1.000  H
  C400     1.0000 0.05845  0.63721  0.70654  Biso   1.000  C
  C401     1.0000 0.13924  0.89926  0.08329  Biso   1.000  C
  C402     1.0000 0.12489  0.10039  0.10030  Biso   1.000  C
  C403     1.0000 0.03033  0.08206  0.89684  Biso   1.000  C
  C404     1.0000 0.04067  0.87857  0.88049  Biso   1.000  C
  H487     1.0000 0.05422  0.61529  0.74753  Biso   1.000  H
  H488     1.0000 0.06854  0.57102  0.68618  Biso   1.000  H
  H489     1.0000 0.03781  0.65772  0.68644  Biso   1.000  H
  C405     1.0000 0.10697  0.87656  0.06531  Biso   1.000  C
  O77      1.0000 0.16341  0.81545  0.08448  Biso   1.000  O
  C406     1.0000 0.09301  0.07794  0.08214  Biso   1.000  C
  H490     1.0000 0.13096  0.17736  0.11236  Biso   1.000  H
  O78      1.0000 0.02221  0.18902  0.87153  Biso   1.000  O
  C407     1.0000 0.03517  0.06470  0.95638  Biso   1.000  C
  H491     1.0000 0.04234  0.81352  0.85456  Biso   1.000  H
  C408     1.0000 0.04581  0.86200  0.94030  Biso   1.000  C
  C409     1.0000 0.08370  0.96537  0.06447  Biso   1.000  C
  H492     1.0000 0.10088  0.79949  0.05352  Biso   1.000  H
  C410     1.0000 0.15557  0.69876  0.06739  Biso   1.000  C
  O79      1.0000 0.06881  0.16202  0.08024  Biso   1.000  O
  C411     1.0000 0.01887  0.28757  0.90956  Biso   1.000  C
  H493     1.0000 0.03296  0.12932  0.98244  Biso   1.000  H
  C412     1.0000 0.04314  0.95546  0.97975  Biso   1.000  C
  O80      1.0000 0.05403  0.75487  0.96561  Biso   1.000  O
  C413     1.0000 0.04871  0.93942  0.04561  Biso   1.000  C
  H494     1.0000 0.14604  0.69788  0.02684  Biso   1.000  H
  H495     1.0000 0.13946  0.66491  0.09451  Biso   1.000  H
  C414     1.0000 0.18696  0.62792  0.06969  Biso   1.000  C
  C415     1.0000 0.07618  0.27459  0.10171  Biso   1.000  C
  H496     1.0000 0.03979  0.30396  0.93067  Biso   1.000  H
  H497     1.0000 0.00188  0.27249  0.93911  Biso   1.000  H
  C416     1.0000 0.00920  0.39041  0.87078  Biso   1.000  C
  C417     1.0000 0.06025  0.65948  0.92740  Biso   1.000  C
  H498     1.0000 0.03385  0.99211  0.06717  Biso   1.000  H
  H499     1.0000 0.04331  0.85771  0.05648  Biso   1.000  H
  H500     1.0000 0.19647  0.63107  0.10975  Biso   1.000  H
  H501     1.0000 0.20248  0.66070  0.04172  Biso   1.000  H
  H502     1.0000 0.18221  0.54629  0.05913  Biso   1.000  H
  H503     1.0000 0.09189  0.31396  0.07556  Biso   1.000  H
  H504     1.0000 0.08603  0.26959  0.14191  Biso   1.000  H
  C418     1.0000 0.04468  0.34210  0.10299  Biso   1.000  C
  H505     1.0000 0.00603  0.45993  0.89542  Biso   1.000  H
  H506     1.0000 0.02650  0.40575  0.84251  Biso   1.000  H
  H507     1.0000 0.98881  0.37217  0.84935  Biso   1.000  H
  H508     1.0000 0.08014  0.67140  0.90404  Biso   1.000  H
  H509     1.0000 0.04141  0.64194  0.90077  Biso   1.000  H
  C419     1.0000 0.06523  0.56198  0.97767  Biso   1.000  C
  H510     1.0000 0.07544  0.68587  0.89666  Biso   1.000  H
  H511     1.0000 0.03948  0.63677  0.90735  Biso   1.000  H
  C420     1.0000 0.07433  0.55401  0.95700  Biso   1.000  C
  H512     1.0000 0.03035  0.30773  0.13245  Biso   1.000  H
  H513     1.0000 0.03389  0.33851  0.06394  Biso   1.000  H
  H514     1.0000 0.04924  0.42399  0.11320  Biso   1.000  H
  H515     1.0000 0.06771  0.48457  0.95912  Biso   1.000  H
  H516     1.0000 0.09634  0.57233  0.97237  Biso   1.000  H
  H517     1.0000 0.08493  0.57969  0.00126  Biso   1.000  H
  H518     1.0000 0.04624  0.56085  0.00325  Biso   1.000  H
  H519     1.0000 0.07567  0.48974  0.92838  Biso   1.000  H
  H520     1.0000 0.06045  0.53042  0.98960  Biso   1.000  H
