data_image0
_cell_length_a       25.552
_cell_length_b       12.718
_cell_length_c       26.106
_cell_angle_alpha    90
_cell_angle_beta     93.2
_cell_angle_gamma    90

_symmetry_space_group_name_H-M    "P 1"
_symmetry_int_tables_number       1

loop_
  _symmetry_equiv_pos_as_xyz
  'x, y, z'

loop_
  _atom_site_label
  _atom_site_occupancy
  _atom_site_fract_x
  _atom_site_fract_y
  _atom_site_fract_z
  _atom_site_thermal_displace_type
  _atom_site_B_iso_or_equiv
  _atom_site_type_symbol
  C1       1.0000 0.68506  0.35178  0.44999  Biso   1.000  C
  C2       1.0000 0.70570  0.32867  0.40345  Biso   1.000  C
  H1       1.0000 0.67732  0.42263  0.45831  Biso   1.000  H
  C3       1.0000 0.67560  0.27261  0.48440  Biso   1.000  C
  N1       1.0000 0.71358  0.40958  0.36604  Biso   1.000  N
  C4       1.0000 0.71690  0.22527  0.39194  Biso   1.000  C
  H2       1.0000 0.66225  0.28998  0.51651  Biso   1.000  H
  C5       1.0000 0.68532  0.16740  0.47293  Biso   1.000  C
  C6       1.0000 0.66702  0.44441  0.33811  Biso   1.000  C
  C7       1.0000 0.75788  0.47507  0.37145  Biso   1.000  C
  C8       1.0000 0.70625  0.14578  0.42616  Biso   1.000  C
  H3       1.0000 0.73193  0.20860  0.36040  Biso   1.000  H
  C9       1.0000 0.67457  0.08177  0.50953  Biso   1.000  C
  C10      1.0000 0.63412  0.37128  0.31429  Biso   1.000  C
  C11      1.0000 0.65201  0.54749  0.33696  Biso   1.000  C
  C12      1.0000 0.77170  0.53829  0.33036  Biso   1.000  C
  C13      1.0000 0.78994  0.47932  0.41615  Biso   1.000  C
  H4       1.0000 0.71342  0.07501  0.41741  Biso   1.000  H
  C14      1.0000 0.63553  0.08972  0.54421  Biso   1.000  C
  C15      1.0000 0.70383  0.98899  0.50937  Biso   1.000  C
  C16      1.0000 0.58782  0.40179  0.28824  Biso   1.000  C
  H5       1.0000 0.64332  0.29887  0.31571  Biso   1.000  H
  C17      1.0000 0.60624  0.57729  0.31122  Biso   1.000  C
  H6       1.0000 0.67341  0.59899  0.35411  Biso   1.000  H
  H7       1.0000 0.75120  0.53601  0.29890  Biso   1.000  H
  C18      1.0000 0.81459  0.60371  0.33512  Biso   1.000  C
  C19      1.0000 0.83317  0.54537  0.41998  Biso   1.000  C
  H8       1.0000 0.78212  0.43631  0.44450  Biso   1.000  H
  H9       1.0000 0.61582  0.15293  0.54582  Biso   1.000  H
  C20      1.0000 0.62463  0.00700  0.57671  Biso   1.000  C
  C21      1.0000 0.69329  0.90722  0.54202  Biso   1.000  C
  H10      1.0000 0.73133  0.98207  0.48651  Biso   1.000  H
  C22      1.0000 0.57308  0.50716  0.28498  Biso   1.000  C
  H11      1.0000 0.56570  0.34990  0.27232  Biso   1.000  H
  H12      1.0000 0.59670  0.64947  0.31141  Biso   1.000  H
  H13      1.0000 0.82302  0.64562  0.30661  Biso   1.000  H
  C23      1.0000 0.84571  0.61016  0.37985  Biso   1.000  C
  H14      1.0000 0.85473  0.54616  0.45091  Biso   1.000  H
  H15      1.0000 0.59742  0.01384  0.59992  Biso   1.000  H
  C24      1.0000 0.65359  0.91390  0.57532  Biso   1.000  C
  H16      1.0000 0.71392  0.84510  0.54152  Biso   1.000  H
  C25      1.0000 0.52341  0.54191  0.25877  Biso   1.000  C
  C26      1.0000 0.89152  0.68289  0.38434  Biso   1.000  C
  C27      1.0000 0.64298  0.82128  0.60698  Biso   1.000  C
  C28      1.0000 0.50063  0.49088  0.21615  Biso   1.000  C
  C29      1.0000 0.49632  0.62911  0.27723  Biso   1.000  C
  C30      1.0000 0.92203  0.69689  0.34283  Biso   1.000  C
  C31      1.0000 0.90475  0.73785  0.42961  Biso   1.000  C
  N2       1.0000 0.60607  0.81546  0.63702  Biso   1.000  N
  H17      1.0000 0.66543  0.76207  0.60460  Biso   1.000  H
  C32      1.0000 0.45508  0.52823  0.19167  Biso   1.000  C
  H18      1.0000 0.51662  0.42939  0.20360  Biso   1.000  H
  C33      1.0000 0.45212  0.66748  0.25229  Biso   1.000  C
  H19      1.0000 0.50923  0.66221  0.30800  Biso   1.000  H
  H20      1.0000 0.91431  0.65946  0.31179  Biso   1.000  H
  C34      1.0000 0.96408  0.76616  0.34671  Biso   1.000  C
  C35      1.0000 0.94718  0.80665  0.43249  Biso   1.000  C
  H21      1.0000 0.88461  0.72818  0.45869  Biso   1.000  H
  C36      1.0000 0.60262  0.71749  0.66644  Biso   1.000  C
  H22      1.0000 0.43980  0.49049  0.16321  Biso   1.000  H
  C37      1.0000 0.43122  0.61928  0.20759  Biso   1.000  C
  H23      1.0000 0.43530  0.72755  0.26541  Biso   1.000  H
  H24      1.0000 0.98422  0.77669  0.31759  Biso   1.000  H
  C38      1.0000 0.97763  0.81963  0.39079  Biso   1.000  C
  H25      1.0000 0.95523  0.84487  0.46322  Biso   1.000  H
  C39      1.0000 0.54973  0.66496  0.65578  Biso   1.000  C
  H26      1.0000 0.63085  0.66897  0.65700  Biso   1.000  H
  H27      1.0000 0.60763  0.73321  0.70350  Biso   1.000  H
  C40      1.0000 0.38414  0.66072  0.17940  Biso   1.000  C
  C41      1.0000 0.02292  0.89118  0.39159  Biso   1.000  C
  N3       1.0000 0.54175  0.62266  0.60375  Biso   1.000  N
  H28      1.0000 0.52176  0.71678  0.66149  Biso   1.000  H
  H29      1.0000 0.54613  0.60701  0.68060  Biso   1.000  H
  N4       1.0000 0.36770  0.75342  0.18500  Biso   1.000  N
  H30      1.0000 0.36530  0.61558  0.15592  Biso   1.000  H
  N5       1.0000 0.04228  0.93537  0.42981  Biso   1.000  N
  H31      1.0000 0.03841  0.90415  0.35990  Biso   1.000  H
  C42      1.0000 0.48527  0.61032  0.59059  Biso   1.000  C
  C43      1.0000 0.56994  0.52437  0.59842  Biso   1.000  C
  C44      1.0000 0.31802  0.78236  0.15849  Biso   1.000  C
  C45      1.0000 0.08822  0.00401  0.42152  Biso   1.000  C
  H32      1.0000 0.48043  0.55936  0.56201  Biso   1.000  H
  H33      1.0000 0.46823  0.58067  0.62052  Biso   1.000  H
  C46      1.0000 0.45844  0.71198  0.57517  Biso   1.000  C
  H34      1.0000 0.60423  0.52941  0.61779  Biso   1.000  H
  H35      1.0000 0.54983  0.46690  0.61369  Biso   1.000  H
  C47      1.0000 0.57890  0.49748  0.54291  Biso   1.000  C
  C48      1.0000 0.32192  0.87875  0.12542  Biso   1.000  C
  H36      1.0000 0.30542  0.72276  0.13670  Biso   1.000  H
  H37      1.0000 0.29170  0.79525  0.18419  Biso   1.000  H
  C49      1.0000 0.13710  0.95495  0.44692  Biso   1.000  C
  H38      1.0000 0.09252  0.01242  0.38430  Biso   1.000  H
  H39      1.0000 0.08241  0.07446  0.43629  Biso   1.000  H
  N6       1.0000 0.46802  0.74029  0.52280  Biso   1.000  N
  H40      1.0000 0.47132  0.76891  0.59850  Biso   1.000  H
  H41      1.0000 0.42025  0.70467  0.57870  Biso   1.000  H
  N7       1.0000 0.62233  0.55811  0.52273  Biso   1.000  N
  H42      1.0000 0.54642  0.51187  0.52161  Biso   1.000  H
  H43      1.0000 0.58674  0.42153  0.54030  Biso   1.000  H
  N8       1.0000 0.34606  0.85729  0.07654  Biso   1.000  N
  H44      1.0000 0.34302  0.93277  0.14460  Biso   1.000  H
  H45      1.0000 0.28640  0.90785  0.11809  Biso   1.000  H
  N9       1.0000 0.15396  0.85729  0.42344  Biso   1.000  N
  H46      1.0000 0.13073  0.94087  0.48332  Biso   1.000  H
  H47      1.0000 0.16602  0.00660  0.44619  Biso   1.000  H
  C50      1.0000 0.49966  0.81451  0.51693  Biso   1.000  C
  C51      1.0000 0.61111  0.61959  0.48586  Biso   1.000  C
  C52      1.0000 0.30872  0.80366  0.04147  Biso   1.000  C
  C53      1.0000 0.36292  0.95495  0.05310  Biso   1.000  C
  C54      1.0000 0.17814  0.87875  0.37460  Biso   1.000  C
  C55      1.0000 0.19130  0.80366  0.45854  Biso   1.000  C
  C56      1.0000 0.51343  0.85485  0.46667  Biso   1.000  C
  H48      1.0000 0.51565  0.84652  0.54682  Biso   1.000  H
  C57      1.0000 0.65155  0.68179  0.46065  Biso   1.000  C
  H49      1.0000 0.57554  0.62620  0.47370  Biso   1.000  H
  H50      1.0000 0.28770  0.75452  0.06131  Biso   1.000  H
  H51      1.0000 0.28451  0.85627  0.02528  Biso   1.000  H
  C58      1.0000 0.33442  0.74351  0.00012  Biso   1.000  C
  H52      1.0000 0.36930  0.94087  0.01669  Biso   1.000  H
  H53      1.0000 0.33400  0.00660  0.05379  Biso   1.000  H
  C59      1.0000 0.41180  0.00401  0.07850  Biso   1.000  C
  H54      1.0000 0.15701  0.93277  0.35542  Biso   1.000  H
  H55      1.0000 0.21362  0.90785  0.38189  Biso   1.000  H
  C60      1.0000 0.18201  0.78236  0.34149  Biso   1.000  C
  H56      1.0000 0.21232  0.75452  0.43871  Biso   1.000  H
  H57      1.0000 0.21551  0.85627  0.47469  Biso   1.000  H
  C61      1.0000 0.16560  0.74351  0.49990  Biso   1.000  C
  C62      1.0000 0.54788  0.93780  0.46491  Biso   1.000  C
  C63      1.0000 0.49226  0.81381  0.42014  Biso   1.000  C
  C64      1.0000 0.63576  0.75287  0.42336  Biso   1.000  C
  C65      1.0000 0.70492  0.67015  0.47350  Biso   1.000  C
  N10      1.0000 0.35712  0.64421  0.02006  Biso   1.000  N
  H58      1.0000 0.36247  0.78707  0.98623  Biso   1.000  H
  H59      1.0000 0.30827  0.72810  0.97184  Biso   1.000  H
  N11      1.0000 0.45775  0.93537  0.07021  Biso   1.000  N
  H60      1.0000 0.40751  0.01242  0.11571  Biso   1.000  H
  H61      1.0000 0.41761  0.07446  0.06369  Biso   1.000  H
  N12      1.0000 0.13232  0.75342  0.31498  Biso   1.000  N
  H62      1.0000 0.19464  0.72276  0.36332  Biso   1.000  H
  H63      1.0000 0.20833  0.79525  0.31582  Biso   1.000  H
  N13      1.0000 0.14294  0.64421  0.47991  Biso   1.000  N
  H64      1.0000 0.13763  0.78707  0.51383  Biso   1.000  H
  H65      1.0000 0.19183  0.72810  0.52821  Biso   1.000  H
  C66      1.0000 0.56300  0.97735  0.41906  Biso   1.000  C
  H66      1.0000 0.56152  0.96839  0.49610  Biso   1.000  H
  C67      1.0000 0.50710  0.85359  0.37429  Biso   1.000  C
  H67      1.0000 0.46754  0.75822  0.42041  Biso   1.000  H
  C68      1.0000 0.67173  0.81349  0.39938  Biso   1.000  C
  H68      1.0000 0.59953  0.76042  0.41400  Biso   1.000  H
  H69      1.0000 0.71654  0.62046  0.49882  Biso   1.000  H
  C69      1.0000 0.74102  0.73133  0.44910  Biso   1.000  C
  C70      1.0000 0.40629  0.64255  0.02774  Biso   1.000  C
  C71      1.0000 0.47711  0.89118  0.10842  Biso   1.000  C
  C72      1.0000 0.11589  0.66072  0.32062  Biso   1.000  C
  C73      1.0000 0.09378  0.64255  0.47228  Biso   1.000  C
  C74      1.0000 0.54403  0.93505  0.37260  Biso   1.000  C
  H70      1.0000 0.58683  0.03468  0.41910  Biso   1.000  H
  H71      1.0000 0.49213  0.82552  0.34310  Biso   1.000  H
  C75      1.0000 0.72549  0.80406  0.41216  Biso   1.000  C
  H72      1.0000 0.65993  0.86240  0.37372  Biso   1.000  H
  H73      1.0000 0.77733  0.72276  0.45800  Biso   1.000  H
  C76      1.0000 0.43612  0.55017  0.04711  Biso   1.000  C
  H74      1.0000 0.42521  0.70467  0.02060  Biso   1.000  H
  C77      1.0000 0.52239  0.81963  0.10919  Biso   1.000  C
  H75      1.0000 0.46161  0.90415  0.14011  Biso   1.000  H
  C78      1.0000 0.06881  0.61928  0.29242  Biso   1.000  C
  H76      1.0000 0.13472  0.61558  0.34410  Biso   1.000  H
  C79      1.0000 0.06391  0.55017  0.45290  Biso   1.000  C
  H77      1.0000 0.07485  0.70467  0.47941  Biso   1.000  H
  C80      1.0000 0.56482  0.96918  0.32342  Biso   1.000  C
  C81      1.0000 0.76401  0.87136  0.38768  Biso   1.000  C
  C82      1.0000 0.41441  0.45227  0.05429  Biso   1.000  C
  C83      1.0000 0.48932  0.56180  0.05766  Biso   1.000  C
  C84      1.0000 0.53594  0.76616  0.15331  Biso   1.000  C
  C85      1.0000 0.55285  0.80665  0.06748  Biso   1.000  C
  C86      1.0000 0.04494  0.52823  0.30834  Biso   1.000  C
  C87      1.0000 0.04790  0.66748  0.24772  Biso   1.000  C
  C88      1.0000 0.08565  0.45227  0.44573  Biso   1.000  C
  C89      1.0000 0.01071  0.56180  0.44235  Biso   1.000  C
  C90      1.0000 0.57477  0.07430  0.31252  Biso   1.000  C
  C91      1.0000 0.57718  0.89621  0.28620  Biso   1.000  C
  C92      1.0000 0.75896  0.89605  0.33558  Biso   1.000  C
  C93      1.0000 0.80643  0.91477  0.41580  Biso   1.000  C
  C94      1.0000 0.44521  0.36853  0.07209  Biso   1.000  C
  H78      1.0000 0.37792  0.44213  0.04700  Biso   1.000  H
  H79      1.0000 0.50531  0.62793  0.05198  Biso   1.000  H
  C95      1.0000 0.51985  0.47940  0.07623  Biso   1.000  C
  C96      1.0000 0.57800  0.69689  0.15718  Biso   1.000  C
  H80      1.0000 0.51580  0.77669  0.18239  Biso   1.000  H
  H81      1.0000 0.54480  0.84487  0.03679  Biso   1.000  H
  C97      1.0000 0.59524  0.73785  0.07040  Biso   1.000  C
  C98      1.0000 0.99940  0.49088  0.28383  Biso   1.000  C
  H82      1.0000 0.06022  0.49049  0.33681  Biso   1.000  H
  C99      1.0000 0.00370  0.62911  0.22279  Biso   1.000  C
  H83      1.0000 0.06473  0.72755  0.23460  Biso   1.000  H
  C100     1.0000 0.05481  0.36853  0.42793  Biso   1.000  C
  H84      1.0000 0.12215  0.44213  0.45302  Biso   1.000  H
  H85      1.0000 0.99471  0.62793  0.44799  Biso   1.000  H
  C101     1.0000 0.98018  0.47940  0.42378  Biso   1.000  C
  C102     1.0000 0.59492  0.10363  0.26718  Biso   1.000  C
  H86      1.0000 0.56740  0.12659  0.33711  Biso   1.000  H
  C103     1.0000 0.59832  0.92428  0.24166  Biso   1.000  C
  H87      1.0000 0.57060  0.82387  0.29230  Biso   1.000  H
  C104     1.0000 0.79466  0.95841  0.31302  Biso   1.000  C
  H88      1.0000 0.73002  0.86885  0.31529  Biso   1.000  H
  H89      1.0000 0.81074  0.90069  0.45152  Biso   1.000  H
  C105     1.0000 0.84290  0.97869  0.39297  Biso   1.000  C
  C106     1.0000 0.49876  0.38048  0.08390  Biso   1.000  C
  H90      1.0000 0.42941  0.30162  0.07631  Biso   1.000  H
  H91      1.0000 0.55621  0.49056  0.08390  Biso   1.000  H
  C107     1.0000 0.60850  0.68289  0.11563  Biso   1.000  C
  H92      1.0000 0.58572  0.65946  0.18822  Biso   1.000  H
  H93      1.0000 0.61538  0.72818  0.04132  Biso   1.000  H
  C108     1.0000 0.97662  0.54191  0.24124  Biso   1.000  C
  H94      1.0000 0.98340  0.42939  0.29641  Biso   1.000  H
  H95      1.0000 0.99080  0.66221  0.19202  Biso   1.000  H
  C109     1.0000 0.00127  0.38048  0.41607  Biso   1.000  C
  H96      1.0000 0.07062  0.30162  0.42371  Biso   1.000  H
  H97      1.0000 0.94382  0.49056  0.41611  Biso   1.000  H
  C110     1.0000 0.60683  0.02956  0.23100  Biso   1.000  C
  H98      1.0000 0.60072  0.17597  0.26050  Biso   1.000  H
  H99      1.0000 0.60721  0.87176  0.21780  Biso   1.000  H
  C111     1.0000 0.83765  0.00024  0.34149  Biso   1.000  C
  H100     1.0000 0.79013  0.97342  0.27742  Biso   1.000  H
  H101     1.0000 0.87152  0.00731  0.41319  Biso   1.000  H
  C112     1.0000 0.53186  0.29446  0.10643  Biso   1.000  C
  C113     1.0000 0.65432  0.61016  0.12016  Biso   1.000  C
  C114     1.0000 0.92695  0.50716  0.21504  Biso   1.000  C
  C115     1.0000 0.96816  0.29446  0.39355  Biso   1.000  C
  N14      1.0000 0.62533  0.06220  0.18350  Biso   1.000  N
  N15      1.0000 0.87470  0.06220  0.31651  Biso   1.000  N
  C116     1.0000 0.52439  0.19571  0.10102  Biso   1.000  C
  C117     1.0000 0.58671  0.32599  0.12941  Biso   1.000  C
  C118     1.0000 0.50559  0.20892  0.13650  Biso   1.000  C
  C119     1.0000 0.58231  0.29069  0.10581  Biso   1.000  C
  C120     1.0000 0.68544  0.60371  0.16489  Biso   1.000  C
  C121     1.0000 0.66686  0.54537  0.08003  Biso   1.000  C
  C122     1.0000 0.91220  0.40179  0.21178  Biso   1.000  C
  C123     1.0000 0.89379  0.57729  0.18880  Biso   1.000  C
  C124     1.0000 0.97564  0.19571  0.39900  Biso   1.000  C
  C125     1.0000 0.91332  0.32599  0.37061  Biso   1.000  C
  C126     1.0000 0.99443  0.20892  0.36351  Biso   1.000  C
  C127     1.0000 0.91772  0.29069  0.39420  Biso   1.000  C
  C128     1.0000 0.59402  0.13799  0.15542  Biso   1.000  C
  C129     1.0000 0.66238  0.00024  0.15852  Biso   1.000  C
  C130     1.0000 0.90600  0.13799  0.34460  Biso   1.000  C
  C131     1.0000 0.89320  0.02956  0.26902  Biso   1.000  C
  C132     1.0000 0.55549  0.11857  0.12480  Biso   1.000  C
  H102     1.0000 0.49551  0.17353  0.07919  Biso   1.000  H
  C133     1.0000 0.53602  0.13233  0.16021  Biso   1.000  C
  H103     1.0000 0.59832  0.39700  0.12849  Biso   1.000  H
  C134     1.0000 0.61852  0.24823  0.15120  Biso   1.000  C
  H104     1.0000 0.59949  0.34439  0.08789  Biso   1.000  H
  C135     1.0000 0.61291  0.21316  0.12971  Biso   1.000  C
  H105     1.0000 0.46862  0.20852  0.13881  Biso   1.000  H
  C136     1.0000 0.72833  0.53829  0.16965  Biso   1.000  C
  H106     1.0000 0.67701  0.64562  0.19340  Biso   1.000  H
  H107     1.0000 0.64529  0.54616  0.04911  Biso   1.000  H
  C137     1.0000 0.71009  0.47932  0.08387  Biso   1.000  C
  C138     1.0000 0.86591  0.37128  0.18573  Biso   1.000  C
  H108     1.0000 0.93432  0.34990  0.22770  Biso   1.000  H
  C139     1.0000 0.84802  0.54749  0.16305  Biso   1.000  C
  H109     1.0000 0.90329  0.64947  0.18860  Biso   1.000  H
  C140     1.0000 0.94450  0.11857  0.37521  Biso   1.000  C
  C141     1.0000 0.96400  0.13233  0.33980  Biso   1.000  C
  H110     1.0000 0.00455  0.17353  0.42079  Biso   1.000  H
  H111     1.0000 0.90170  0.39700  0.37149  Biso   1.000  H
  C142     1.0000 0.88151  0.24823  0.34882  Biso   1.000  C
  H112     1.0000 0.90054  0.34439  0.41212  Biso   1.000  H
  C143     1.0000 0.88712  0.21316  0.37030  Biso   1.000  C
  H113     1.0000 0.03144  0.20852  0.36121  Biso   1.000  H
  C144     1.0000 0.70537  0.95841  0.18699  Biso   1.000  C
  C145     1.0000 0.65713  0.97869  0.10704  Biso   1.000  C
  C146     1.0000 0.90511  0.10363  0.23284  Biso   1.000  C
  C147     1.0000 0.90171  0.92428  0.25835  Biso   1.000  C
  H114     1.0000 0.54721  0.04710  0.11759  Biso   1.000  H
  H115     1.0000 0.52070  0.07737  0.17901  Biso   1.000  H
  H116     1.0000 0.65371  0.26199  0.16301  Biso   1.000  H
  H117     1.0000 0.64980  0.21599  0.12680  Biso   1.000  H
  C148     1.0000 0.74215  0.47507  0.12856  Biso   1.000  C
  H118     1.0000 0.74879  0.53601  0.20111  Biso   1.000  H
  H119     1.0000 0.71790  0.43631  0.05551  Biso   1.000  H
  C149     1.0000 0.83300  0.44441  0.16190  Biso   1.000  C
  H120     1.0000 0.85671  0.29887  0.18431  Biso   1.000  H
  H121     1.0000 0.82661  0.59899  0.14590  Biso   1.000  H
  H122     1.0000 0.95281  0.04710  0.38239  Biso   1.000  H
  H123     1.0000 0.97933  0.07737  0.32100  Biso   1.000  H
  H124     1.0000 0.84632  0.26199  0.33700  Biso   1.000  H
  H125     1.0000 0.85022  0.21599  0.37322  Biso   1.000  H
  H126     1.0000 0.70990  0.97342  0.22259  Biso   1.000  H
  C150     1.0000 0.74106  0.89605  0.16439  Biso   1.000  C
  H127     1.0000 0.62850  0.00731  0.08678  Biso   1.000  H
  C151     1.0000 0.69359  0.91477  0.08417  Biso   1.000  C
  H128     1.0000 0.89930  0.17597  0.23951  Biso   1.000  H
  C152     1.0000 0.92522  0.07430  0.18749  Biso   1.000  C
  C153     1.0000 0.92285  0.89621  0.21381  Biso   1.000  C
  H129     1.0000 0.89282  0.87176  0.28221  Biso   1.000  H
  N16      1.0000 0.78644  0.40958  0.13393  Biso   1.000  N
  H130     1.0000 0.77000  0.86885  0.18469  Biso   1.000  H
  C154     1.0000 0.73602  0.87136  0.11233  Biso   1.000  C
  H131     1.0000 0.68929  0.90069  0.04849  Biso   1.000  H
  H132     1.0000 0.93258  0.12659  0.16290  Biso   1.000  H
  C155     1.0000 0.93520  0.96918  0.17659  Biso   1.000  C
  H133     1.0000 0.92939  0.82387  0.20771  Biso   1.000  H
  C156     1.0000 0.79433  0.32867  0.09653  Biso   1.000  C
  C157     1.0000 0.77454  0.80406  0.08786  Biso   1.000  C
  C158     1.0000 0.95600  0.93505  0.12741  Biso   1.000  C
  C159     1.0000 0.81496  0.35178  0.05003  Biso   1.000  C
  C160     1.0000 0.78313  0.22527  0.10807  Biso   1.000  C
  C161     1.0000 0.82826  0.81349  0.10063  Biso   1.000  C
  C162     1.0000 0.75901  0.73133  0.05091  Biso   1.000  C
  C163     1.0000 0.93703  0.97735  0.08095  Biso   1.000  C
  C164     1.0000 0.99292  0.85359  0.12572  Biso   1.000  C
  H134     1.0000 0.82271  0.42263  0.04170  Biso   1.000  H
  C165     1.0000 0.82443  0.27261  0.01561  Biso   1.000  C
  C166     1.0000 0.79378  0.14578  0.07385  Biso   1.000  C
  H135     1.0000 0.76810  0.20860  0.13961  Biso   1.000  H
  H136     1.0000 0.84009  0.86240  0.12630  Biso   1.000  H
  C167     1.0000 0.86427  0.75287  0.07665  Biso   1.000  C
  C168     1.0000 0.79511  0.67015  0.02651  Biso   1.000  C
  H137     1.0000 0.72269  0.72276  0.04201  Biso   1.000  H
  C169     1.0000 0.95214  0.93780  0.03510  Biso   1.000  C
  H138     1.0000 0.91319  0.03468  0.08091  Biso   1.000  H
  C170     1.0000 0.00776  0.81381  0.07988  Biso   1.000  C
  H139     1.0000 0.00789  0.82552  0.15691  Biso   1.000  H
  C171     1.0000 0.81471  0.16740  0.02709  Biso   1.000  C
  H140     1.0000 0.83786  0.28998  0.98354  Biso   1.000  H
  H141     1.0000 0.78661  0.07501  0.08260  Biso   1.000  H
  H142     1.0000 0.90049  0.76042  0.08601  Biso   1.000  H
  C172     1.0000 0.84848  0.68179  0.03936  Biso   1.000  C
  H143     1.0000 0.78349  0.62046  0.00119  Biso   1.000  H
  C173     1.0000 0.98660  0.85485  0.03334  Biso   1.000  C
  H144     1.0000 0.93851  0.96839  0.00391  Biso   1.000  H
  H145     1.0000 0.03252  0.75822  0.07961  Biso   1.000  H
  C174     1.0000 0.82550  0.08177  0.99052  Biso   1.000  C
  C175     1.0000 0.88892  0.61959  0.01416  Biso   1.000  C
  C176     1.0000 0.00045  0.81451  0.98312  Biso   1.000  C
  C177     1.0000 0.79623  0.98899  0.99064  Biso   1.000  C
  C178     1.0000 0.86457  0.08972  0.95580  Biso   1.000  C
  N17      1.0000 0.87774  0.55811  0.97729  Biso   1.000  N
  H146     1.0000 0.92448  0.62620  0.02632  Biso   1.000  H
  N18      1.0000 0.03209  0.74029  0.97725  Biso   1.000  N
  H147     1.0000 0.98446  0.84652  0.95323  Biso   1.000  H
  C179     1.0000 0.80678  0.90722  0.95803  Biso   1.000  C
  H148     1.0000 0.76869  0.98207  0.01350  Biso   1.000  H
  H149     1.0000 0.88425  0.15293  0.95423  Biso   1.000  H
  C180     1.0000 0.87544  0.00700  0.92331  Biso   1.000  C
  C181     1.0000 0.92120  0.49748  0.95711  Biso   1.000  C
  C182     1.0000 0.04166  0.71198  0.92488  Biso   1.000  C
  C183     1.0000 0.84652  0.91390  0.92469  Biso   1.000  C
  H150     1.0000 0.78614  0.84510  0.95853  Biso   1.000  H
  H151     1.0000 0.90265  0.01384  0.90014  Biso   1.000  H
  C184     1.0000 0.93013  0.52437  0.90159  Biso   1.000  C
  H152     1.0000 0.95365  0.51187  0.97844  Biso   1.000  H
  H153     1.0000 0.91336  0.42153  0.95972  Biso   1.000  H
  C185     1.0000 0.01483  0.61032  0.90942  Biso   1.000  C
  H154     1.0000 0.02874  0.76891  0.90152  Biso   1.000  H
  H155     1.0000 0.07985  0.70467  0.92131  Biso   1.000  H
  C186     1.0000 0.85708  0.82128  0.89304  Biso   1.000  C
  N19      1.0000 0.95832  0.62266  0.89630  Biso   1.000  N
  H156     1.0000 0.89583  0.52941  0.88222  Biso   1.000  H
  H157     1.0000 0.95023  0.46690  0.88632  Biso   1.000  H
  H158     1.0000 0.01967  0.55936  0.93804  Biso   1.000  H
  H159     1.0000 0.03183  0.58067  0.87953  Biso   1.000  H
  N20      1.0000 0.89400  0.81546  0.86304  Biso   1.000  N
  H160     1.0000 0.83463  0.76207  0.89542  Biso   1.000  H
  C187     1.0000 0.95034  0.66496  0.84424  Biso   1.000  C
  C188     1.0000 0.89745  0.71749  0.83361  Biso   1.000  C
  H161     1.0000 0.97835  0.71678  0.83852  Biso   1.000  H
  H162     1.0000 0.95393  0.60701  0.81942  Biso   1.000  H
  H163     1.0000 0.86926  0.66897  0.84301  Biso   1.000  H
  H164     1.0000 0.89243  0.73321  0.79651  Biso   1.000  H
  C189     1.0000 0.31499  0.64822  0.55000  Biso   1.000  C
  C190     1.0000 0.32449  0.72739  0.51559  Biso   1.000  C
  C191     1.0000 0.29435  0.67125  0.59654  Biso   1.000  C
  H165     1.0000 0.32273  0.57737  0.54172  Biso   1.000  H
  H166     1.0000 0.33785  0.71002  0.48352  Biso   1.000  H
  C192     1.0000 0.31474  0.83260  0.52710  Biso   1.000  C
  N21      1.0000 0.28647  0.59042  0.63395  Biso   1.000  N
  C193     1.0000 0.28315  0.77465  0.60809  Biso   1.000  C
  C194     1.0000 0.29380  0.85422  0.57387  Biso   1.000  C
  C195     1.0000 0.32548  0.91815  0.49050  Biso   1.000  C
  C196     1.0000 0.33303  0.55559  0.66191  Biso   1.000  C
  C197     1.0000 0.24221  0.52493  0.62858  Biso   1.000  C
  H167     1.0000 0.26812  0.79140  0.63962  Biso   1.000  H
  H168     1.0000 0.28663  0.92499  0.58261  Biso   1.000  H
  C198     1.0000 0.36452  0.91028  0.45578  Biso   1.000  C
  C199     1.0000 0.29622  0.01101  0.49065  Biso   1.000  C
  C200     1.0000 0.36593  0.62872  0.68574  Biso   1.000  C
  C201     1.0000 0.34809  0.45251  0.66307  Biso   1.000  C
  C202     1.0000 0.22839  0.46171  0.66963  Biso   1.000  C
  C203     1.0000 0.21012  0.52068  0.58388  Biso   1.000  C
  H169     1.0000 0.38423  0.84707  0.45421  Biso   1.000  H
  C204     1.0000 0.37542  0.99300  0.42328  Biso   1.000  C
  C205     1.0000 0.30676  0.09278  0.45800  Biso   1.000  C
  H170     1.0000 0.26872  0.01793  0.51352  Biso   1.000  H
  H171     1.0000 0.35673  0.70105  0.68432  Biso   1.000  H
  C206     1.0000 0.41223  0.59821  0.71175  Biso   1.000  C
  C207     1.0000 0.39381  0.42271  0.68877  Biso   1.000  C
  H172     1.0000 0.32664  0.40101  0.64592  Biso   1.000  H
  H173     1.0000 0.24885  0.46399  0.70112  Biso   1.000  H
  C208     1.0000 0.18546  0.39629  0.66491  Biso   1.000  C
  C209     1.0000 0.16689  0.45463  0.58004  Biso   1.000  C
  H174     1.0000 0.21793  0.56369  0.55549  Biso   1.000  H
  H175     1.0000 0.40263  0.98616  0.40011  Biso   1.000  H
  C210     1.0000 0.34650  0.08610  0.42466  Biso   1.000  C
  H176     1.0000 0.28613  0.15490  0.45850  Biso   1.000  H
  H177     1.0000 0.43435  0.65010  0.72771  Biso   1.000  H
  C211     1.0000 0.42697  0.49277  0.71505  Biso   1.000  C
  H178     1.0000 0.40335  0.35053  0.68862  Biso   1.000  H
  H179     1.0000 0.17703  0.35438  0.69341  Biso   1.000  H
  C212     1.0000 0.15438  0.38976  0.62017  Biso   1.000  C
  H180     1.0000 0.14532  0.45377  0.54912  Biso   1.000  H
  C213     1.0000 0.35707  0.17872  0.39305  Biso   1.000  C
  C214     1.0000 0.47668  0.45809  0.74125  Biso   1.000  C
  C215     1.0000 0.10853  0.31711  0.61565  Biso   1.000  C
  N22      1.0000 0.39398  0.18446  0.36301  Biso   1.000  N
  H181     1.0000 0.33462  0.23793  0.39539  Biso   1.000  H
  C216     1.0000 0.49942  0.50912  0.78384  Biso   1.000  C
  C217     1.0000 0.50373  0.37089  0.72280  Biso   1.000  C
  C218     1.0000 0.07806  0.30311  0.65720  Biso   1.000  C
  C219     1.0000 0.09531  0.26207  0.57041  Biso   1.000  C
  C220     1.0000 0.39743  0.28251  0.33359  Biso   1.000  C
  H182     1.0000 0.48347  0.57061  0.79642  Biso   1.000  H
  C221     1.0000 0.54496  0.47177  0.80832  Biso   1.000  C
  C222     1.0000 0.54797  0.33252  0.74774  Biso   1.000  C
  H183     1.0000 0.49086  0.33779  0.69199  Biso   1.000  H
  H184     1.0000 0.08574  0.34046  0.68819  Biso   1.000  H
  C223     1.0000 0.03597  0.23376  0.65332  Biso   1.000  C
  C224     1.0000 0.05287  0.19327  0.56750  Biso   1.000  C
  H185     1.0000 0.11544  0.27182  0.54129  Biso   1.000  H
  C225     1.0000 0.45032  0.33496  0.34421  Biso   1.000  C
  H186     1.0000 0.36920  0.33103  0.34298  Biso   1.000  H
  H187     1.0000 0.39242  0.26679  0.29649  Biso   1.000  H
  H188     1.0000 0.56025  0.50951  0.83682  Biso   1.000  H
  C226     1.0000 0.56883  0.38072  0.79243  Biso   1.000  C
  H189     1.0000 0.56475  0.27237  0.73462  Biso   1.000  H
  H190     1.0000 0.01587  0.22331  0.68240  Biso   1.000  H
  C227     1.0000 0.02242  0.18037  0.60920  Biso   1.000  C
  H191     1.0000 0.04482  0.15513  0.53681  Biso   1.000  H
  N23      1.0000 0.45830  0.37726  0.39627  Biso   1.000  N
  H192     1.0000 0.47833  0.28322  0.33850  Biso   1.000  H
  H193     1.0000 0.45392  0.39299  0.31939  Biso   1.000  H
  C228     1.0000 0.61591  0.33928  0.82059  Biso   1.000  C
  C229     1.0000 0.97713  0.10882  0.60840  Biso   1.000  C
  C230     1.0000 0.51478  0.38968  0.40943  Biso   1.000  C
  C231     1.0000 0.43011  0.47563  0.40161  Biso   1.000  C
  N24      1.0000 0.63234  0.24658  0.81499  Biso   1.000  N
  H194     1.0000 0.63475  0.38442  0.84411  Biso   1.000  H
  N25      1.0000 0.95777  0.06463  0.57022  Biso   1.000  N
  H195     1.0000 0.96164  0.09577  0.64012  Biso   1.000  H
  H196     1.0000 0.51962  0.44056  0.43802  Biso   1.000  H
  H197     1.0000 0.53182  0.41933  0.37951  Biso   1.000  H
  C232     1.0000 0.54161  0.28802  0.42486  Biso   1.000  C
  H198     1.0000 0.39582  0.47059  0.38219  Biso   1.000  H
  H199     1.0000 0.45022  0.53310  0.38630  Biso   1.000  H
  C233     1.0000 0.42118  0.50252  0.45708  Biso   1.000  C
  C234     1.0000 0.68203  0.21757  0.84150  Biso   1.000  C
  C235     1.0000 0.91183  0.99599  0.57851  Biso   1.000  C
  N26      1.0000 0.53203  0.25971  0.47722  Biso   1.000  N
  H200     1.0000 0.52873  0.23109  0.40149  Biso   1.000  H
  H201     1.0000 0.57983  0.29533  0.42129  Biso   1.000  H
  N27      1.0000 0.37772  0.44189  0.47726  Biso   1.000  N
  H202     1.0000 0.45363  0.48813  0.47841  Biso   1.000  H
  H203     1.0000 0.41331  0.57847  0.45969  Biso   1.000  H
  C236     1.0000 0.67817  0.12117  0.87461  Biso   1.000  C
  H204     1.0000 0.69466  0.27717  0.86329  Biso   1.000  H
  H205     1.0000 0.70835  0.20467  0.81580  Biso   1.000  H
  H206     1.0000 0.90753  0.98758  0.61572  Biso   1.000  H
  H207     1.0000 0.91764  0.92546  0.56370  Biso   1.000  H
  C237     1.0000 0.86299  0.04498  0.55311  Biso   1.000  C
  C238     1.0000 0.50039  0.18549  0.48309  Biso   1.000  C
  C239     1.0000 0.38894  0.38041  0.51417  Biso   1.000  C
  N28      1.0000 0.65399  0.14271  0.92345  Biso   1.000  N
  H208     1.0000 0.65704  0.06723  0.85543  Biso   1.000  H
  H209     1.0000 0.71365  0.09207  0.88190  Biso   1.000  H
  H210     1.0000 0.83403  0.99340  0.55380  Biso   1.000  H
  N29      1.0000 0.84609  0.14271  0.57655  Biso   1.000  N
  H211     1.0000 0.86932  0.05913  0.51670  Biso   1.000  H
  C240     1.0000 0.48663  0.14507  0.53335  Biso   1.000  C
  H212     1.0000 0.48444  0.15348  0.45321  Biso   1.000  H
  C241     1.0000 0.34850  0.31821  0.53934  Biso   1.000  C
  H213     1.0000 0.42454  0.37380  0.52629  Biso   1.000  H
  C242     1.0000 0.69133  0.19634  0.95852  Biso   1.000  C
  C243     1.0000 0.63713  0.04498  0.94693  Biso   1.000  C
  C244     1.0000 0.82195  0.12117  0.62539  Biso   1.000  C
  C245     1.0000 0.80875  0.19634  0.54149  Biso   1.000  C
  C246     1.0000 0.45217  0.06220  0.53512  Biso   1.000  C
  C247     1.0000 0.50779  0.18619  0.57989  Biso   1.000  C
  C248     1.0000 0.36433  0.24713  0.57667  Biso   1.000  C
  C249     1.0000 0.29514  0.32977  0.52652  Biso   1.000  C
  H214     1.0000 0.71235  0.24548  0.93872  Biso   1.000  H
  H215     1.0000 0.71558  0.14373  0.97471  Biso   1.000  H
  C250     1.0000 0.66563  0.25649  0.99987  Biso   1.000  C
  H216     1.0000 0.63075  0.05913  0.98330  Biso   1.000  H
  H217     1.0000 0.66605  0.99340  0.94620  Biso   1.000  H
  C251     1.0000 0.58825  0.99599  0.92149  Biso   1.000  C
  H218     1.0000 0.84304  0.06723  0.64461  Biso   1.000  H
  H219     1.0000 0.78643  0.09207  0.61810  Biso   1.000  H
  C252     1.0000 0.81804  0.21757  0.65850  Biso   1.000  C
  H220     1.0000 0.78773  0.24548  0.56132  Biso   1.000  H
  H221     1.0000 0.78454  0.14373  0.52530  Biso   1.000  H
  C253     1.0000 0.83445  0.25649  0.50013  Biso   1.000  C
  C254     1.0000 0.43705  0.02257  0.58096  Biso   1.000  C
  H222     1.0000 0.43853  0.03161  0.50389  Biso   1.000  H
  H223     1.0000 0.53255  0.24178  0.57962  Biso   1.000  H
  C255     1.0000 0.49295  0.14641  0.62574  Biso   1.000  C
  C256     1.0000 0.32832  0.18651  0.60065  Biso   1.000  C
  H224     1.0000 0.40055  0.23958  0.58599  Biso   1.000  H
  H225     1.0000 0.28352  0.37946  0.50120  Biso   1.000  H
  C257     1.0000 0.25903  0.26867  0.55092  Biso   1.000  C
  N30      1.0000 0.64296  0.35579  0.97992  Biso   1.000  N
  H226     1.0000 0.63762  0.21293  0.01380  Biso   1.000  H
  H227     1.0000 0.69182  0.27190  0.02819  Biso   1.000  H
  N31      1.0000 0.54231  0.06463  0.92982  Biso   1.000  N
  H228     1.0000 0.59254  0.98758  0.88432  Biso   1.000  H
  H229     1.0000 0.58248  0.92546  0.93630  Biso   1.000  H
  N32      1.0000 0.86773  0.24658  0.68501  Biso   1.000  N
  H230     1.0000 0.80545  0.27717  0.63671  Biso   1.000  H
  H231     1.0000 0.79172  0.20467  0.68420  Biso   1.000  H
  N33      1.0000 0.85715  0.35579  0.52008  Biso   1.000  N
  H232     1.0000 0.86242  0.21293  0.48620  Biso   1.000  H
  H233     1.0000 0.80822  0.27190  0.47182  Biso   1.000  H
  H234     1.0000 0.41322  0.96525  0.58093  Biso   1.000  H
  C258     1.0000 0.45606  0.06487  0.62742  Biso   1.000  C
  H235     1.0000 0.50796  0.17448  0.65689  Biso   1.000  H
  C259     1.0000 0.27460  0.19586  0.58787  Biso   1.000  C
  H236     1.0000 0.34016  0.13760  0.62631  Biso   1.000  H
  H237     1.0000 0.22276  0.27717  0.54202  Biso   1.000  H
  C260     1.0000 0.59380  0.35737  0.97229  Biso   1.000  C
  C261     1.0000 0.52295  0.10882  0.89161  Biso   1.000  C
  C262     1.0000 0.88416  0.33928  0.67941  Biso   1.000  C
  C263     1.0000 0.90631  0.35737  0.52775  Biso   1.000  C
  C264     1.0000 0.43523  0.03082  0.67661  Biso   1.000  C
  C265     1.0000 0.23608  0.12864  0.61231  Biso   1.000  C
  C266     1.0000 0.56393  0.44976  0.95291  Biso   1.000  C
  H238     1.0000 0.57488  0.29533  0.97942  Biso   1.000  H
  C267     1.0000 0.47770  0.18037  0.89080  Biso   1.000  C
  H239     1.0000 0.53844  0.09577  0.85992  Biso   1.000  H
  C268     1.0000 0.93125  0.38072  0.70761  Biso   1.000  C
  H240     1.0000 0.86533  0.38442  0.65589  Biso   1.000  H
  C269     1.0000 0.93614  0.44976  0.54713  Biso   1.000  C
  H241     1.0000 0.92524  0.29533  0.52062  Biso   1.000  H
  C270     1.0000 0.42529  0.92570  0.68750  Biso   1.000  C
  C271     1.0000 0.42287  0.10379  0.71378  Biso   1.000  C
  C272     1.0000 0.24113  0.10387  0.66441  Biso   1.000  C
  C273     1.0000 0.19362  0.08523  0.58419  Biso   1.000  C
  C274     1.0000 0.58567  0.54773  0.94570  Biso   1.000  C
  C275     1.0000 0.51073  0.43820  0.94233  Biso   1.000  C
  C276     1.0000 0.46415  0.23376  0.84672  Biso   1.000  C
  C277     1.0000 0.44724  0.19327  0.93250  Biso   1.000  C
  C278     1.0000 0.95511  0.47177  0.69169  Biso   1.000  C
  C279     1.0000 0.95215  0.33252  0.75230  Biso   1.000  C
  C280     1.0000 0.91444  0.54773  0.55430  Biso   1.000  C
  C281     1.0000 0.98934  0.43820  0.55768  Biso   1.000  C
  C282     1.0000 0.40517  0.89637  0.73281  Biso   1.000  C
  H242     1.0000 0.43265  0.87341  0.66291  Biso   1.000  H
  H243     1.0000 0.42945  0.17613  0.70772  Biso   1.000  H
  C283     1.0000 0.40177  0.07572  0.75836  Biso   1.000  C
  C284     1.0000 0.20543  0.04159  0.68701  Biso   1.000  C
  H244     1.0000 0.27003  0.13107  0.68470  Biso   1.000  H
  H245     1.0000 0.18935  0.09931  0.54851  Biso   1.000  H
  C285     1.0000 0.15715  0.02131  0.60701  Biso   1.000  C
  C286     1.0000 0.55488  0.63147  0.92794  Biso   1.000  C
  H246     1.0000 0.62218  0.55787  0.95303  Biso   1.000  H
  H247     1.0000 0.49478  0.37207  0.94800  Biso   1.000  H
  C287     1.0000 0.48021  0.52060  0.92380  Biso   1.000  C
  C288     1.0000 0.42205  0.30311  0.84284  Biso   1.000  C
  H248     1.0000 0.48425  0.22331  0.81760  Biso   1.000  H
  H249     1.0000 0.45525  0.15513  0.96320  Biso   1.000  H
  C289     1.0000 0.40481  0.26207  0.92963  Biso   1.000  C
  C290     1.0000 0.00065  0.50912  0.71616  Biso   1.000  C
  H250     1.0000 0.93983  0.50951  0.66322  Biso   1.000  H
  H251     1.0000 0.93533  0.27237  0.76542  Biso   1.000  H
  C291     1.0000 0.99635  0.37089  0.77724  Biso   1.000  C
  C292     1.0000 0.94524  0.63147  0.57210  Biso   1.000  C
  H252     1.0000 0.87794  0.55787  0.54701  Biso   1.000  H
  H253     1.0000 0.00534  0.37207  0.55200  Biso   1.000  H
  C293     1.0000 0.01991  0.52060  0.57625  Biso   1.000  C
  C294     1.0000 0.39326  0.97036  0.76899  Biso   1.000  C
  H254     1.0000 0.39933  0.82395  0.73953  Biso   1.000  H
  H255     1.0000 0.39284  0.12816  0.78223  Biso   1.000  H
  C295     1.0000 0.16244  0.99976  0.65854  Biso   1.000  C
  H256     1.0000 0.20997  0.02658  0.72261  Biso   1.000  H
  H257     1.0000 0.12853  0.99269  0.58680  Biso   1.000  H
  C296     1.0000 0.50129  0.61952  0.91608  Biso   1.000  C
  H258     1.0000 0.57064  0.69838  0.92372  Biso   1.000  H
  H259     1.0000 0.44384  0.50936  0.91612  Biso   1.000  H
  C297     1.0000 0.39154  0.31711  0.88436  Biso   1.000  C
  H260     1.0000 0.41437  0.34046  0.81181  Biso   1.000  H
  H261     1.0000 0.38467  0.27182  0.95871  Biso   1.000  H
  C298     1.0000 0.02343  0.45809  0.75879  Biso   1.000  C
  H262     1.0000 0.01665  0.57061  0.70362  Biso   1.000  H
  H263     1.0000 0.00926  0.33779  0.80801  Biso   1.000  H
  C299     1.0000 0.99878  0.61952  0.58392  Biso   1.000  C
  H264     1.0000 0.92943  0.69838  0.57632  Biso   1.000  H
  H265     1.0000 0.05624  0.50936  0.58392  Biso   1.000  H
  N34      1.0000 0.37472  0.93780  0.81653  Biso   1.000  N
  N35      1.0000 0.12535  0.93780  0.68351  Biso   1.000  N
  C300     1.0000 0.46819  0.70546  0.89356  Biso   1.000  C
  C301     1.0000 0.34573  0.38976  0.87987  Biso   1.000  C
  C302     1.0000 0.07314  0.49277  0.78499  Biso   1.000  C
  C303     1.0000 0.03193  0.70546  0.60644  Biso   1.000  C
  C304     1.0000 0.40603  0.86201  0.84457  Biso   1.000  C
  C305     1.0000 0.33768  0.99976  0.84150  Biso   1.000  C
  C306     1.0000 0.09405  0.86201  0.65543  Biso   1.000  C
  C307     1.0000 0.10685  0.97036  0.73101  Biso   1.000  C
  C308     1.0000 0.47566  0.80429  0.89901  Biso   1.000  C
  C309     1.0000 0.41334  0.67401  0.87062  Biso   1.000  C
  C310     1.0000 0.49446  0.79108  0.86352  Biso   1.000  C
  C311     1.0000 0.41774  0.70931  0.89422  Biso   1.000  C
  C312     1.0000 0.31461  0.39629  0.83510  Biso   1.000  C
  C313     1.0000 0.33323  0.45463  0.92000  Biso   1.000  C
  C314     1.0000 0.08789  0.59821  0.78825  Biso   1.000  C
  C315     1.0000 0.10626  0.42271  0.81123  Biso   1.000  C
  C316     1.0000 0.02445  0.80429  0.60099  Biso   1.000  C
  C317     1.0000 0.08673  0.67401  0.62942  Biso   1.000  C
  C318     1.0000 0.00566  0.79108  0.63652  Biso   1.000  C
  C319     1.0000 0.08234  0.70931  0.60582  Biso   1.000  C
  C320     1.0000 0.44456  0.88135  0.87523  Biso   1.000  C
  C321     1.0000 0.38157  0.75177  0.84879  Biso   1.000  C
  C322     1.0000 0.46407  0.86767  0.83981  Biso   1.000  C
  C323     1.0000 0.38714  0.78676  0.87031  Biso   1.000  C
  C324     1.0000 0.29469  0.04159  0.81304  Biso   1.000  C
  C325     1.0000 0.34292  0.02131  0.89299  Biso   1.000  C
  C326     1.0000 0.05555  0.88135  0.62482  Biso   1.000  C
  C327     1.0000 0.11854  0.75177  0.65121  Biso   1.000  C
  C328     1.0000 0.03605  0.86767  0.66023  Biso   1.000  C
  C329     1.0000 0.11293  0.78676  0.62973  Biso   1.000  C
  C330     1.0000 0.09494  0.89637  0.76719  Biso   1.000  C
  C331     1.0000 0.09834  0.07572  0.74168  Biso   1.000  C
  H266     1.0000 0.50457  0.82647  0.92080  Biso   1.000  H
  H267     1.0000 0.40177  0.60300  0.87150  Biso   1.000  H
  H268     1.0000 0.40056  0.65561  0.91209  Biso   1.000  H
  H269     1.0000 0.53147  0.79148  0.86122  Biso   1.000  H
  C332     1.0000 0.27172  0.46171  0.83038  Biso   1.000  C
  H270     1.0000 0.32305  0.35438  0.80663  Biso   1.000  H
  H271     1.0000 0.35476  0.45377  0.95092  Biso   1.000  H
  C333     1.0000 0.29000  0.52068  0.91616  Biso   1.000  C
  C334     1.0000 0.13414  0.62872  0.81426  Biso   1.000  C
  H272     1.0000 0.06577  0.65010  0.77229  Biso   1.000  H
  H273     1.0000 0.09676  0.35053  0.81142  Biso   1.000  H
  C335     1.0000 0.15203  0.45251  0.83694  Biso   1.000  C
  H274     1.0000 0.99554  0.82647  0.57920  Biso   1.000  H
  H275     1.0000 0.09834  0.60300  0.62850  Biso   1.000  H
  H276     1.0000 0.09955  0.65561  0.58791  Biso   1.000  H
  H277     1.0000 0.96865  0.79148  0.63882  Biso   1.000  H
  H278     1.0000 0.45288  0.95290  0.88240  Biso   1.000  H
  H279     1.0000 0.34634  0.73801  0.83701  Biso   1.000  H
  H280     1.0000 0.35025  0.78401  0.87319  Biso   1.000  H
  H281     1.0000 0.47935  0.92255  0.82102  Biso   1.000  H
  H282     1.0000 0.29015  0.02658  0.77739  Biso   1.000  H
  C336     1.0000 0.25899  0.10387  0.83559  Biso   1.000  C
  H283     1.0000 0.37155  0.99269  0.91321  Biso   1.000  H
  C337     1.0000 0.30650  0.08523  0.91582  Biso   1.000  C
  H284     1.0000 0.04724  0.95290  0.61760  Biso   1.000  H
  H285     1.0000 0.15373  0.73801  0.66299  Biso   1.000  H
  H286     1.0000 0.14983  0.78401  0.62681  Biso   1.000  H
  H287     1.0000 0.02076  0.92255  0.67903  Biso   1.000  H
  H288     1.0000 0.10075  0.82395  0.76051  Biso   1.000  H
  C338     1.0000 0.07483  0.92570  0.81254  Biso   1.000  C
  C339     1.0000 0.07724  0.10379  0.78622  Biso   1.000  C
  H289     1.0000 0.10723  0.12816  0.71781  Biso   1.000  H
  C340     1.0000 0.25790  0.52493  0.87147  Biso   1.000  C
  H290     1.0000 0.25126  0.46399  0.79892  Biso   1.000  H
  H291     1.0000 0.28215  0.56369  0.94451  Biso   1.000  H
  C341     1.0000 0.16708  0.55559  0.83809  Biso   1.000  C
  H292     1.0000 0.14334  0.70105  0.81572  Biso   1.000  H
  H293     1.0000 0.17348  0.40101  0.85412  Biso   1.000  H
  H294     1.0000 0.23005  0.13107  0.81530  Biso   1.000  H
  C342     1.0000 0.26403  0.12864  0.88769  Biso   1.000  C
  H295     1.0000 0.31076  0.09931  0.95150  Biso   1.000  H
  H296     1.0000 0.06747  0.87341  0.83713  Biso   1.000  H
  C343     1.0000 0.06484  0.03082  0.82339  Biso   1.000  C
  H297     1.0000 0.07066  0.17613  0.79232  Biso   1.000  H
  N36      1.0000 0.21361  0.59042  0.86606  Biso   1.000  N
  C344     1.0000 0.22551  0.19586  0.91217  Biso   1.000  C
  C345     1.0000 0.04405  0.06487  0.87258  Biso   1.000  C
  C346     1.0000 0.20576  0.67125  0.90346  Biso   1.000  C
  C347     1.0000 0.17179  0.18651  0.89940  Biso   1.000  C
  C348     1.0000 0.24104  0.26867  0.94908  Biso   1.000  C
  C349     1.0000 0.06302  0.02257  0.91904  Biso   1.000  C
  C350     1.0000 0.00717  0.14641  0.87430  Biso   1.000  C
  C351     1.0000 0.18509  0.64822  0.95000  Biso   1.000  C
  C352     1.0000 0.21692  0.77465  0.89191  Biso   1.000  C
  H298     1.0000 0.15996  0.13760  0.87373  Biso   1.000  H
  C353     1.0000 0.13579  0.24713  0.92337  Biso   1.000  C
  C354     1.0000 0.20494  0.32977  0.97352  Biso   1.000  C
  H299     1.0000 0.27736  0.27717  0.95802  Biso   1.000  H
  H300     1.0000 0.08686  0.96525  0.91911  Biso   1.000  H
  C355     1.0000 0.04791  0.06220  0.96488  Biso   1.000  C
  C356     1.0000 0.99229  0.18619  0.92015  Biso   1.000  C
  H301     1.0000 0.99216  0.17448  0.84311  Biso   1.000  H
  H302     1.0000 0.17739  0.57737  0.95832  Biso   1.000  H
  C357     1.0000 0.17562  0.72739  0.98441  Biso   1.000  C
  C358     1.0000 0.20631  0.85422  0.92617  Biso   1.000  C
  H303     1.0000 0.23195  0.79140  0.86042  Biso   1.000  H
  H304     1.0000 0.09956  0.23958  0.91401  Biso   1.000  H
  C359     1.0000 0.15157  0.31821  0.96066  Biso   1.000  C
  H305     1.0000 0.21656  0.37946  0.99880  Biso   1.000  H
  H306     1.0000 0.06158  0.03161  0.99611  Biso   1.000  H
  C360     1.0000 0.01345  0.14507  0.96669  Biso   1.000  C
  H307     1.0000 0.96757  0.24178  0.92042  Biso   1.000  H
  C361     1.0000 0.18534  0.83260  0.97290  Biso   1.000  C
  H308     1.0000 0.16219  0.71002  0.01649  Biso   1.000  H
  H309     1.0000 0.21344  0.92499  0.91743  Biso   1.000  H
  C362     1.0000 0.11113  0.38041  0.98587  Biso   1.000  C
  C363     1.0000 0.99961  0.18549  0.01691  Biso   1.000  C
  C364     1.0000 0.17455  0.91815  0.00950  Biso   1.000  C
  H310     1.0000 0.07557  0.37380  0.97371  Biso   1.000  H
  N37      1.0000 0.12231  0.44189  0.02270  Biso   1.000  N
  N38      1.0000 0.96801  0.25971  0.02278  Biso   1.000  N
  H311     1.0000 0.01559  0.15348  0.04679  Biso   1.000  H
  C365     1.0000 0.13551  0.91028  0.04419  Biso   1.000  C
  C366     1.0000 0.20382  0.01101  0.00935  Biso   1.000  C
  C367     1.0000 0.07889  0.50252  0.04288  Biso   1.000  C
  C368     1.0000 0.95839  0.28802  0.07515  Biso   1.000  C
  H312     1.0000 0.11580  0.84707  0.04580  Biso   1.000  H
  C369     1.0000 0.12461  0.99300  0.07668  Biso   1.000  C
  H313     1.0000 0.23136  0.01793  0.98652  Biso   1.000  H
  C370     1.0000 0.19327  0.09278  0.04200  Biso   1.000  C
  C371     1.0000 0.06992  0.47563  0.09840  Biso   1.000  C
  H314     1.0000 0.04640  0.48813  0.02159  Biso   1.000  H
  H315     1.0000 0.08672  0.57847  0.04027  Biso   1.000  H
  C372     1.0000 0.98522  0.38968  0.09057  Biso   1.000  C
  H316     1.0000 0.97130  0.23109  0.09847  Biso   1.000  H
  H317     1.0000 0.92020  0.29533  0.07868  Biso   1.000  H
  H318     1.0000 0.09740  0.98616  0.09989  Biso   1.000  H
  C373     1.0000 0.15357  0.08610  0.07534  Biso   1.000  C
  H319     1.0000 0.21391  0.15490  0.04150  Biso   1.000  H
  N39      1.0000 0.04174  0.37726  0.10373  Biso   1.000  N
  H320     1.0000 0.10422  0.47059  0.11781  Biso   1.000  H
  H321     1.0000 0.04982  0.53310  0.11370  Biso   1.000  H
  H322     1.0000 0.98042  0.44056  0.06199  Biso   1.000  H
  H323     1.0000 0.96822  0.41933  0.12049  Biso   1.000  H
  C374     1.0000 0.14297  0.17872  0.10695  Biso   1.000  C
  C375     1.0000 0.04971  0.33496  0.15575  Biso   1.000  C
  N40      1.0000 0.10605  0.18446  0.13699  Biso   1.000  N
  H324     1.0000 0.16541  0.23793  0.10457  Biso   1.000  H
  H325     1.0000 0.02171  0.28322  0.16151  Biso   1.000  H
  H326     1.0000 0.04612  0.39299  0.18057  Biso   1.000  H
  C376     1.0000 0.10261  0.28251  0.16642  Biso   1.000  C
  H327     1.0000 0.13083  0.33103  0.15698  Biso   1.000  H
  H328     1.0000 0.10762  0.26679  0.20348  Biso   1.000  H
  Ne1      1.0000 0.75002  0.23767  0.25001  Biso   1.000  Ne
  He1      1.0000 0.78634  0.30615  0.35383  Biso   1.000  He
  He2      1.0000 0.68086  0.04446  0.32831  Biso   1.000  He
  He3      1.0000 0.70689  0.67018  0.27114  Biso   1.000  He
  He4      1.0000 0.70844  0.30676  0.13529  Biso   1.000  He
  Ar1      1.0000 0.75002  0.23767  0.25001  Biso   1.000  Ar
  Ne2      1.0000 0.25004  0.76231  0.75001  Biso   1.000  Ne
  He5      1.0000 0.29442  0.69300  0.87026  Biso   1.000  He
  He6      1.0000 0.16765  0.51471  0.74174  Biso   1.000  He
  He7      1.0000 0.19206  0.71573  0.57836  Biso   1.000  He
  Ar2      1.0000 0.25012  0.72250  0.74999  Biso   1.000  Ar
