data_image0
_cell_length_a       25.37
_cell_length_b       25.37
_cell_length_c       25.37
_cell_angle_alpha    90
_cell_angle_beta     90
_cell_angle_gamma    90

_symmetry_space_group_name_H-M    "P 1"
_symmetry_int_tables_number       1

loop_
  _symmetry_equiv_pos_as_xyz
  'x, y, z'

loop_
  _atom_site_label
  _atom_site_occupancy
  _atom_site_fract_x
  _atom_site_fract_y
  _atom_site_fract_z
  _atom_site_thermal_displace_type
  _atom_site_B_iso_or_equiv
  _atom_site_type_symbol
  C1       1.0000 0.39791  0.32341  0.34490  Biso   1.000  C
  C2       1.0000 0.44710  0.28829  0.33650  Biso   1.000  C
  C3       1.0000 0.36492  0.31198  0.38719  Biso   1.000  C
  C4       1.0000 0.38719  0.36492  0.31198  Biso   1.000  C
  N1       1.0000 0.46460  0.28392  0.28199  Biso   1.000  N
  H1       1.0000 0.47639  0.30260  0.35790  Biso   1.000  H
  H2       1.0000 0.43922  0.25250  0.34990  Biso   1.000  H
  C5       1.0000 0.32341  0.34490  0.39791  Biso   1.000  C
  H3       1.0000 0.37099  0.28171  0.40840  Biso   1.000  H
  C6       1.0000 0.34490  0.39791  0.32341  Biso   1.000  C
  H4       1.0000 0.40840  0.37099  0.28171  Biso   1.000  H
  C7       1.0000 0.43011  0.25002  0.25002  Biso   1.000  C
  C8       1.0000 0.51671  0.25999  0.27781  Biso   1.000  C
  C9       1.0000 0.28829  0.33650  0.44710  Biso   1.000  C
  C10      1.0000 0.31198  0.38719  0.36492  Biso   1.000  C
  C11      1.0000 0.33650  0.44710  0.28829  Biso   1.000  C
  N2       1.0000 0.46460  0.21608  0.21801  Biso   1.000  N
  H5       1.0000 0.40729  0.27182  0.22700  Biso   1.000  H
  H6       1.0000 0.40729  0.22818  0.27300  Biso   1.000  H
  C12      1.0000 0.51671  0.24001  0.22219  Biso   1.000  C
  C13      1.0000 0.56401  0.29570  0.28719  Biso   1.000  C
  H7       1.0000 0.51880  0.22940  0.30240  Biso   1.000  H
  N3       1.0000 0.28392  0.28199  0.46460  Biso   1.000  N
  H8       1.0000 0.30260  0.35790  0.47639  Biso   1.000  H
  H9       1.0000 0.25250  0.34990  0.43922  Biso   1.000  H
  H10      1.0000 0.28171  0.40840  0.37099  Biso   1.000  H
  N4       1.0000 0.28199  0.46460  0.28392  Biso   1.000  N
  H11      1.0000 0.35790  0.47639  0.30260  Biso   1.000  H
  H12      1.0000 0.34990  0.43922  0.25250  Biso   1.000  H
  C14      1.0000 0.44710  0.21171  0.16350  Biso   1.000  C
  C15      1.0000 0.56401  0.20430  0.21281  Biso   1.000  C
  H13      1.0000 0.51880  0.27060  0.19760  Biso   1.000  H
  C16      1.0000 0.61328  0.26188  0.27659  Biso   1.000  C
  H14      1.0000 0.56401  0.30879  0.32389  Biso   1.000  H
  H15      1.0000 0.56299  0.32629  0.26299  Biso   1.000  H
  C17      1.0000 0.25999  0.27781  0.51671  Biso   1.000  C
  C18      1.0000 0.25002  0.25002  0.43011  Biso   1.000  C
  C19      1.0000 0.27781  0.51671  0.25999  Biso   1.000  C
  C20      1.0000 0.25002  0.43011  0.25002  Biso   1.000  C
  H16      1.0000 0.47639  0.19740  0.14210  Biso   1.000  H
  H17      1.0000 0.43922  0.24750  0.15010  Biso   1.000  H
  C21      1.0000 0.39791  0.17659  0.15510  Biso   1.000  C
  C22      1.0000 0.61328  0.23812  0.22341  Biso   1.000  C
  H18      1.0000 0.56401  0.19121  0.17611  Biso   1.000  H
  H19      1.0000 0.56299  0.17371  0.23701  Biso   1.000  H
  H20      1.0000 0.64509  0.28412  0.28069  Biso   1.000  H
  H21      1.0000 0.61521  0.23339  0.30331  Biso   1.000  H
  C23      1.0000 0.29570  0.28719  0.56401  Biso   1.000  C
  C24      1.0000 0.24001  0.22219  0.51671  Biso   1.000  C
  H22      1.0000 0.22940  0.30240  0.51880  Biso   1.000  H
  N5       1.0000 0.21608  0.21801  0.46460  Biso   1.000  N
  H23      1.0000 0.22818  0.27300  0.40729  Biso   1.000  H
  H24      1.0000 0.27182  0.22700  0.40729  Biso   1.000  H
  C25      1.0000 0.28719  0.56401  0.29570  Biso   1.000  C
  C26      1.0000 0.22219  0.51671  0.24001  Biso   1.000  C
  H25      1.0000 0.30240  0.51880  0.22940  Biso   1.000  H
  N6       1.0000 0.21801  0.46460  0.21608  Biso   1.000  N
  H26      1.0000 0.27300  0.40729  0.22818  Biso   1.000  H
  H27      1.0000 0.22700  0.40729  0.27182  Biso   1.000  H
  C27      1.0000 0.36492  0.18802  0.11281  Biso   1.000  C
  C28      1.0000 0.38719  0.13508  0.18802  Biso   1.000  C
  H28      1.0000 0.64509  0.21588  0.21931  Biso   1.000  H
  H29      1.0000 0.61521  0.26661  0.19669  Biso   1.000  H
  C29      1.0000 0.26188  0.27659  0.61328  Biso   1.000  C
  H30      1.0000 0.30879  0.32389  0.56401  Biso   1.000  H
  H31      1.0000 0.32629  0.26299  0.56299  Biso   1.000  H
  C30      1.0000 0.20430  0.21281  0.56401  Biso   1.000  C
  H32      1.0000 0.27060  0.19760  0.51880  Biso   1.000  H
  C31      1.0000 0.21171  0.16350  0.44710  Biso   1.000  C
  C32      1.0000 0.27659  0.61328  0.26188  Biso   1.000  C
  H33      1.0000 0.32389  0.56401  0.30879  Biso   1.000  H
  H34      1.0000 0.26299  0.56299  0.32629  Biso   1.000  H
  C33      1.0000 0.21281  0.56401  0.20430  Biso   1.000  C
  H35      1.0000 0.19760  0.51880  0.27060  Biso   1.000  H
  C34      1.0000 0.16350  0.44710  0.21171  Biso   1.000  C
  C35      1.0000 0.32341  0.15510  0.10209  Biso   1.000  C
  H36      1.0000 0.37099  0.21829  0.09160  Biso   1.000  H
  C36      1.0000 0.34490  0.10209  0.17659  Biso   1.000  C
  H37      1.0000 0.40840  0.12901  0.21829  Biso   1.000  H
  C37      1.0000 0.23812  0.22341  0.61328  Biso   1.000  C
  H38      1.0000 0.28412  0.28069  0.64509  Biso   1.000  H
  H39      1.0000 0.23339  0.30331  0.61521  Biso   1.000  H
  H40      1.0000 0.19121  0.17611  0.56401  Biso   1.000  H
  H41      1.0000 0.17371  0.23701  0.56299  Biso   1.000  H
  H42      1.0000 0.19740  0.14210  0.47639  Biso   1.000  H
  H43      1.0000 0.24750  0.15010  0.43922  Biso   1.000  H
  C38      1.0000 0.17659  0.15510  0.39791  Biso   1.000  C
  C39      1.0000 0.22341  0.61328  0.23812  Biso   1.000  C
  H44      1.0000 0.28069  0.64509  0.28412  Biso   1.000  H
  H45      1.0000 0.30331  0.61521  0.23339  Biso   1.000  H
  H46      1.0000 0.17611  0.56401  0.19121  Biso   1.000  H
  H47      1.0000 0.23701  0.56299  0.17371  Biso   1.000  H
  H48      1.0000 0.14210  0.47639  0.19740  Biso   1.000  H
  H49      1.0000 0.15010  0.43922  0.24750  Biso   1.000  H
  C40      1.0000 0.15510  0.39791  0.17659  Biso   1.000  C
  C41      1.0000 0.28829  0.16350  0.05290  Biso   1.000  C
  C42      1.0000 0.31198  0.11281  0.13508  Biso   1.000  C
  C43      1.0000 0.33650  0.05290  0.21171  Biso   1.000  C
  H50      1.0000 0.21588  0.21931  0.64509  Biso   1.000  H
  H51      1.0000 0.26661  0.19669  0.61521  Biso   1.000  H
  C44      1.0000 0.13508  0.18802  0.38719  Biso   1.000  C
  C45      1.0000 0.18802  0.11281  0.36492  Biso   1.000  C
  H52      1.0000 0.21931  0.64509  0.21588  Biso   1.000  H
  H53      1.0000 0.19669  0.61521  0.26661  Biso   1.000  H
  C46      1.0000 0.11281  0.36492  0.18802  Biso   1.000  C
  C47      1.0000 0.18802  0.38719  0.13508  Biso   1.000  C
  N7       1.0000 0.28392  0.21801  0.03540  Biso   1.000  N
  H54      1.0000 0.30260  0.14210  0.02361  Biso   1.000  H
  H55      1.0000 0.25250  0.15010  0.06078  Biso   1.000  H
  H56      1.0000 0.28171  0.09160  0.12901  Biso   1.000  H
  N8       1.0000 0.28199  0.03540  0.21608  Biso   1.000  N
  H57      1.0000 0.35790  0.02361  0.19740  Biso   1.000  H
  H58      1.0000 0.34990  0.06078  0.24750  Biso   1.000  H
  C48      1.0000 0.10209  0.17659  0.34490  Biso   1.000  C
  H59      1.0000 0.12901  0.21829  0.40840  Biso   1.000  H
  C49      1.0000 0.15510  0.10209  0.32341  Biso   1.000  C
  H60      1.0000 0.21829  0.09160  0.37099  Biso   1.000  H
  C50      1.0000 0.10209  0.32341  0.15510  Biso   1.000  C
  H61      1.0000 0.09160  0.37099  0.21829  Biso   1.000  H
  C51      1.0000 0.17659  0.34490  0.10209  Biso   1.000  C
  H62      1.0000 0.21829  0.40840  0.12901  Biso   1.000  H
  C52      1.0000 0.25002  0.25002  0.06989  Biso   1.000  C
  C53      1.0000 0.25999  0.22219  0.98329  Biso   1.000  C
  C54      1.0000 0.25002  0.06989  0.25002  Biso   1.000  C
  C55      1.0000 0.27781  0.98329  0.24001  Biso   1.000  C
  C56      1.0000 0.11281  0.13508  0.31198  Biso   1.000  C
  C57      1.0000 0.05290  0.21171  0.33650  Biso   1.000  C
  C58      1.0000 0.16350  0.05290  0.28829  Biso   1.000  C
  C59      1.0000 0.13508  0.31198  0.11281  Biso   1.000  C
  C60      1.0000 0.05290  0.28829  0.16350  Biso   1.000  C
  C61      1.0000 0.21171  0.33650  0.05290  Biso   1.000  C
  N9       1.0000 0.21608  0.28199  0.03540  Biso   1.000  N
  H63      1.0000 0.27182  0.27300  0.09271  Biso   1.000  H
  H64      1.0000 0.22818  0.22700  0.09271  Biso   1.000  H
  C62      1.0000 0.29570  0.21281  0.93599  Biso   1.000  C
  C63      1.0000 0.24001  0.27781  0.98329  Biso   1.000  C
  H65      1.0000 0.22940  0.19760  0.98120  Biso   1.000  H
  N10      1.0000 0.21801  0.03540  0.28392  Biso   1.000  N
  H66      1.0000 0.27300  0.09271  0.27182  Biso   1.000  H
  H67      1.0000 0.22700  0.09271  0.22818  Biso   1.000  H
  C64      1.0000 0.28719  0.93599  0.20430  Biso   1.000  C
  C65      1.0000 0.22219  0.98329  0.25999  Biso   1.000  C
  H68      1.0000 0.30240  0.98120  0.27060  Biso   1.000  H
  H69      1.0000 0.09160  0.12901  0.28171  Biso   1.000  H
  N11      1.0000 0.03540  0.21608  0.28199  Biso   1.000  N
  H70      1.0000 0.02361  0.19740  0.35790  Biso   1.000  H
  H71      1.0000 0.06078  0.24750  0.34990  Biso   1.000  H
  H72      1.0000 0.14210  0.02361  0.30260  Biso   1.000  H
  H73      1.0000 0.15010  0.06078  0.25250  Biso   1.000  H
  H74      1.0000 0.12901  0.28171  0.09160  Biso   1.000  H
  N12      1.0000 0.03540  0.28392  0.21801  Biso   1.000  N
  H75      1.0000 0.02361  0.30260  0.14210  Biso   1.000  H
  H76      1.0000 0.06078  0.25250  0.15010  Biso   1.000  H
  H77      1.0000 0.19740  0.35790  0.02361  Biso   1.000  H
  H78      1.0000 0.24750  0.34990  0.06078  Biso   1.000  H
  C66      1.0000 0.26188  0.22341  0.88672  Biso   1.000  C
  H79      1.0000 0.30879  0.17611  0.93599  Biso   1.000  H
  H80      1.0000 0.32629  0.23701  0.93701  Biso   1.000  H
  C67      1.0000 0.20430  0.28719  0.93599  Biso   1.000  C
  H81      1.0000 0.27060  0.30240  0.98120  Biso   1.000  H
  C68      1.0000 0.27659  0.88672  0.23812  Biso   1.000  C
  H82      1.0000 0.32389  0.93599  0.19121  Biso   1.000  H
  H83      1.0000 0.26299  0.93701  0.17371  Biso   1.000  H
  C69      1.0000 0.21281  0.93599  0.29570  Biso   1.000  C
  H84      1.0000 0.19760  0.98120  0.22940  Biso   1.000  H
  C70      1.0000 0.06989  0.25002  0.25002  Biso   1.000  C
  C71      1.0000 0.98329  0.24001  0.27781  Biso   1.000  C
  C72      1.0000 0.98329  0.25999  0.22219  Biso   1.000  C
  C73      1.0000 0.23812  0.27659  0.88672  Biso   1.000  C
  H85      1.0000 0.28412  0.21931  0.85491  Biso   1.000  H
  H86      1.0000 0.23339  0.19669  0.88479  Biso   1.000  H
  H87      1.0000 0.19121  0.32389  0.93599  Biso   1.000  H
  H88      1.0000 0.17371  0.26299  0.93701  Biso   1.000  H
  C74      1.0000 0.22341  0.88672  0.26188  Biso   1.000  C
  H89      1.0000 0.28069  0.85491  0.21588  Biso   1.000  H
  H90      1.0000 0.30331  0.88479  0.26661  Biso   1.000  H
  H91      1.0000 0.17611  0.93599  0.30879  Biso   1.000  H
  H92      1.0000 0.23701  0.93701  0.32629  Biso   1.000  H
  H93      1.0000 0.09271  0.27182  0.27300  Biso   1.000  H
  H94      1.0000 0.09271  0.22818  0.22700  Biso   1.000  H
  C75      1.0000 0.93599  0.20430  0.28719  Biso   1.000  C
  H95      1.0000 0.98120  0.27060  0.30240  Biso   1.000  H
  C76      1.0000 0.93599  0.29570  0.21281  Biso   1.000  C
  H96      1.0000 0.98120  0.22940  0.19760  Biso   1.000  H
  H97      1.0000 0.21588  0.28069  0.85491  Biso   1.000  H
  H98      1.0000 0.26661  0.30331  0.88479  Biso   1.000  H
  H99      1.0000 0.21931  0.85491  0.28412  Biso   1.000  H
  H100     1.0000 0.19669  0.88479  0.23339  Biso   1.000  H
  C77      1.0000 0.88672  0.23812  0.27659  Biso   1.000  C
  H101     1.0000 0.93599  0.19121  0.32389  Biso   1.000  H
  H102     1.0000 0.93701  0.17371  0.26299  Biso   1.000  H
  C78      1.0000 0.88672  0.26188  0.22341  Biso   1.000  C
  H103     1.0000 0.93599  0.30879  0.17611  Biso   1.000  H
  H104     1.0000 0.93701  0.32629  0.23701  Biso   1.000  H
  H105     1.0000 0.85491  0.21588  0.28069  Biso   1.000  H
  H106     1.0000 0.88479  0.26661  0.30331  Biso   1.000  H
  H107     1.0000 0.85491  0.28412  0.21931  Biso   1.000  H
  H108     1.0000 0.88479  0.23339  0.19669  Biso   1.000  H
  C79      1.0000 0.51190  0.36330  0.47339  Biso   1.000  C
  C80      1.0000 0.54568  0.31399  0.46279  Biso   1.000  C
  C81      1.0000 0.48810  0.36330  0.52661  Biso   1.000  C
  H109     1.0000 0.53410  0.39511  0.46929  Biso   1.000  H
  H110     1.0000 0.48341  0.36520  0.44671  Biso   1.000  H
  C82      1.0000 0.51001  0.26669  0.47221  Biso   1.000  C
  H111     1.0000 0.55881  0.31399  0.42609  Biso   1.000  H
  H112     1.0000 0.57631  0.31301  0.48699  Biso   1.000  H
  C83      1.0000 0.45432  0.31399  0.53721  Biso   1.000  C
  H113     1.0000 0.46590  0.39511  0.53071  Biso   1.000  H
  H114     1.0000 0.51659  0.36520  0.55329  Biso   1.000  H
  N13      1.0000 0.53390  0.21462  0.46799  Biso   1.000  N
  C84      1.0000 0.48999  0.26669  0.52779  Biso   1.000  C
  H115     1.0000 0.47939  0.26878  0.44762  Biso   1.000  H
  H116     1.0000 0.44119  0.31399  0.57391  Biso   1.000  H
  H117     1.0000 0.42369  0.31301  0.51301  Biso   1.000  H
  C85      1.0000 0.53831  0.19708  0.41348  Biso   1.000  C
  C86      1.0000 0.50000  0.18009  0.50000  Biso   1.000  C
  N14      1.0000 0.46610  0.21462  0.53201  Biso   1.000  N
  H118     1.0000 0.52061  0.26878  0.55238  Biso   1.000  H
  H119     1.0000 0.55258  0.22641  0.39212  Biso   1.000  H
  H120     1.0000 0.50248  0.18920  0.40012  Biso   1.000  H
  C87      1.0000 0.57339  0.14789  0.40508  Biso   1.000  C
  H121     1.0000 0.52180  0.15731  0.52302  Biso   1.000  H
  H122     1.0000 0.47820  0.15731  0.47698  Biso   1.000  H
  C88      1.0000 0.46169  0.19708  0.58652  Biso   1.000  C
  C89      1.0000 0.56200  0.11490  0.36279  Biso   1.000  C
  C90      1.0000 0.61490  0.13721  0.43800  Biso   1.000  C
  H123     1.0000 0.44742  0.22641  0.60788  Biso   1.000  H
  H124     1.0000 0.49752  0.18920  0.59988  Biso   1.000  H
  C91      1.0000 0.42661  0.14789  0.59492  Biso   1.000  C
  C92      1.0000 0.59492  0.07339  0.35211  Biso   1.000  C
  H125     1.0000 0.53169  0.12101  0.34158  Biso   1.000  H
  C93      1.0000 0.64789  0.09492  0.42661  Biso   1.000  C
  H126     1.0000 0.62101  0.15842  0.46831  Biso   1.000  H
  C94      1.0000 0.43800  0.11490  0.63721  Biso   1.000  C
  C95      1.0000 0.38510  0.13721  0.56200  Biso   1.000  C
  C96      1.0000 0.58652  0.03831  0.30292  Biso   1.000  C
  C97      1.0000 0.63721  0.06200  0.38510  Biso   1.000  C
  C98      1.0000 0.69708  0.08652  0.46169  Biso   1.000  C
  C99      1.0000 0.40508  0.07339  0.64789  Biso   1.000  C
  H127     1.0000 0.46831  0.12101  0.65842  Biso   1.000  H
  C100     1.0000 0.35211  0.09492  0.57339  Biso   1.000  C
  H128     1.0000 0.37899  0.15842  0.53169  Biso   1.000  H
  N15      1.0000 0.53201  0.03390  0.28538  Biso   1.000  N
  H129     1.0000 0.60788  0.05258  0.27359  Biso   1.000  H
  H130     1.0000 0.59988  0.00248  0.31080  Biso   1.000  H
  H131     1.0000 0.65842  0.03169  0.37899  Biso   1.000  H
  N16      1.0000 0.71462  0.03201  0.46610  Biso   1.000  N
  H132     1.0000 0.72641  0.10788  0.44742  Biso   1.000  H
  H133     1.0000 0.68920  0.09988  0.49752  Biso   1.000  H
  C101     1.0000 0.41348  0.03831  0.69708  Biso   1.000  C
  C102     1.0000 0.36279  0.06200  0.61490  Biso   1.000  C
  C103     1.0000 0.30292  0.08652  0.53831  Biso   1.000  C
  C104     1.0000 0.52779  0.01001  0.23331  Biso   1.000  C
  C105     1.0000 0.50000  0.00000  0.31991  Biso   1.000  C
  C106     1.0000 0.76669  0.02779  0.48999  Biso   1.000  C
  C107     1.0000 0.68009  0.00000  0.50000  Biso   1.000  C
  N17      1.0000 0.46799  0.03390  0.71462  Biso   1.000  N
  H134     1.0000 0.39212  0.05258  0.72641  Biso   1.000  H
  H135     1.0000 0.40012  0.00248  0.68920  Biso   1.000  H
  H136     1.0000 0.34158  0.03169  0.62101  Biso   1.000  H
  N18      1.0000 0.28538  0.03201  0.53390  Biso   1.000  N
  H137     1.0000 0.27359  0.10788  0.55258  Biso   1.000  H
  H138     1.0000 0.31080  0.09988  0.50248  Biso   1.000  H
  C108     1.0000 0.53721  0.04568  0.18601  Biso   1.000  C
  C109     1.0000 0.47221  0.98999  0.23331  Biso   1.000  C
  H139     1.0000 0.55238  0.97939  0.23122  Biso   1.000  H
  H140     1.0000 0.47698  0.02180  0.34269  Biso   1.000  H
  N19      1.0000 0.46799  0.96610  0.28538  Biso   1.000  N
  H141     1.0000 0.52302  0.97820  0.34269  Biso   1.000  H
  C110     1.0000 0.81399  0.03721  0.45432  Biso   1.000  C
  H142     1.0000 0.76878  0.05238  0.52061  Biso   1.000  H
  C111     1.0000 0.76669  0.97221  0.51001  Biso   1.000  C
  H143     1.0000 0.65731  0.02302  0.52180  Biso   1.000  H
  N20      1.0000 0.71462  0.96799  0.53390  Biso   1.000  N
  H144     1.0000 0.65731  0.97698  0.47820  Biso   1.000  H
  C112     1.0000 0.47221  0.01001  0.76669  Biso   1.000  C
  C113     1.0000 0.50000  0.00000  0.68009  Biso   1.000  C
  C114     1.0000 0.23331  0.02779  0.51001  Biso   1.000  C
  C115     1.0000 0.31991  0.00000  0.50000  Biso   1.000  C
  C116     1.0000 0.52661  0.01190  0.13670  Biso   1.000  C
  H145     1.0000 0.57391  0.05881  0.18601  Biso   1.000  H
  H146     1.0000 0.51301  0.07631  0.18699  Biso   1.000  H
  H147     1.0000 0.44762  0.02061  0.23122  Biso   1.000  H
  C117     1.0000 0.46279  0.95432  0.18601  Biso   1.000  C
  C118     1.0000 0.41348  0.96169  0.30292  Biso   1.000  C
  C119     1.0000 0.86330  0.02661  0.48810  Biso   1.000  C
  H148     1.0000 0.81399  0.07391  0.44119  Biso   1.000  H
  H149     1.0000 0.81301  0.01301  0.42369  Biso   1.000  H
  C120     1.0000 0.81399  0.96279  0.54568  Biso   1.000  C
  H150     1.0000 0.76878  0.94762  0.47939  Biso   1.000  H
  C121     1.0000 0.69708  0.91348  0.53831  Biso   1.000  C
  C122     1.0000 0.46279  0.04568  0.81399  Biso   1.000  C
  C123     1.0000 0.52779  0.98999  0.76669  Biso   1.000  C
  H151     1.0000 0.44762  0.97939  0.76878  Biso   1.000  H
  H152     1.0000 0.52302  0.02180  0.65731  Biso   1.000  H
  N21      1.0000 0.53201  0.96610  0.71462  Biso   1.000  N
  H153     1.0000 0.47698  0.97820  0.65731  Biso   1.000  H
  C124     1.0000 0.18601  0.03721  0.54568  Biso   1.000  C
  H154     1.0000 0.23122  0.05238  0.47939  Biso   1.000  H
  C125     1.0000 0.23331  0.97221  0.48999  Biso   1.000  C
  H155     1.0000 0.34269  0.02302  0.47820  Biso   1.000  H
  N22      1.0000 0.28538  0.96799  0.46610  Biso   1.000  N
  H156     1.0000 0.34269  0.97698  0.52180  Biso   1.000  H
  H157     1.0000 0.53071  0.03410  0.10489  Biso   1.000  H
  C126     1.0000 0.47339  0.98810  0.13670  Biso   1.000  C
  H158     1.0000 0.55329  0.98341  0.13480  Biso   1.000  H
  H159     1.0000 0.42609  0.94119  0.18601  Biso   1.000  H
  H160     1.0000 0.48699  0.92369  0.18699  Biso   1.000  H
  H161     1.0000 0.39212  0.94742  0.27359  Biso   1.000  H
  H162     1.0000 0.40012  0.99752  0.31080  Biso   1.000  H
  C127     1.0000 0.40508  0.92661  0.35211  Biso   1.000  C
  H163     1.0000 0.89511  0.03071  0.46590  Biso   1.000  H
  H164     1.0000 0.86520  0.05329  0.51659  Biso   1.000  H
  C128     1.0000 0.86330  0.97339  0.51190  Biso   1.000  C
  H165     1.0000 0.81399  0.92609  0.55881  Biso   1.000  H
  H166     1.0000 0.81301  0.98699  0.57631  Biso   1.000  H
  H167     1.0000 0.72641  0.89212  0.55258  Biso   1.000  H
  H168     1.0000 0.68920  0.90012  0.50248  Biso   1.000  H
  C129     1.0000 0.64789  0.90508  0.57339  Biso   1.000  C
  C130     1.0000 0.47339  0.01190  0.86330  Biso   1.000  C
  H169     1.0000 0.42609  0.05881  0.81399  Biso   1.000  H
  H170     1.0000 0.48699  0.07631  0.81301  Biso   1.000  H
  H171     1.0000 0.55238  0.02061  0.76878  Biso   1.000  H
  C131     1.0000 0.53721  0.95432  0.81399  Biso   1.000  C
  C132     1.0000 0.58652  0.96169  0.69708  Biso   1.000  C
  C133     1.0000 0.13670  0.02661  0.51190  Biso   1.000  C
  H172     1.0000 0.18601  0.07391  0.55881  Biso   1.000  H
  H173     1.0000 0.18699  0.01301  0.57631  Biso   1.000  H
  C134     1.0000 0.18601  0.96279  0.45432  Biso   1.000  C
  H174     1.0000 0.23122  0.94762  0.52061  Biso   1.000  H
  C135     1.0000 0.30292  0.91348  0.46169  Biso   1.000  C
  H175     1.0000 0.44671  0.01659  0.13480  Biso   1.000  H
  H176     1.0000 0.46929  0.96590  0.10489  Biso   1.000  H
  C136     1.0000 0.43800  0.88510  0.36279  Biso   1.000  C
  C137     1.0000 0.36279  0.93800  0.38510  Biso   1.000  C
  H177     1.0000 0.89511  0.96929  0.53410  Biso   1.000  H
  H178     1.0000 0.86520  0.94671  0.48341  Biso   1.000  H
  C138     1.0000 0.63721  0.93800  0.61490  Biso   1.000  C
  C139     1.0000 0.61490  0.86279  0.56200  Biso   1.000  C
  H179     1.0000 0.46929  0.03410  0.89511  Biso   1.000  H
  C140     1.0000 0.52661  0.98810  0.86330  Biso   1.000  C
  H180     1.0000 0.44671  0.98341  0.86520  Biso   1.000  H
  H181     1.0000 0.57391  0.94119  0.81399  Biso   1.000  H
  H182     1.0000 0.51301  0.92369  0.81301  Biso   1.000  H
  C141     1.0000 0.59492  0.92661  0.64789  Biso   1.000  C
  H183     1.0000 0.60788  0.94742  0.72641  Biso   1.000  H
  H184     1.0000 0.59988  0.99752  0.68920  Biso   1.000  H
  H185     1.0000 0.10489  0.03071  0.53410  Biso   1.000  H
  H186     1.0000 0.13480  0.05329  0.48341  Biso   1.000  H
  C142     1.0000 0.13670  0.97339  0.48810  Biso   1.000  C
  H187     1.0000 0.18601  0.92609  0.44119  Biso   1.000  H
  H188     1.0000 0.18699  0.98699  0.42369  Biso   1.000  H
  C143     1.0000 0.35211  0.90508  0.42661  Biso   1.000  C
  H189     1.0000 0.27359  0.89212  0.44742  Biso   1.000  H
  H190     1.0000 0.31080  0.90012  0.49752  Biso   1.000  H
  C144     1.0000 0.42661  0.85211  0.40508  Biso   1.000  C
  H191     1.0000 0.46831  0.87899  0.34158  Biso   1.000  H
  H192     1.0000 0.34158  0.96831  0.37899  Biso   1.000  H
  H193     1.0000 0.65842  0.96831  0.62101  Biso   1.000  H
  C145     1.0000 0.57339  0.85211  0.59492  Biso   1.000  C
  H194     1.0000 0.62101  0.84158  0.53169  Biso   1.000  H
  H195     1.0000 0.55329  0.01659  0.86520  Biso   1.000  H
  H196     1.0000 0.53071  0.96590  0.89511  Biso   1.000  H
  C146     1.0000 0.56200  0.88510  0.63721  Biso   1.000  C
  H197     1.0000 0.10489  0.96929  0.46590  Biso   1.000  H
  H198     1.0000 0.13480  0.94671  0.51659  Biso   1.000  H
  C147     1.0000 0.38510  0.86279  0.43800  Biso   1.000  C
  C148     1.0000 0.46169  0.80292  0.41348  Biso   1.000  C
  C149     1.0000 0.53831  0.80292  0.58652  Biso   1.000  C
  H199     1.0000 0.53169  0.87899  0.65842  Biso   1.000  H
  H200     1.0000 0.37899  0.84158  0.46831  Biso   1.000  H
  N23      1.0000 0.46610  0.78538  0.46799  Biso   1.000  N
  H201     1.0000 0.44742  0.77359  0.39212  Biso   1.000  H
  H202     1.0000 0.49752  0.81080  0.40012  Biso   1.000  H
  N24      1.0000 0.53390  0.78538  0.53201  Biso   1.000  N
  H203     1.0000 0.55258  0.77359  0.60788  Biso   1.000  H
  H204     1.0000 0.50248  0.81080  0.59988  Biso   1.000  H
  C150     1.0000 0.48999  0.73331  0.47221  Biso   1.000  C
  C151     1.0000 0.50000  0.81991  0.50000  Biso   1.000  C
  C152     1.0000 0.51001  0.73331  0.52779  Biso   1.000  C
  C153     1.0000 0.45432  0.68601  0.46279  Biso   1.000  C
  H205     1.0000 0.52061  0.73122  0.44762  Biso   1.000  H
  H206     1.0000 0.47820  0.84269  0.52302  Biso   1.000  H
  H207     1.0000 0.52180  0.84269  0.47698  Biso   1.000  H
  C154     1.0000 0.54568  0.68601  0.53721  Biso   1.000  C
  H208     1.0000 0.47939  0.73122  0.55238  Biso   1.000  H
  C155     1.0000 0.48810  0.63670  0.47339  Biso   1.000  C
  H209     1.0000 0.44119  0.68601  0.42609  Biso   1.000  H
  H210     1.0000 0.42369  0.68699  0.48699  Biso   1.000  H
  C156     1.0000 0.51190  0.63670  0.52661  Biso   1.000  C
  H211     1.0000 0.55881  0.68601  0.57391  Biso   1.000  H
  H212     1.0000 0.57631  0.68699  0.51301  Biso   1.000  H
  H213     1.0000 0.46590  0.60489  0.46929  Biso   1.000  H
  H214     1.0000 0.51659  0.63480  0.44671  Biso   1.000  H
  H215     1.0000 0.53410  0.60489  0.53071  Biso   1.000  H
  H216     1.0000 0.48341  0.63480  0.55329  Biso   1.000  H
  C157     1.0000 0.47339  0.51190  0.36330  Biso   1.000  C
  C158     1.0000 0.52661  0.48810  0.36330  Biso   1.000  C
  C159     1.0000 0.46279  0.54568  0.31399  Biso   1.000  C
  H217     1.0000 0.46929  0.53410  0.39511  Biso   1.000  H
  H218     1.0000 0.44671  0.48341  0.36520  Biso   1.000  H
  C160     1.0000 0.53721  0.45432  0.31399  Biso   1.000  C
  H219     1.0000 0.53071  0.46590  0.39511  Biso   1.000  H
  H220     1.0000 0.55329  0.51659  0.36520  Biso   1.000  H
  C161     1.0000 0.47221  0.51001  0.26669  Biso   1.000  C
  H221     1.0000 0.42609  0.55881  0.31399  Biso   1.000  H
  H222     1.0000 0.48699  0.57631  0.31301  Biso   1.000  H
  C162     1.0000 0.52779  0.48999  0.26669  Biso   1.000  C
  H223     1.0000 0.57391  0.44119  0.31399  Biso   1.000  H
  H224     1.0000 0.51301  0.42369  0.31301  Biso   1.000  H
  N25      1.0000 0.46799  0.53390  0.21462  Biso   1.000  N
  H225     1.0000 0.44762  0.47939  0.26878  Biso   1.000  H
  N26      1.0000 0.53201  0.46610  0.21462  Biso   1.000  N
  H226     1.0000 0.55238  0.52061  0.26878  Biso   1.000  H
  C163     1.0000 0.50000  0.50000  0.18009  Biso   1.000  C
  C164     1.0000 0.41348  0.53831  0.19708  Biso   1.000  C
  C165     1.0000 0.58652  0.46169  0.19708  Biso   1.000  C
  H227     1.0000 0.52302  0.52180  0.15731  Biso   1.000  H
  H228     1.0000 0.47698  0.47820  0.15731  Biso   1.000  H
  H229     1.0000 0.39212  0.55258  0.22641  Biso   1.000  H
  H230     1.0000 0.40012  0.50248  0.18920  Biso   1.000  H
  C166     1.0000 0.40508  0.57339  0.14789  Biso   1.000  C
  C167     1.0000 0.59492  0.42661  0.14789  Biso   1.000  C
  H231     1.0000 0.60788  0.44742  0.22641  Biso   1.000  H
  H232     1.0000 0.59988  0.49752  0.18920  Biso   1.000  H
  C168     1.0000 0.36279  0.56200  0.11490  Biso   1.000  C
  C169     1.0000 0.43800  0.61490  0.13721  Biso   1.000  C
  C170     1.0000 0.56200  0.38510  0.13721  Biso   1.000  C
  C171     1.0000 0.63721  0.43800  0.11490  Biso   1.000  C
  C172     1.0000 0.35211  0.59492  0.07339  Biso   1.000  C
  H233     1.0000 0.34158  0.53169  0.12101  Biso   1.000  H
  C173     1.0000 0.42661  0.64789  0.09492  Biso   1.000  C
  H234     1.0000 0.46831  0.62101  0.15842  Biso   1.000  H
  C174     1.0000 0.57339  0.35211  0.09492  Biso   1.000  C
  H235     1.0000 0.53169  0.37899  0.15842  Biso   1.000  H
  C175     1.0000 0.64789  0.40508  0.07339  Biso   1.000  C
  H236     1.0000 0.65842  0.46831  0.12101  Biso   1.000  H
  C176     1.0000 0.30292  0.58652  0.03831  Biso   1.000  C
  C177     1.0000 0.38510  0.63721  0.06200  Biso   1.000  C
  C178     1.0000 0.46169  0.69708  0.08652  Biso   1.000  C
  C179     1.0000 0.53831  0.30292  0.08652  Biso   1.000  C
  C180     1.0000 0.61490  0.36279  0.06200  Biso   1.000  C
  C181     1.0000 0.69708  0.41348  0.03831  Biso   1.000  C
  N27      1.0000 0.28538  0.53201  0.03390  Biso   1.000  N
  H237     1.0000 0.27359  0.60788  0.05258  Biso   1.000  H
  H238     1.0000 0.31080  0.59988  0.00248  Biso   1.000  H
  H239     1.0000 0.37899  0.65842  0.03169  Biso   1.000  H
  N28      1.0000 0.46610  0.71462  0.03201  Biso   1.000  N
  H240     1.0000 0.44742  0.72641  0.10788  Biso   1.000  H
  H241     1.0000 0.49752  0.68920  0.09988  Biso   1.000  H
  N29      1.0000 0.53390  0.28538  0.03201  Biso   1.000  N
  H242     1.0000 0.55258  0.27359  0.10788  Biso   1.000  H
  H243     1.0000 0.50248  0.31080  0.09988  Biso   1.000  H
  H244     1.0000 0.62101  0.34158  0.03169  Biso   1.000  H
  N30      1.0000 0.71462  0.46799  0.03390  Biso   1.000  N
  H245     1.0000 0.72641  0.39212  0.05258  Biso   1.000  H
  H246     1.0000 0.68920  0.40012  0.00248  Biso   1.000  H
  C182     1.0000 0.31991  0.50000  0.00000  Biso   1.000  C
  C183     1.0000 0.23331  0.52779  0.01001  Biso   1.000  C
  C184     1.0000 0.48999  0.76669  0.02779  Biso   1.000  C
  C185     1.0000 0.50000  0.68009  0.00000  Biso   1.000  C
  C186     1.0000 0.51001  0.23331  0.02779  Biso   1.000  C
  C187     1.0000 0.50000  0.31991  0.00000  Biso   1.000  C
  C188     1.0000 0.76669  0.47221  0.01001  Biso   1.000  C
  C189     1.0000 0.68009  0.50000  0.00000  Biso   1.000  C
  N31      1.0000 0.28538  0.46799  0.96610  Biso   1.000  N
  H247     1.0000 0.34269  0.47698  0.02180  Biso   1.000  H
  H248     1.0000 0.34269  0.52302  0.97820  Biso   1.000  H
  C190     1.0000 0.23331  0.47221  0.98999  Biso   1.000  C
  C191     1.0000 0.18601  0.53721  0.04568  Biso   1.000  C
  H249     1.0000 0.23122  0.55238  0.97939  Biso   1.000  H
  C192     1.0000 0.51001  0.76669  0.97221  Biso   1.000  C
  C193     1.0000 0.45432  0.81399  0.03721  Biso   1.000  C
  H250     1.0000 0.52061  0.76878  0.05238  Biso   1.000  H
  N32      1.0000 0.53390  0.71462  0.96799  Biso   1.000  N
  H251     1.0000 0.52180  0.65731  0.02302  Biso   1.000  H
  H252     1.0000 0.47820  0.65731  0.97698  Biso   1.000  H
  C194     1.0000 0.54568  0.18601  0.03721  Biso   1.000  C
  H253     1.0000 0.47939  0.23122  0.05238  Biso   1.000  H
  C195     1.0000 0.48999  0.23331  0.97221  Biso   1.000  C
  H254     1.0000 0.47820  0.34269  0.02302  Biso   1.000  H
  N33      1.0000 0.46610  0.28538  0.96799  Biso   1.000  N
  H255     1.0000 0.52180  0.34269  0.97698  Biso   1.000  H
  C196     1.0000 0.81399  0.46279  0.04568  Biso   1.000  C
  C197     1.0000 0.76669  0.52779  0.98999  Biso   1.000  C
  H256     1.0000 0.76878  0.44762  0.97939  Biso   1.000  H
  H257     1.0000 0.65731  0.52302  0.02180  Biso   1.000  H
  N34      1.0000 0.71462  0.53201  0.96610  Biso   1.000  N
  H258     1.0000 0.65731  0.47698  0.97820  Biso   1.000  H
  C198     1.0000 0.30292  0.41348  0.96169  Biso   1.000  C
  H259     1.0000 0.23122  0.44762  0.02061  Biso   1.000  H
  C199     1.0000 0.18601  0.46279  0.95432  Biso   1.000  C
  C200     1.0000 0.13670  0.52661  0.01190  Biso   1.000  C
  H260     1.0000 0.18601  0.57391  0.05881  Biso   1.000  H
  H261     1.0000 0.18699  0.51301  0.07631  Biso   1.000  H
  C201     1.0000 0.54568  0.81399  0.96279  Biso   1.000  C
  H262     1.0000 0.47939  0.76878  0.94762  Biso   1.000  H
  C202     1.0000 0.48810  0.86330  0.02661  Biso   1.000  C
  H263     1.0000 0.44119  0.81399  0.07391  Biso   1.000  H
  H264     1.0000 0.42369  0.81301  0.01301  Biso   1.000  H
  C203     1.0000 0.53831  0.69708  0.91348  Biso   1.000  C
  C204     1.0000 0.51190  0.13670  0.02661  Biso   1.000  C
  H265     1.0000 0.55881  0.18601  0.07391  Biso   1.000  H
  H266     1.0000 0.57631  0.18699  0.01301  Biso   1.000  H
  C205     1.0000 0.45432  0.18601  0.96279  Biso   1.000  C
  H267     1.0000 0.52061  0.23122  0.94762  Biso   1.000  H
  C206     1.0000 0.46169  0.30292  0.91348  Biso   1.000  C
  C207     1.0000 0.86330  0.47339  0.01190  Biso   1.000  C
  H268     1.0000 0.81399  0.42609  0.05881  Biso   1.000  H
  H269     1.0000 0.81301  0.48699  0.07631  Biso   1.000  H
  H270     1.0000 0.76878  0.55238  0.02061  Biso   1.000  H
  C208     1.0000 0.81399  0.53721  0.95432  Biso   1.000  C
  C209     1.0000 0.69708  0.58652  0.96169  Biso   1.000  C
  C210     1.0000 0.35211  0.40508  0.92661  Biso   1.000  C
  H271     1.0000 0.27359  0.39212  0.94742  Biso   1.000  H
  H272     1.0000 0.31080  0.40012  0.99752  Biso   1.000  H
  C211     1.0000 0.13670  0.47339  0.98810  Biso   1.000  C
  H273     1.0000 0.18601  0.42609  0.94119  Biso   1.000  H
  H274     1.0000 0.18699  0.48699  0.92369  Biso   1.000  H
  H275     1.0000 0.10489  0.53071  0.03410  Biso   1.000  H
  H276     1.0000 0.13480  0.55329  0.98341  Biso   1.000  H
  C212     1.0000 0.51190  0.86330  0.97339  Biso   1.000  C
  H277     1.0000 0.55881  0.81399  0.92609  Biso   1.000  H
  H278     1.0000 0.57631  0.81301  0.98699  Biso   1.000  H
  H279     1.0000 0.46590  0.89511  0.03071  Biso   1.000  H
  H280     1.0000 0.51659  0.86520  0.05329  Biso   1.000  H
  C213     1.0000 0.57339  0.64789  0.90508  Biso   1.000  C
  H281     1.0000 0.55258  0.72641  0.89212  Biso   1.000  H
  H282     1.0000 0.50248  0.68920  0.90012  Biso   1.000  H
  H283     1.0000 0.53410  0.10489  0.03071  Biso   1.000  H
  H284     1.0000 0.48341  0.13480  0.05329  Biso   1.000  H
  C214     1.0000 0.48810  0.13670  0.97339  Biso   1.000  C
  H285     1.0000 0.44119  0.18601  0.92609  Biso   1.000  H
  H286     1.0000 0.42369  0.18699  0.98699  Biso   1.000  H
  H287     1.0000 0.44742  0.27359  0.89212  Biso   1.000  H
  H288     1.0000 0.49752  0.31080  0.90012  Biso   1.000  H
  C215     1.0000 0.42661  0.35211  0.90508  Biso   1.000  C
  H289     1.0000 0.89511  0.46929  0.03410  Biso   1.000  H
  C216     1.0000 0.86330  0.52661  0.98810  Biso   1.000  C
  H290     1.0000 0.86520  0.44671  0.98341  Biso   1.000  H
  H291     1.0000 0.81399  0.57391  0.94119  Biso   1.000  H
  H292     1.0000 0.81301  0.51301  0.92369  Biso   1.000  H
  H293     1.0000 0.72641  0.60788  0.94742  Biso   1.000  H
  H294     1.0000 0.68920  0.59988  0.99752  Biso   1.000  H
  C217     1.0000 0.64789  0.59492  0.92661  Biso   1.000  C
  C218     1.0000 0.38510  0.36279  0.93800  Biso   1.000  C
  C219     1.0000 0.36279  0.43800  0.88510  Biso   1.000  C
  H295     1.0000 0.13480  0.44671  0.01659  Biso   1.000  H
  H296     1.0000 0.10489  0.46929  0.96590  Biso   1.000  H
  H297     1.0000 0.53410  0.89511  0.96929  Biso   1.000  H
  H298     1.0000 0.48341  0.86520  0.94671  Biso   1.000  H
  C220     1.0000 0.61490  0.63721  0.93800  Biso   1.000  C
  C221     1.0000 0.56200  0.61490  0.86279  Biso   1.000  C
  H299     1.0000 0.46590  0.10489  0.96929  Biso   1.000  H
  H300     1.0000 0.51659  0.13480  0.94671  Biso   1.000  H
  C222     1.0000 0.43800  0.38510  0.86279  Biso   1.000  C
  H301     1.0000 0.86520  0.55329  0.01659  Biso   1.000  H
  H302     1.0000 0.89511  0.53071  0.96590  Biso   1.000  H
  C223     1.0000 0.63721  0.56200  0.88510  Biso   1.000  C
  H303     1.0000 0.37899  0.34158  0.96831  Biso   1.000  H
  C224     1.0000 0.40508  0.42661  0.85211  Biso   1.000  C
  H304     1.0000 0.34158  0.46831  0.87899  Biso   1.000  H
  H305     1.0000 0.62101  0.65842  0.96831  Biso   1.000  H
  C225     1.0000 0.59492  0.57339  0.85211  Biso   1.000  C
  H306     1.0000 0.53169  0.62101  0.84158  Biso   1.000  H
  H307     1.0000 0.46831  0.37899  0.84158  Biso   1.000  H
  H308     1.0000 0.65842  0.53169  0.87899  Biso   1.000  H
  C226     1.0000 0.41348  0.46169  0.80292  Biso   1.000  C
  C227     1.0000 0.58652  0.53831  0.80292  Biso   1.000  C
  N35      1.0000 0.46799  0.46610  0.78538  Biso   1.000  N
  H309     1.0000 0.39212  0.44742  0.77359  Biso   1.000  H
  H310     1.0000 0.40012  0.49752  0.81080  Biso   1.000  H
  N36      1.0000 0.53201  0.53390  0.78538  Biso   1.000  N
  H311     1.0000 0.60788  0.55258  0.77359  Biso   1.000  H
  H312     1.0000 0.59988  0.50248  0.81080  Biso   1.000  H
  C228     1.0000 0.47221  0.48999  0.73331  Biso   1.000  C
  C229     1.0000 0.50000  0.50000  0.81991  Biso   1.000  C
  C230     1.0000 0.52779  0.51001  0.73331  Biso   1.000  C
  C231     1.0000 0.46279  0.45432  0.68601  Biso   1.000  C
  H313     1.0000 0.44762  0.52061  0.73122  Biso   1.000  H
  H314     1.0000 0.52302  0.47820  0.84269  Biso   1.000  H
  H315     1.0000 0.47698  0.52180  0.84269  Biso   1.000  H
  C232     1.0000 0.53721  0.54568  0.68601  Biso   1.000  C
  H316     1.0000 0.55238  0.47939  0.73122  Biso   1.000  H
  C233     1.0000 0.47339  0.48810  0.63670  Biso   1.000  C
  H317     1.0000 0.42609  0.44119  0.68601  Biso   1.000  H
  H318     1.0000 0.48699  0.42369  0.68699  Biso   1.000  H
  C234     1.0000 0.52661  0.51190  0.63670  Biso   1.000  C
  H319     1.0000 0.57391  0.55881  0.68601  Biso   1.000  H
  H320     1.0000 0.51301  0.57631  0.68699  Biso   1.000  H
  H321     1.0000 0.46929  0.46590  0.60489  Biso   1.000  H
  H322     1.0000 0.44671  0.51659  0.63480  Biso   1.000  H
  H323     1.0000 0.53071  0.53410  0.60489  Biso   1.000  H
  H324     1.0000 0.55329  0.48341  0.63480  Biso   1.000  H
  C235     1.0000 0.36330  0.47339  0.51190  Biso   1.000  C
  C236     1.0000 0.31399  0.46279  0.54568  Biso   1.000  C
  C237     1.0000 0.36330  0.52661  0.48810  Biso   1.000  C
  H325     1.0000 0.39511  0.46929  0.53410  Biso   1.000  H
  H326     1.0000 0.36520  0.44671  0.48341  Biso   1.000  H
  C238     1.0000 0.26669  0.47221  0.51001  Biso   1.000  C
  H327     1.0000 0.31399  0.42609  0.55881  Biso   1.000  H
  H328     1.0000 0.31301  0.48699  0.57631  Biso   1.000  H
  C239     1.0000 0.31399  0.53721  0.45432  Biso   1.000  C
  H329     1.0000 0.39511  0.53071  0.46590  Biso   1.000  H
  H330     1.0000 0.36520  0.55329  0.51659  Biso   1.000  H
  N37      1.0000 0.21462  0.46799  0.53390  Biso   1.000  N
  C240     1.0000 0.26669  0.52779  0.48999  Biso   1.000  C
  H331     1.0000 0.26878  0.44762  0.47939  Biso   1.000  H
  H332     1.0000 0.31399  0.57391  0.44119  Biso   1.000  H
  H333     1.0000 0.31301  0.51301  0.42369  Biso   1.000  H
  C241     1.0000 0.19708  0.41348  0.53831  Biso   1.000  C
  C242     1.0000 0.18009  0.50000  0.50000  Biso   1.000  C
  N38      1.0000 0.21462  0.53201  0.46610  Biso   1.000  N
  H334     1.0000 0.26878  0.55238  0.52061  Biso   1.000  H
  H335     1.0000 0.22641  0.39212  0.55258  Biso   1.000  H
  H336     1.0000 0.18920  0.40012  0.50248  Biso   1.000  H
  C243     1.0000 0.14789  0.40508  0.57339  Biso   1.000  C
  H337     1.0000 0.15731  0.52302  0.52180  Biso   1.000  H
  H338     1.0000 0.15731  0.47698  0.47820  Biso   1.000  H
  C244     1.0000 0.19708  0.58652  0.46169  Biso   1.000  C
  C245     1.0000 0.11490  0.36279  0.56200  Biso   1.000  C
  C246     1.0000 0.13721  0.43800  0.61490  Biso   1.000  C
  H339     1.0000 0.22641  0.60788  0.44742  Biso   1.000  H
  H340     1.0000 0.18920  0.59988  0.49752  Biso   1.000  H
  C247     1.0000 0.14789  0.59492  0.42661  Biso   1.000  C
  C248     1.0000 0.07339  0.35211  0.59492  Biso   1.000  C
  H341     1.0000 0.12101  0.34158  0.53169  Biso   1.000  H
  C249     1.0000 0.09492  0.42661  0.64789  Biso   1.000  C
  H342     1.0000 0.15842  0.46831  0.62101  Biso   1.000  H
  C250     1.0000 0.11490  0.63721  0.43800  Biso   1.000  C
  C251     1.0000 0.13721  0.56200  0.38510  Biso   1.000  C
  C252     1.0000 0.03831  0.30292  0.58652  Biso   1.000  C
  C253     1.0000 0.06200  0.38510  0.63721  Biso   1.000  C
  C254     1.0000 0.08652  0.46169  0.69708  Biso   1.000  C
  C255     1.0000 0.07339  0.64789  0.40508  Biso   1.000  C
  H343     1.0000 0.12101  0.65842  0.46831  Biso   1.000  H
  C256     1.0000 0.09492  0.57339  0.35211  Biso   1.000  C
  H344     1.0000 0.15842  0.53169  0.37899  Biso   1.000  H
  N39      1.0000 0.03390  0.28538  0.53201  Biso   1.000  N
  H345     1.0000 0.05258  0.27359  0.60788  Biso   1.000  H
  H346     1.0000 0.00248  0.31080  0.59988  Biso   1.000  H
  H347     1.0000 0.03169  0.37899  0.65842  Biso   1.000  H
  N40      1.0000 0.03201  0.46610  0.71462  Biso   1.000  N
  H348     1.0000 0.10788  0.44742  0.72641  Biso   1.000  H
  H349     1.0000 0.09988  0.49752  0.68920  Biso   1.000  H
  C257     1.0000 0.03831  0.69708  0.41348  Biso   1.000  C
  C258     1.0000 0.06200  0.61490  0.36279  Biso   1.000  C
  C259     1.0000 0.08652  0.53831  0.30292  Biso   1.000  C
  C260     1.0000 0.01001  0.23331  0.52779  Biso   1.000  C
  C261     1.0000 0.00000  0.31991  0.50000  Biso   1.000  C
  C262     1.0000 0.02779  0.48999  0.76669  Biso   1.000  C
  C263     1.0000 0.00000  0.50000  0.68009  Biso   1.000  C
  N41      1.0000 0.03390  0.71462  0.46799  Biso   1.000  N
  H350     1.0000 0.05258  0.72641  0.39212  Biso   1.000  H
  H351     1.0000 0.00248  0.68920  0.40012  Biso   1.000  H
  H352     1.0000 0.03169  0.62101  0.34158  Biso   1.000  H
  N42      1.0000 0.03201  0.53390  0.28538  Biso   1.000  N
  H353     1.0000 0.10788  0.55258  0.27359  Biso   1.000  H
  H354     1.0000 0.09988  0.50248  0.31080  Biso   1.000  H
  C264     1.0000 0.04568  0.18601  0.53721  Biso   1.000  C
  C265     1.0000 0.98999  0.23331  0.47221  Biso   1.000  C
  H355     1.0000 0.97939  0.23122  0.55238  Biso   1.000  H
  H356     1.0000 0.02180  0.34269  0.47698  Biso   1.000  H
  N43      1.0000 0.96610  0.28538  0.46799  Biso   1.000  N
  H357     1.0000 0.97820  0.34269  0.52302  Biso   1.000  H
  C266     1.0000 0.03721  0.45432  0.81399  Biso   1.000  C
  H358     1.0000 0.05238  0.52061  0.76878  Biso   1.000  H
  C267     1.0000 0.97221  0.51001  0.76669  Biso   1.000  C
  H359     1.0000 0.02302  0.52180  0.65731  Biso   1.000  H
  N44      1.0000 0.96799  0.53390  0.71462  Biso   1.000  N
  H360     1.0000 0.97698  0.47820  0.65731  Biso   1.000  H
  C268     1.0000 0.01001  0.76669  0.47221  Biso   1.000  C
  C269     1.0000 0.00000  0.68009  0.50000  Biso   1.000  C
  C270     1.0000 0.02779  0.51001  0.23331  Biso   1.000  C
  C271     1.0000 0.00000  0.50000  0.31991  Biso   1.000  C
  C272     1.0000 0.01190  0.13670  0.52661  Biso   1.000  C
  H361     1.0000 0.05881  0.18601  0.57391  Biso   1.000  H
  H362     1.0000 0.07631  0.18699  0.51301  Biso   1.000  H
  H363     1.0000 0.02061  0.23122  0.44762  Biso   1.000  H
  C273     1.0000 0.95432  0.18601  0.46279  Biso   1.000  C
  C274     1.0000 0.96169  0.30292  0.41348  Biso   1.000  C
  C275     1.0000 0.02661  0.48810  0.86330  Biso   1.000  C
  H364     1.0000 0.07391  0.44119  0.81399  Biso   1.000  H
  H365     1.0000 0.01301  0.42369  0.81301  Biso   1.000  H
  C276     1.0000 0.96279  0.54568  0.81399  Biso   1.000  C
  H366     1.0000 0.94762  0.47939  0.76878  Biso   1.000  H
  C277     1.0000 0.91348  0.53831  0.69708  Biso   1.000  C
  C278     1.0000 0.04568  0.81399  0.46279  Biso   1.000  C
  C279     1.0000 0.98999  0.76669  0.52779  Biso   1.000  C
  H367     1.0000 0.97939  0.76878  0.44762  Biso   1.000  H
  H368     1.0000 0.02180  0.65731  0.52302  Biso   1.000  H
  N45      1.0000 0.96610  0.71462  0.53201  Biso   1.000  N
  H369     1.0000 0.97820  0.65731  0.47698  Biso   1.000  H
  C280     1.0000 0.03721  0.54568  0.18601  Biso   1.000  C
  H370     1.0000 0.05238  0.47939  0.23122  Biso   1.000  H
  C281     1.0000 0.97221  0.48999  0.23331  Biso   1.000  C
  H371     1.0000 0.02302  0.47820  0.34269  Biso   1.000  H
  N46      1.0000 0.96799  0.46610  0.28538  Biso   1.000  N
  H372     1.0000 0.97698  0.52180  0.34269  Biso   1.000  H
  H373     1.0000 0.03410  0.10489  0.53071  Biso   1.000  H
  C282     1.0000 0.98810  0.13670  0.47339  Biso   1.000  C
  H374     1.0000 0.98341  0.13480  0.55329  Biso   1.000  H
  H375     1.0000 0.94119  0.18601  0.42609  Biso   1.000  H
  H376     1.0000 0.92369  0.18699  0.48699  Biso   1.000  H
  H377     1.0000 0.94742  0.27359  0.39212  Biso   1.000  H
  H378     1.0000 0.99752  0.31080  0.40012  Biso   1.000  H
  C283     1.0000 0.92661  0.35211  0.40508  Biso   1.000  C
  H379     1.0000 0.03071  0.46590  0.89511  Biso   1.000  H
  H380     1.0000 0.05329  0.51659  0.86520  Biso   1.000  H
  C284     1.0000 0.97339  0.51190  0.86330  Biso   1.000  C
  H381     1.0000 0.92609  0.55881  0.81399  Biso   1.000  H
  H382     1.0000 0.98699  0.57631  0.81301  Biso   1.000  H
  H383     1.0000 0.89212  0.55258  0.72641  Biso   1.000  H
  H384     1.0000 0.90012  0.50248  0.68920  Biso   1.000  H
  C285     1.0000 0.90508  0.57339  0.64789  Biso   1.000  C
  C286     1.0000 0.01190  0.86330  0.47339  Biso   1.000  C
  H385     1.0000 0.05881  0.81399  0.42609  Biso   1.000  H
  H386     1.0000 0.07631  0.81301  0.48699  Biso   1.000  H
  H387     1.0000 0.02061  0.76878  0.55238  Biso   1.000  H
  C287     1.0000 0.95432  0.81399  0.53721  Biso   1.000  C
  C288     1.0000 0.96169  0.69708  0.58652  Biso   1.000  C
  C289     1.0000 0.02661  0.51190  0.13670  Biso   1.000  C
  H388     1.0000 0.07391  0.55881  0.18601  Biso   1.000  H
  H389     1.0000 0.01301  0.57631  0.18699  Biso   1.000  H
  C290     1.0000 0.96279  0.45432  0.18601  Biso   1.000  C
  H390     1.0000 0.94762  0.52061  0.23122  Biso   1.000  H
  C291     1.0000 0.91348  0.46169  0.30292  Biso   1.000  C
  H391     1.0000 0.01659  0.13480  0.44671  Biso   1.000  H
  H392     1.0000 0.96590  0.10489  0.46929  Biso   1.000  H
  C292     1.0000 0.88510  0.36279  0.43800  Biso   1.000  C
  C293     1.0000 0.93800  0.38510  0.36279  Biso   1.000  C
  H393     1.0000 0.96929  0.53410  0.89511  Biso   1.000  H
  H394     1.0000 0.94671  0.48341  0.86520  Biso   1.000  H
  C294     1.0000 0.86279  0.56200  0.61490  Biso   1.000  C
  C295     1.0000 0.93800  0.61490  0.63721  Biso   1.000  C
  H395     1.0000 0.03410  0.89511  0.46929  Biso   1.000  H
  C296     1.0000 0.98810  0.86330  0.52661  Biso   1.000  C
  H396     1.0000 0.98341  0.86520  0.44671  Biso   1.000  H
  H397     1.0000 0.94119  0.81399  0.57391  Biso   1.000  H
  H398     1.0000 0.92369  0.81301  0.51301  Biso   1.000  H
  C297     1.0000 0.92661  0.64789  0.59492  Biso   1.000  C
  H399     1.0000 0.94742  0.72641  0.60788  Biso   1.000  H
  H400     1.0000 0.99752  0.68920  0.59988  Biso   1.000  H
  H401     1.0000 0.03071  0.53410  0.10489  Biso   1.000  H
  H402     1.0000 0.05329  0.48341  0.13480  Biso   1.000  H
  C298     1.0000 0.97339  0.48810  0.13670  Biso   1.000  C
  H403     1.0000 0.92609  0.44119  0.18601  Biso   1.000  H
  H404     1.0000 0.98699  0.42369  0.18699  Biso   1.000  H
  C299     1.0000 0.90508  0.42661  0.35211  Biso   1.000  C
  H405     1.0000 0.89212  0.44742  0.27359  Biso   1.000  H
  H406     1.0000 0.90012  0.49752  0.31080  Biso   1.000  H
  C300     1.0000 0.85211  0.40508  0.42661  Biso   1.000  C
  H407     1.0000 0.87899  0.34158  0.46831  Biso   1.000  H
  H408     1.0000 0.96831  0.37899  0.34158  Biso   1.000  H
  C301     1.0000 0.85211  0.59492  0.57339  Biso   1.000  C
  H409     1.0000 0.84158  0.53169  0.62101  Biso   1.000  H
  H410     1.0000 0.96831  0.62101  0.65842  Biso   1.000  H
  H411     1.0000 0.01659  0.86520  0.55329  Biso   1.000  H
  H412     1.0000 0.96590  0.89511  0.53071  Biso   1.000  H
  C302     1.0000 0.88510  0.63721  0.56200  Biso   1.000  C
  H413     1.0000 0.96929  0.46590  0.10489  Biso   1.000  H
  H414     1.0000 0.94671  0.51659  0.13480  Biso   1.000  H
  C303     1.0000 0.86279  0.43800  0.38510  Biso   1.000  C
  C304     1.0000 0.80292  0.41348  0.46169  Biso   1.000  C
  C305     1.0000 0.80292  0.58652  0.53831  Biso   1.000  C
  H415     1.0000 0.87899  0.65842  0.53169  Biso   1.000  H
  H416     1.0000 0.84158  0.46831  0.37899  Biso   1.000  H
  N47      1.0000 0.78538  0.46799  0.46610  Biso   1.000  N
  H417     1.0000 0.77359  0.39212  0.44742  Biso   1.000  H
  H418     1.0000 0.81080  0.40012  0.49752  Biso   1.000  H
  N48      1.0000 0.78538  0.53201  0.53390  Biso   1.000  N
  H419     1.0000 0.77359  0.60788  0.55258  Biso   1.000  H
  H420     1.0000 0.81080  0.59988  0.50248  Biso   1.000  H
  C306     1.0000 0.73331  0.47221  0.48999  Biso   1.000  C
  C307     1.0000 0.81991  0.50000  0.50000  Biso   1.000  C
  C308     1.0000 0.73331  0.52779  0.51001  Biso   1.000  C
  C309     1.0000 0.68601  0.46279  0.45432  Biso   1.000  C
  H421     1.0000 0.73122  0.44762  0.52061  Biso   1.000  H
  H422     1.0000 0.84269  0.47698  0.52180  Biso   1.000  H
  H423     1.0000 0.84269  0.52302  0.47820  Biso   1.000  H
  C310     1.0000 0.68601  0.53721  0.54568  Biso   1.000  C
  H424     1.0000 0.73122  0.55238  0.47939  Biso   1.000  H
  C311     1.0000 0.63670  0.47339  0.48810  Biso   1.000  C
  H425     1.0000 0.68601  0.42609  0.44119  Biso   1.000  H
  H426     1.0000 0.68699  0.48699  0.42369  Biso   1.000  H
  C312     1.0000 0.63670  0.52661  0.51190  Biso   1.000  C
  H427     1.0000 0.68601  0.57391  0.55881  Biso   1.000  H
  H428     1.0000 0.68699  0.51301  0.57631  Biso   1.000  H
  H429     1.0000 0.60489  0.46929  0.46590  Biso   1.000  H
  H430     1.0000 0.63480  0.44671  0.51659  Biso   1.000  H
  H431     1.0000 0.60489  0.53071  0.53410  Biso   1.000  H
  H432     1.0000 0.63480  0.55329  0.48341  Biso   1.000  H
  C313     1.0000 0.66350  0.55290  0.28829  Biso   1.000  C
  N49      1.0000 0.71801  0.53540  0.28392  Biso   1.000  N
  H433     1.0000 0.64210  0.52361  0.30260  Biso   1.000  H
  H434     1.0000 0.65010  0.56078  0.25250  Biso   1.000  H
  C314     1.0000 0.65510  0.60209  0.32341  Biso   1.000  C
  C315     1.0000 0.72219  0.48329  0.25999  Biso   1.000  C
  C316     1.0000 0.74998  0.56989  0.25002  Biso   1.000  C
  C317     1.0000 0.68802  0.61281  0.36492  Biso   1.000  C
  C318     1.0000 0.61281  0.63508  0.31198  Biso   1.000  C
  C319     1.0000 0.71281  0.43599  0.29570  Biso   1.000  C
  C320     1.0000 0.77781  0.48329  0.24001  Biso   1.000  C
  H435     1.0000 0.69760  0.48120  0.22940  Biso   1.000  H
  N50      1.0000 0.78199  0.53540  0.21608  Biso   1.000  N
  H436     1.0000 0.77300  0.59271  0.27182  Biso   1.000  H
  H437     1.0000 0.72700  0.59271  0.22818  Biso   1.000  H
  C321     1.0000 0.67659  0.65510  0.39791  Biso   1.000  C
  H438     1.0000 0.71829  0.59160  0.37099  Biso   1.000  H
  C322     1.0000 0.60209  0.67659  0.34490  Biso   1.000  C
  H439     1.0000 0.59160  0.62901  0.28171  Biso   1.000  H
  C323     1.0000 0.72341  0.38672  0.26188  Biso   1.000  C
  H440     1.0000 0.67611  0.43599  0.30879  Biso   1.000  H
  H441     1.0000 0.73701  0.43701  0.32629  Biso   1.000  H
  C324     1.0000 0.78719  0.43599  0.20430  Biso   1.000  C
  H442     1.0000 0.80240  0.48120  0.27060  Biso   1.000  H
  C325     1.0000 0.83650  0.55290  0.21171  Biso   1.000  C
  C326     1.0000 0.71171  0.66350  0.44710  Biso   1.000  C
  C327     1.0000 0.63508  0.68802  0.38719  Biso   1.000  C
  C328     1.0000 0.55290  0.71171  0.33650  Biso   1.000  C
  C329     1.0000 0.77659  0.38672  0.23812  Biso   1.000  C
  H443     1.0000 0.71931  0.35491  0.28412  Biso   1.000  H
  H444     1.0000 0.69669  0.38479  0.23339  Biso   1.000  H
  H445     1.0000 0.82389  0.43599  0.19121  Biso   1.000  H
  H446     1.0000 0.76299  0.43701  0.17371  Biso   1.000  H
  H447     1.0000 0.85790  0.52361  0.19740  Biso   1.000  H
  H448     1.0000 0.84990  0.56078  0.24750  Biso   1.000  H
  C330     1.0000 0.84490  0.60209  0.17659  Biso   1.000  C
  N51      1.0000 0.71608  0.71801  0.46460  Biso   1.000  N
  H449     1.0000 0.69740  0.64210  0.47639  Biso   1.000  H
  H450     1.0000 0.74750  0.65010  0.43922  Biso   1.000  H
  H451     1.0000 0.62901  0.71829  0.40840  Biso   1.000  H
  N52      1.0000 0.53540  0.71608  0.28199  Biso   1.000  N
  H452     1.0000 0.52361  0.69740  0.35790  Biso   1.000  H
  H453     1.0000 0.56078  0.74750  0.34990  Biso   1.000  H
  H454     1.0000 0.78069  0.35491  0.21588  Biso   1.000  H
  H455     1.0000 0.80331  0.38479  0.26661  Biso   1.000  H
  C331     1.0000 0.81198  0.61281  0.13508  Biso   1.000  C
  C332     1.0000 0.88719  0.63508  0.18802  Biso   1.000  C
  C333     1.0000 0.74001  0.72219  0.51671  Biso   1.000  C
  C334     1.0000 0.74998  0.74998  0.43011  Biso   1.000  C
  C335     1.0000 0.48329  0.74001  0.27781  Biso   1.000  C
  C336     1.0000 0.56989  0.74998  0.25002  Biso   1.000  C
  C337     1.0000 0.82341  0.65510  0.10209  Biso   1.000  C
  H456     1.0000 0.78171  0.59160  0.12901  Biso   1.000  H
  C338     1.0000 0.89791  0.67659  0.15510  Biso   1.000  C
  H457     1.0000 0.90840  0.62901  0.21829  Biso   1.000  H
  C339     1.0000 0.70430  0.71281  0.56401  Biso   1.000  C
  C340     1.0000 0.75999  0.77781  0.51671  Biso   1.000  C
  H458     1.0000 0.77060  0.69760  0.51880  Biso   1.000  H
  N53      1.0000 0.78392  0.78199  0.46460  Biso   1.000  N
  H459     1.0000 0.72818  0.77300  0.40729  Biso   1.000  H
  H460     1.0000 0.77182  0.72700  0.40729  Biso   1.000  H
  C341     1.0000 0.43599  0.70430  0.28719  Biso   1.000  C
  C342     1.0000 0.48329  0.75999  0.22219  Biso   1.000  C
  H461     1.0000 0.48120  0.77060  0.30240  Biso   1.000  H
  N54      1.0000 0.53540  0.78392  0.21801  Biso   1.000  N
  H462     1.0000 0.59271  0.77182  0.27300  Biso   1.000  H
  H463     1.0000 0.59271  0.72818  0.22700  Biso   1.000  H
  C343     1.0000 0.78829  0.66350  0.05290  Biso   1.000  C
  C344     1.0000 0.86492  0.68802  0.11281  Biso   1.000  C
  C345     1.0000 0.94710  0.71171  0.16350  Biso   1.000  C
  C346     1.0000 0.73812  0.72341  0.61328  Biso   1.000  C
  H464     1.0000 0.69121  0.67611  0.56401  Biso   1.000  H
  H465     1.0000 0.67371  0.73701  0.56299  Biso   1.000  H
  C347     1.0000 0.79570  0.78719  0.56401  Biso   1.000  C
  H466     1.0000 0.72940  0.80240  0.51880  Biso   1.000  H
  C348     1.0000 0.78829  0.83650  0.44710  Biso   1.000  C
  C349     1.0000 0.38672  0.73812  0.27659  Biso   1.000  C
  H467     1.0000 0.43599  0.69121  0.32389  Biso   1.000  H
  H468     1.0000 0.43701  0.67371  0.26299  Biso   1.000  H
  C350     1.0000 0.43599  0.79570  0.21281  Biso   1.000  C
  H469     1.0000 0.48120  0.72940  0.19760  Biso   1.000  H
  C351     1.0000 0.55290  0.78829  0.16350  Biso   1.000  C
  N55      1.0000 0.78392  0.71801  0.03540  Biso   1.000  N
  H470     1.0000 0.80260  0.64210  0.02361  Biso   1.000  H
  H471     1.0000 0.75250  0.65010  0.06078  Biso   1.000  H
  H472     1.0000 0.87099  0.71829  0.09160  Biso   1.000  H
  N56      1.0000 0.96460  0.71608  0.21801  Biso   1.000  N
  H473     1.0000 0.97639  0.69740  0.14210  Biso   1.000  H
  H474     1.0000 0.93922  0.74750  0.15010  Biso   1.000  H
  C352     1.0000 0.76188  0.77659  0.61328  Biso   1.000  C
  H475     1.0000 0.71588  0.71931  0.64509  Biso   1.000  H
  H476     1.0000 0.76661  0.69669  0.61521  Biso   1.000  H
  H477     1.0000 0.80879  0.82389  0.56401  Biso   1.000  H
  H478     1.0000 0.82629  0.76299  0.56299  Biso   1.000  H
  H479     1.0000 0.80260  0.85790  0.47639  Biso   1.000  H
  H480     1.0000 0.75250  0.84990  0.43922  Biso   1.000  H
  C353     1.0000 0.82341  0.84490  0.39791  Biso   1.000  C
  C354     1.0000 0.38672  0.76188  0.22341  Biso   1.000  C
  H481     1.0000 0.35491  0.71588  0.28069  Biso   1.000  H
  H482     1.0000 0.38479  0.76661  0.30331  Biso   1.000  H
  H483     1.0000 0.43599  0.80879  0.17611  Biso   1.000  H
  H484     1.0000 0.43701  0.82629  0.23701  Biso   1.000  H
  H485     1.0000 0.52361  0.80260  0.14210  Biso   1.000  H
  H486     1.0000 0.56078  0.75250  0.15010  Biso   1.000  H
  C355     1.0000 0.60209  0.82341  0.15510  Biso   1.000  C
  C356     1.0000 0.74998  0.74998  0.06989  Biso   1.000  C
  C357     1.0000 0.75999  0.72219  0.98329  Biso   1.000  C
  C358     1.0000 0.93011  0.74998  0.25002  Biso   1.000  C
  C359     1.0000 0.01671  0.74001  0.22219  Biso   1.000  C
  H487     1.0000 0.78412  0.78069  0.64509  Biso   1.000  H
  H488     1.0000 0.73339  0.80331  0.61521  Biso   1.000  H
  C360     1.0000 0.81198  0.88719  0.36492  Biso   1.000  C
  C361     1.0000 0.86492  0.81198  0.38719  Biso   1.000  C
  H489     1.0000 0.35491  0.78412  0.21931  Biso   1.000  H
  H490     1.0000 0.38479  0.73339  0.19669  Biso   1.000  H
  C362     1.0000 0.61281  0.86492  0.18802  Biso   1.000  C
  C363     1.0000 0.63508  0.81198  0.11281  Biso   1.000  C
  N57      1.0000 0.71608  0.78199  0.03540  Biso   1.000  N
  H491     1.0000 0.77182  0.77300  0.09271  Biso   1.000  H
  H492     1.0000 0.72818  0.72700  0.09271  Biso   1.000  H
  C364     1.0000 0.79570  0.71281  0.93599  Biso   1.000  C
  C365     1.0000 0.74001  0.77781  0.98329  Biso   1.000  C
  H493     1.0000 0.72940  0.69760  0.98120  Biso   1.000  H
  N58      1.0000 0.96460  0.78392  0.28199  Biso   1.000  N
  H494     1.0000 0.90729  0.77182  0.22700  Biso   1.000  H
  H495     1.0000 0.90729  0.72818  0.27300  Biso   1.000  H
  C366     1.0000 0.06401  0.70430  0.21281  Biso   1.000  C
  C367     1.0000 0.01671  0.75999  0.27781  Biso   1.000  C
  H496     1.0000 0.01880  0.77060  0.19760  Biso   1.000  H
  C368     1.0000 0.84490  0.89791  0.32341  Biso   1.000  C
  H497     1.0000 0.78171  0.90840  0.37099  Biso   1.000  H
  C369     1.0000 0.89791  0.82341  0.34490  Biso   1.000  C
  H498     1.0000 0.87099  0.78171  0.40840  Biso   1.000  H
  C370     1.0000 0.65510  0.89791  0.17659  Biso   1.000  C
  H499     1.0000 0.59160  0.87099  0.21829  Biso   1.000  H
  C371     1.0000 0.67659  0.84490  0.10209  Biso   1.000  C
  H500     1.0000 0.62901  0.78171  0.09160  Biso   1.000  H
  C372     1.0000 0.71171  0.83650  0.05290  Biso   1.000  C
  C373     1.0000 0.76188  0.72341  0.88672  Biso   1.000  C
  H501     1.0000 0.80879  0.67611  0.93599  Biso   1.000  H
  H502     1.0000 0.82629  0.73701  0.93701  Biso   1.000  H
  C374     1.0000 0.70430  0.78719  0.93599  Biso   1.000  C
  H503     1.0000 0.77060  0.80240  0.98120  Biso   1.000  H
  C375     1.0000 0.94710  0.78829  0.33650  Biso   1.000  C
  C376     1.0000 0.11328  0.73812  0.22341  Biso   1.000  C
  H504     1.0000 0.06401  0.69121  0.17611  Biso   1.000  H
  H505     1.0000 0.06299  0.67371  0.23701  Biso   1.000  H
  C377     1.0000 0.06401  0.79570  0.28719  Biso   1.000  C
  H506     1.0000 0.01880  0.72940  0.30240  Biso   1.000  H
  C378     1.0000 0.88719  0.86492  0.31198  Biso   1.000  C
  C379     1.0000 0.83650  0.94710  0.28829  Biso   1.000  C
  C380     1.0000 0.68802  0.88719  0.13508  Biso   1.000  C
  C381     1.0000 0.66350  0.94710  0.21171  Biso   1.000  C
  H507     1.0000 0.69740  0.85790  0.02361  Biso   1.000  H
  H508     1.0000 0.74750  0.84990  0.06078  Biso   1.000  H
  C382     1.0000 0.73812  0.77659  0.88672  Biso   1.000  C
  H509     1.0000 0.78412  0.71931  0.85491  Biso   1.000  H
  H510     1.0000 0.73339  0.69669  0.88479  Biso   1.000  H
  H511     1.0000 0.69121  0.82389  0.93599  Biso   1.000  H
  H512     1.0000 0.67371  0.76299  0.93701  Biso   1.000  H
  H513     1.0000 0.97639  0.80260  0.35790  Biso   1.000  H
  H514     1.0000 0.93922  0.75250  0.34990  Biso   1.000  H
  C383     1.0000 0.11328  0.76188  0.27659  Biso   1.000  C
  H515     1.0000 0.14509  0.71588  0.21931  Biso   1.000  H
  H516     1.0000 0.11521  0.76661  0.19669  Biso   1.000  H
  H517     1.0000 0.06401  0.80879  0.32389  Biso   1.000  H
  H518     1.0000 0.06299  0.82629  0.26299  Biso   1.000  H
  H519     1.0000 0.90840  0.87099  0.28171  Biso   1.000  H
  N59      1.0000 0.78199  0.96460  0.28392  Biso   1.000  N
  H520     1.0000 0.85790  0.97639  0.30260  Biso   1.000  H
  H521     1.0000 0.84990  0.93922  0.25250  Biso   1.000  H
  H522     1.0000 0.71829  0.90840  0.12901  Biso   1.000  H
  N60      1.0000 0.71801  0.96460  0.21608  Biso   1.000  N
  H523     1.0000 0.64210  0.97639  0.19740  Biso   1.000  H
  H524     1.0000 0.65010  0.93922  0.24750  Biso   1.000  H
  H525     1.0000 0.71588  0.78069  0.85491  Biso   1.000  H
  H526     1.0000 0.76661  0.80331  0.88479  Biso   1.000  H
  H527     1.0000 0.14509  0.78412  0.28069  Biso   1.000  H
  H528     1.0000 0.11521  0.73339  0.30331  Biso   1.000  H
  C384     1.0000 0.74998  0.93011  0.25002  Biso   1.000  C
  C385     1.0000 0.77781  0.01671  0.25999  Biso   1.000  C
  C386     1.0000 0.72219  0.01671  0.24001  Biso   1.000  C
  H529     1.0000 0.77300  0.90729  0.22818  Biso   1.000  H
  H530     1.0000 0.72700  0.90729  0.27182  Biso   1.000  H
  C387     1.0000 0.78719  0.06401  0.29570  Biso   1.000  C
  H531     1.0000 0.80240  0.01880  0.22940  Biso   1.000  H
  C388     1.0000 0.71281  0.06401  0.20430  Biso   1.000  C
  H532     1.0000 0.69760  0.01880  0.27060  Biso   1.000  H
  C389     1.0000 0.77659  0.11328  0.26188  Biso   1.000  C
  H533     1.0000 0.82389  0.06401  0.30879  Biso   1.000  H
  H534     1.0000 0.76299  0.06299  0.32629  Biso   1.000  H
  C390     1.0000 0.72341  0.11328  0.23812  Biso   1.000  C
  H535     1.0000 0.67611  0.06401  0.19121  Biso   1.000  H
  H536     1.0000 0.73701  0.06299  0.17371  Biso   1.000  H
  H537     1.0000 0.78069  0.14509  0.28412  Biso   1.000  H
  H538     1.0000 0.80331  0.11521  0.23339  Biso   1.000  H
  H539     1.0000 0.71931  0.14509  0.21588  Biso   1.000  H
  H540     1.0000 0.69669  0.11521  0.26661  Biso   1.000  H
  C391     1.0000 0.55290  0.28829  0.66350  Biso   1.000  C
  C392     1.0000 0.60209  0.32341  0.65510  Biso   1.000  C
  N61      1.0000 0.53540  0.28392  0.71801  Biso   1.000  N
  H541     1.0000 0.52361  0.30260  0.64210  Biso   1.000  H
  H542     1.0000 0.56078  0.25250  0.65010  Biso   1.000  H
  C393     1.0000 0.63508  0.31198  0.61281  Biso   1.000  C
  C394     1.0000 0.61281  0.36492  0.68802  Biso   1.000  C
  C395     1.0000 0.48329  0.25999  0.72219  Biso   1.000  C
  C396     1.0000 0.56989  0.25002  0.74998  Biso   1.000  C
  C397     1.0000 0.67659  0.34490  0.60209  Biso   1.000  C
  H543     1.0000 0.62901  0.28171  0.59160  Biso   1.000  H
  C398     1.0000 0.65510  0.39791  0.67659  Biso   1.000  C
  H544     1.0000 0.59160  0.37099  0.71829  Biso   1.000  H
  C399     1.0000 0.43599  0.29570  0.71281  Biso   1.000  C
  C400     1.0000 0.48329  0.24001  0.77781  Biso   1.000  C
  H545     1.0000 0.48120  0.22940  0.69760  Biso   1.000  H
  N62      1.0000 0.53540  0.21608  0.78199  Biso   1.000  N
  H546     1.0000 0.59271  0.27182  0.77300  Biso   1.000  H
  H547     1.0000 0.59271  0.22818  0.72700  Biso   1.000  H
  C401     1.0000 0.71171  0.33650  0.55290  Biso   1.000  C
  C402     1.0000 0.68802  0.38719  0.63508  Biso   1.000  C
  C403     1.0000 0.66350  0.44710  0.71171  Biso   1.000  C
  C404     1.0000 0.38672  0.26188  0.72341  Biso   1.000  C
  H548     1.0000 0.43599  0.30879  0.67611  Biso   1.000  H
  H549     1.0000 0.43701  0.32629  0.73701  Biso   1.000  H
  C405     1.0000 0.43599  0.20430  0.78719  Biso   1.000  C
  H550     1.0000 0.48120  0.27060  0.80240  Biso   1.000  H
  C406     1.0000 0.55290  0.21171  0.83650  Biso   1.000  C
  N63      1.0000 0.71608  0.28199  0.53540  Biso   1.000  N
  H551     1.0000 0.69740  0.35790  0.52361  Biso   1.000  H
  H552     1.0000 0.74750  0.34990  0.56078  Biso   1.000  H
  H553     1.0000 0.71829  0.40840  0.62901  Biso   1.000  H
  N64      1.0000 0.71801  0.46460  0.71608  Biso   1.000  N
  H554     1.0000 0.64210  0.47639  0.69740  Biso   1.000  H
  H555     1.0000 0.65010  0.43922  0.74750  Biso   1.000  H
  C407     1.0000 0.38672  0.23812  0.77659  Biso   1.000  C
  H556     1.0000 0.35491  0.28412  0.71931  Biso   1.000  H
  H557     1.0000 0.38479  0.23339  0.69669  Biso   1.000  H
  H558     1.0000 0.43599  0.19121  0.82389  Biso   1.000  H
  H559     1.0000 0.43701  0.17371  0.76299  Biso   1.000  H
  H560     1.0000 0.52361  0.19740  0.85790  Biso   1.000  H
  H561     1.0000 0.56078  0.24750  0.84990  Biso   1.000  H
  C408     1.0000 0.60209  0.17659  0.84490  Biso   1.000  C
  C409     1.0000 0.74001  0.27781  0.48329  Biso   1.000  C
  C410     1.0000 0.74998  0.25002  0.56989  Biso   1.000  C
  C411     1.0000 0.72219  0.51671  0.74001  Biso   1.000  C
  C412     1.0000 0.74998  0.43011  0.74998  Biso   1.000  C
  H562     1.0000 0.35491  0.21588  0.78069  Biso   1.000  H
  H563     1.0000 0.38479  0.26661  0.80331  Biso   1.000  H
  C413     1.0000 0.61281  0.13508  0.81198  Biso   1.000  C
  C414     1.0000 0.63508  0.18802  0.88719  Biso   1.000  C
  C415     1.0000 0.70430  0.28719  0.43599  Biso   1.000  C
  C416     1.0000 0.75999  0.22219  0.48329  Biso   1.000  C
  H564     1.0000 0.77060  0.30240  0.48120  Biso   1.000  H
  N65      1.0000 0.78392  0.21801  0.53540  Biso   1.000  N
  H565     1.0000 0.77182  0.27300  0.59271  Biso   1.000  H
  H566     1.0000 0.72818  0.22700  0.59271  Biso   1.000  H
  C417     1.0000 0.71281  0.56401  0.70430  Biso   1.000  C
  C418     1.0000 0.77781  0.51671  0.75999  Biso   1.000  C
  H567     1.0000 0.69760  0.51880  0.77060  Biso   1.000  H
  N66      1.0000 0.78199  0.46460  0.78392  Biso   1.000  N
  H568     1.0000 0.77300  0.40729  0.72818  Biso   1.000  H
  H569     1.0000 0.72700  0.40729  0.77182  Biso   1.000  H
  C419     1.0000 0.65510  0.10209  0.82341  Biso   1.000  C
  H570     1.0000 0.59160  0.12901  0.78171  Biso   1.000  H
  C420     1.0000 0.67659  0.15510  0.89791  Biso   1.000  C
  H571     1.0000 0.62901  0.21829  0.90840  Biso   1.000  H
  C421     1.0000 0.73812  0.27659  0.38672  Biso   1.000  C
  H572     1.0000 0.69121  0.32389  0.43599  Biso   1.000  H
  H573     1.0000 0.67371  0.26299  0.43701  Biso   1.000  H
  C422     1.0000 0.79570  0.21281  0.43599  Biso   1.000  C
  H574     1.0000 0.72940  0.19760  0.48120  Biso   1.000  H
  C423     1.0000 0.78829  0.16350  0.55290  Biso   1.000  C
  C424     1.0000 0.72341  0.61328  0.73812  Biso   1.000  C
  H575     1.0000 0.67611  0.56401  0.69121  Biso   1.000  H
  H576     1.0000 0.73701  0.56299  0.67371  Biso   1.000  H
  C425     1.0000 0.78719  0.56401  0.79570  Biso   1.000  C
  H577     1.0000 0.80240  0.51880  0.72940  Biso   1.000  H
  C426     1.0000 0.83650  0.44710  0.78829  Biso   1.000  C
  C427     1.0000 0.66350  0.05290  0.78829  Biso   1.000  C
  C428     1.0000 0.68802  0.11281  0.86492  Biso   1.000  C
  C429     1.0000 0.71171  0.16350  0.94710  Biso   1.000  C
  C430     1.0000 0.76188  0.22341  0.38672  Biso   1.000  C
  H578     1.0000 0.71588  0.28069  0.35491  Biso   1.000  H
  H579     1.0000 0.76661  0.30331  0.38479  Biso   1.000  H
  H580     1.0000 0.80879  0.17611  0.43599  Biso   1.000  H
  H581     1.0000 0.82629  0.23701  0.43701  Biso   1.000  H
  H582     1.0000 0.80260  0.14210  0.52361  Biso   1.000  H
  H583     1.0000 0.75250  0.15010  0.56078  Biso   1.000  H
  C431     1.0000 0.82341  0.15510  0.60209  Biso   1.000  C
  C432     1.0000 0.77659  0.61328  0.76188  Biso   1.000  C
  H584     1.0000 0.71931  0.64509  0.71588  Biso   1.000  H
  H585     1.0000 0.69669  0.61521  0.76661  Biso   1.000  H
  H586     1.0000 0.82389  0.56401  0.80879  Biso   1.000  H
  H587     1.0000 0.76299  0.56299  0.82629  Biso   1.000  H
  H588     1.0000 0.85790  0.47639  0.80260  Biso   1.000  H
  H589     1.0000 0.84990  0.43922  0.75250  Biso   1.000  H
  C433     1.0000 0.84490  0.39791  0.82341  Biso   1.000  C
  N67      1.0000 0.71801  0.03540  0.78392  Biso   1.000  N
  H590     1.0000 0.64210  0.02361  0.80260  Biso   1.000  H
  H591     1.0000 0.65010  0.06078  0.75250  Biso   1.000  H
  H592     1.0000 0.71829  0.09160  0.87099  Biso   1.000  H
  N68      1.0000 0.71608  0.21801  0.96460  Biso   1.000  N
  H593     1.0000 0.69740  0.14210  0.97639  Biso   1.000  H
  H594     1.0000 0.74750  0.15010  0.93922  Biso   1.000  H
  H595     1.0000 0.78412  0.21931  0.35491  Biso   1.000  H
  H596     1.0000 0.73339  0.19669  0.38479  Biso   1.000  H
  C434     1.0000 0.81198  0.11281  0.63508  Biso   1.000  C
  C435     1.0000 0.86492  0.18802  0.61281  Biso   1.000  C
  H597     1.0000 0.78069  0.64509  0.78412  Biso   1.000  H
  H598     1.0000 0.80331  0.61521  0.73339  Biso   1.000  H
  C436     1.0000 0.88719  0.36492  0.81198  Biso   1.000  C
  C437     1.0000 0.81198  0.38719  0.86492  Biso   1.000  C
  C438     1.0000 0.74998  0.06989  0.74998  Biso   1.000  C
  C439     1.0000 0.72219  0.98329  0.75999  Biso   1.000  C
  C440     1.0000 0.74998  0.25002  0.93011  Biso   1.000  C
  C441     1.0000 0.74001  0.22219  0.01671  Biso   1.000  C
  C442     1.0000 0.84490  0.10209  0.67659  Biso   1.000  C
  H599     1.0000 0.78171  0.09160  0.62901  Biso   1.000  H
  C443     1.0000 0.89791  0.17659  0.65510  Biso   1.000  C
  H600     1.0000 0.87099  0.21829  0.59160  Biso   1.000  H
  C444     1.0000 0.89791  0.32341  0.84490  Biso   1.000  C
  H601     1.0000 0.90840  0.37099  0.78171  Biso   1.000  H
  C445     1.0000 0.82341  0.34490  0.89791  Biso   1.000  C
  H602     1.0000 0.78171  0.40840  0.87099  Biso   1.000  H
  N69      1.0000 0.78199  0.03540  0.71608  Biso   1.000  N
  H603     1.0000 0.77300  0.09271  0.77182  Biso   1.000  H
  H604     1.0000 0.72700  0.09271  0.72818  Biso   1.000  H
  C446     1.0000 0.77781  0.98329  0.74001  Biso   1.000  C
  C447     1.0000 0.71281  0.93599  0.79570  Biso   1.000  C
  H605     1.0000 0.69760  0.98120  0.72940  Biso   1.000  H
  N70      1.0000 0.78392  0.28199  0.96460  Biso   1.000  N
  H606     1.0000 0.72818  0.27300  0.90729  Biso   1.000  H
  H607     1.0000 0.77182  0.22700  0.90729  Biso   1.000  H
  C448     1.0000 0.75999  0.27781  0.01671  Biso   1.000  C
  C449     1.0000 0.70430  0.21281  0.06401  Biso   1.000  C
  H608     1.0000 0.77060  0.19760  0.01880  Biso   1.000  H
  C450     1.0000 0.83650  0.05290  0.71171  Biso   1.000  C
  C451     1.0000 0.88719  0.13508  0.68802  Biso   1.000  C
  C452     1.0000 0.94710  0.21171  0.66350  Biso   1.000  C
  C453     1.0000 0.94710  0.28829  0.83650  Biso   1.000  C
  C454     1.0000 0.86492  0.31198  0.88719  Biso   1.000  C
  C455     1.0000 0.78829  0.33650  0.94710  Biso   1.000  C
  C456     1.0000 0.78719  0.93599  0.70430  Biso   1.000  C
  H609     1.0000 0.80240  0.98120  0.77060  Biso   1.000  H
  C457     1.0000 0.72341  0.88672  0.76188  Biso   1.000  C
  H610     1.0000 0.67611  0.93599  0.80879  Biso   1.000  H
  H611     1.0000 0.73701  0.93701  0.82629  Biso   1.000  H
  C458     1.0000 0.79570  0.28719  0.06401  Biso   1.000  C
  H612     1.0000 0.72940  0.30240  0.01880  Biso   1.000  H
  C459     1.0000 0.73812  0.22341  0.11328  Biso   1.000  C
  H613     1.0000 0.69121  0.17611  0.06401  Biso   1.000  H
  H614     1.0000 0.67371  0.23701  0.06299  Biso   1.000  H
  H615     1.0000 0.85790  0.02361  0.69740  Biso   1.000  H
  H616     1.0000 0.84990  0.06078  0.74750  Biso   1.000  H
  H617     1.0000 0.90840  0.12901  0.71829  Biso   1.000  H
  N71      1.0000 0.96460  0.21608  0.71801  Biso   1.000  N
  H618     1.0000 0.97639  0.19740  0.64210  Biso   1.000  H
  H619     1.0000 0.93922  0.24750  0.65010  Biso   1.000  H
  N72      1.0000 0.96460  0.28392  0.78199  Biso   1.000  N
  H620     1.0000 0.97639  0.30260  0.85790  Biso   1.000  H
  H621     1.0000 0.93922  0.25250  0.84990  Biso   1.000  H
  H622     1.0000 0.87099  0.28171  0.90840  Biso   1.000  H
  H623     1.0000 0.80260  0.35790  0.97639  Biso   1.000  H
  H624     1.0000 0.75250  0.34990  0.93922  Biso   1.000  H
  C460     1.0000 0.77659  0.88672  0.73812  Biso   1.000  C
  H625     1.0000 0.82389  0.93599  0.69121  Biso   1.000  H
  H626     1.0000 0.76299  0.93701  0.67371  Biso   1.000  H
  H627     1.0000 0.71931  0.85491  0.78412  Biso   1.000  H
  H628     1.0000 0.69669  0.88479  0.73339  Biso   1.000  H
  C461     1.0000 0.76188  0.27659  0.11328  Biso   1.000  C
  H629     1.0000 0.80879  0.32389  0.06401  Biso   1.000  H
  H630     1.0000 0.82629  0.26299  0.06299  Biso   1.000  H
  H631     1.0000 0.71588  0.21931  0.14509  Biso   1.000  H
  H632     1.0000 0.76661  0.19669  0.11521  Biso   1.000  H
  C462     1.0000 0.93011  0.25002  0.74998  Biso   1.000  C
  C463     1.0000 0.01671  0.24001  0.72219  Biso   1.000  C
  C464     1.0000 0.01671  0.25999  0.77781  Biso   1.000  C
  H633     1.0000 0.78069  0.85491  0.71588  Biso   1.000  H
  H634     1.0000 0.80331  0.88479  0.76661  Biso   1.000  H
  H635     1.0000 0.78412  0.28069  0.14509  Biso   1.000  H
  H636     1.0000 0.73339  0.30331  0.11521  Biso   1.000  H
  H637     1.0000 0.90729  0.27182  0.72700  Biso   1.000  H
  H638     1.0000 0.90729  0.22818  0.77300  Biso   1.000  H
  C465     1.0000 0.06401  0.20430  0.71281  Biso   1.000  C
  H639     1.0000 0.01880  0.27060  0.69760  Biso   1.000  H
  C466     1.0000 0.06401  0.29570  0.78719  Biso   1.000  C
  H640     1.0000 0.01880  0.22940  0.80240  Biso   1.000  H
  C467     1.0000 0.11328  0.23812  0.72341  Biso   1.000  C
  H641     1.0000 0.06401  0.19121  0.67611  Biso   1.000  H
  H642     1.0000 0.06299  0.17371  0.73701  Biso   1.000  H
  C468     1.0000 0.11328  0.26188  0.77659  Biso   1.000  C
  H643     1.0000 0.06401  0.30879  0.82389  Biso   1.000  H
  H644     1.0000 0.06299  0.32629  0.76299  Biso   1.000  H
  H645     1.0000 0.14509  0.21588  0.71931  Biso   1.000  H
  H646     1.0000 0.11521  0.26661  0.69669  Biso   1.000  H
  H647     1.0000 0.14509  0.28412  0.78069  Biso   1.000  H
  H648     1.0000 0.11521  0.23339  0.80331  Biso   1.000  H
  C469     1.0000 0.28829  0.66350  0.55290  Biso   1.000  C
  C470     1.0000 0.32341  0.65510  0.60209  Biso   1.000  C
  N73      1.0000 0.28392  0.71801  0.53540  Biso   1.000  N
  H649     1.0000 0.30260  0.64210  0.52361  Biso   1.000  H
  H650     1.0000 0.25250  0.65010  0.56078  Biso   1.000  H
  C471     1.0000 0.31198  0.61281  0.63508  Biso   1.000  C
  C472     1.0000 0.36492  0.68802  0.61281  Biso   1.000  C
  C473     1.0000 0.25999  0.72219  0.48329  Biso   1.000  C
  C474     1.0000 0.25002  0.74998  0.56989  Biso   1.000  C
  C475     1.0000 0.34490  0.60209  0.67659  Biso   1.000  C
  H651     1.0000 0.28171  0.59160  0.62901  Biso   1.000  H
  C476     1.0000 0.39791  0.67659  0.65510  Biso   1.000  C
  H652     1.0000 0.37099  0.71829  0.59160  Biso   1.000  H
  C477     1.0000 0.29570  0.71281  0.43599  Biso   1.000  C
  C478     1.0000 0.24001  0.77781  0.48329  Biso   1.000  C
  H653     1.0000 0.22940  0.69760  0.48120  Biso   1.000  H
  N74      1.0000 0.21608  0.78199  0.53540  Biso   1.000  N
  H654     1.0000 0.27182  0.77300  0.59271  Biso   1.000  H
  H655     1.0000 0.22818  0.72700  0.59271  Biso   1.000  H
  C479     1.0000 0.33650  0.55290  0.71171  Biso   1.000  C
  C480     1.0000 0.38719  0.63508  0.68802  Biso   1.000  C
  C481     1.0000 0.44710  0.71171  0.66350  Biso   1.000  C
  C482     1.0000 0.26188  0.72341  0.38672  Biso   1.000  C
  H656     1.0000 0.30879  0.67611  0.43599  Biso   1.000  H
  H657     1.0000 0.32629  0.73701  0.43701  Biso   1.000  H
  C483     1.0000 0.20430  0.78719  0.43599  Biso   1.000  C
  H658     1.0000 0.27060  0.80240  0.48120  Biso   1.000  H
  C484     1.0000 0.21171  0.83650  0.55290  Biso   1.000  C
  N75      1.0000 0.28199  0.53540  0.71608  Biso   1.000  N
  H659     1.0000 0.35790  0.52361  0.69740  Biso   1.000  H
  H660     1.0000 0.34990  0.56078  0.74750  Biso   1.000  H
  H661     1.0000 0.40840  0.62901  0.71829  Biso   1.000  H
  N76      1.0000 0.46460  0.71608  0.71801  Biso   1.000  N
  H662     1.0000 0.47639  0.69740  0.64210  Biso   1.000  H
  H663     1.0000 0.43922  0.74750  0.65010  Biso   1.000  H
  C485     1.0000 0.23812  0.77659  0.38672  Biso   1.000  C
  H664     1.0000 0.28412  0.71931  0.35491  Biso   1.000  H
  H665     1.0000 0.23339  0.69669  0.38479  Biso   1.000  H
  H666     1.0000 0.19121  0.82389  0.43599  Biso   1.000  H
  H667     1.0000 0.17371  0.76299  0.43701  Biso   1.000  H
  H668     1.0000 0.19740  0.85790  0.52361  Biso   1.000  H
  H669     1.0000 0.24750  0.84990  0.56078  Biso   1.000  H
  C486     1.0000 0.17659  0.84490  0.60209  Biso   1.000  C
  C487     1.0000 0.27781  0.48329  0.74001  Biso   1.000  C
  C488     1.0000 0.25002  0.56989  0.74998  Biso   1.000  C
  C489     1.0000 0.51671  0.74001  0.72219  Biso   1.000  C
  C490     1.0000 0.43011  0.74998  0.74998  Biso   1.000  C
  H670     1.0000 0.21588  0.78069  0.35491  Biso   1.000  H
  H671     1.0000 0.26661  0.80331  0.38479  Biso   1.000  H
  C491     1.0000 0.13508  0.81198  0.61281  Biso   1.000  C
  C492     1.0000 0.18802  0.88719  0.63508  Biso   1.000  C
  C493     1.0000 0.28719  0.43599  0.70430  Biso   1.000  C
  C494     1.0000 0.22219  0.48329  0.75999  Biso   1.000  C
  H672     1.0000 0.30240  0.48120  0.77060  Biso   1.000  H
  N77      1.0000 0.21801  0.53540  0.78392  Biso   1.000  N
  H673     1.0000 0.27300  0.59271  0.77182  Biso   1.000  H
  H674     1.0000 0.22700  0.59271  0.72818  Biso   1.000  H
  C495     1.0000 0.56401  0.70430  0.71281  Biso   1.000  C
  C496     1.0000 0.51671  0.75999  0.77781  Biso   1.000  C
  H675     1.0000 0.51880  0.77060  0.69760  Biso   1.000  H
  N78      1.0000 0.46460  0.78392  0.78199  Biso   1.000  N
  H676     1.0000 0.40729  0.77182  0.72700  Biso   1.000  H
  H677     1.0000 0.40729  0.72818  0.77300  Biso   1.000  H
  C497     1.0000 0.10209  0.82341  0.65510  Biso   1.000  C
  H678     1.0000 0.12901  0.78171  0.59160  Biso   1.000  H
  C498     1.0000 0.15510  0.89791  0.67659  Biso   1.000  C
  H679     1.0000 0.21829  0.90840  0.62901  Biso   1.000  H
  C499     1.0000 0.27659  0.38672  0.73812  Biso   1.000  C
  H680     1.0000 0.32389  0.43599  0.69121  Biso   1.000  H
  H681     1.0000 0.26299  0.43701  0.67371  Biso   1.000  H
  C500     1.0000 0.21281  0.43599  0.79570  Biso   1.000  C
  H682     1.0000 0.19760  0.48120  0.72940  Biso   1.000  H
  C501     1.0000 0.16350  0.55290  0.78829  Biso   1.000  C
  C502     1.0000 0.61328  0.73812  0.72341  Biso   1.000  C
  H683     1.0000 0.56401  0.69121  0.67611  Biso   1.000  H
  H684     1.0000 0.56299  0.67371  0.73701  Biso   1.000  H
  C503     1.0000 0.56401  0.79570  0.78719  Biso   1.000  C
  H685     1.0000 0.51880  0.72940  0.80240  Biso   1.000  H
  C504     1.0000 0.44710  0.78829  0.83650  Biso   1.000  C
  C505     1.0000 0.05290  0.78829  0.66350  Biso   1.000  C
  C506     1.0000 0.11281  0.86492  0.68802  Biso   1.000  C
  C507     1.0000 0.16350  0.94710  0.71171  Biso   1.000  C
  C508     1.0000 0.22341  0.38672  0.76188  Biso   1.000  C
  H686     1.0000 0.28069  0.35491  0.71588  Biso   1.000  H
  H687     1.0000 0.30331  0.38479  0.76661  Biso   1.000  H
  H688     1.0000 0.17611  0.43599  0.80879  Biso   1.000  H
  H689     1.0000 0.23701  0.43701  0.82629  Biso   1.000  H
  H690     1.0000 0.14210  0.52361  0.80260  Biso   1.000  H
  H691     1.0000 0.15010  0.56078  0.75250  Biso   1.000  H
  C509     1.0000 0.15510  0.60209  0.82341  Biso   1.000  C
  C510     1.0000 0.61328  0.76188  0.77659  Biso   1.000  C
  H692     1.0000 0.64509  0.71588  0.71931  Biso   1.000  H
  H693     1.0000 0.61521  0.76661  0.69669  Biso   1.000  H
  H694     1.0000 0.56401  0.80879  0.82389  Biso   1.000  H
  H695     1.0000 0.56299  0.82629  0.76299  Biso   1.000  H
  H696     1.0000 0.47639  0.80260  0.85790  Biso   1.000  H
  H697     1.0000 0.43922  0.75250  0.84990  Biso   1.000  H
  C511     1.0000 0.39791  0.82341  0.84490  Biso   1.000  C
  N79      1.0000 0.03540  0.78392  0.71801  Biso   1.000  N
  H698     1.0000 0.02361  0.80260  0.64210  Biso   1.000  H
  H699     1.0000 0.06078  0.75250  0.65010  Biso   1.000  H
  H700     1.0000 0.09160  0.87099  0.71829  Biso   1.000  H
  N80      1.0000 0.21801  0.96460  0.71608  Biso   1.000  N
  H701     1.0000 0.14210  0.97639  0.69740  Biso   1.000  H
  H702     1.0000 0.15010  0.93922  0.74750  Biso   1.000  H
  H703     1.0000 0.21931  0.35491  0.78412  Biso   1.000  H
  H704     1.0000 0.19669  0.38479  0.73339  Biso   1.000  H
  C512     1.0000 0.18802  0.61281  0.86492  Biso   1.000  C
  C513     1.0000 0.11281  0.63508  0.81198  Biso   1.000  C
  H705     1.0000 0.64509  0.78412  0.78069  Biso   1.000  H
  H706     1.0000 0.61521  0.73339  0.80331  Biso   1.000  H
  C514     1.0000 0.36492  0.81198  0.88719  Biso   1.000  C
  C515     1.0000 0.38719  0.86492  0.81198  Biso   1.000  C
  C516     1.0000 0.06989  0.74998  0.74998  Biso   1.000  C
  C517     1.0000 0.98329  0.75999  0.72219  Biso   1.000  C
  C518     1.0000 0.25002  0.93011  0.74998  Biso   1.000  C
  C519     1.0000 0.22219  0.01671  0.74001  Biso   1.000  C
  C520     1.0000 0.17659  0.65510  0.89791  Biso   1.000  C
  H707     1.0000 0.21829  0.59160  0.87099  Biso   1.000  H
  C521     1.0000 0.10209  0.67659  0.84490  Biso   1.000  C
  H708     1.0000 0.09160  0.62901  0.78171  Biso   1.000  H
  C522     1.0000 0.32341  0.84490  0.89791  Biso   1.000  C
  H709     1.0000 0.37099  0.78171  0.90840  Biso   1.000  H
  C523     1.0000 0.34490  0.89791  0.82341  Biso   1.000  C
  H710     1.0000 0.40840  0.87099  0.78171  Biso   1.000  H
  N81      1.0000 0.03540  0.71608  0.78199  Biso   1.000  N
  H711     1.0000 0.09271  0.77182  0.77300  Biso   1.000  H
  H712     1.0000 0.09271  0.72818  0.72700  Biso   1.000  H
  C524     1.0000 0.98329  0.74001  0.77781  Biso   1.000  C
  C525     1.0000 0.93599  0.79570  0.71281  Biso   1.000  C
  H713     1.0000 0.98120  0.72940  0.69760  Biso   1.000  H
  N82      1.0000 0.28199  0.96460  0.78392  Biso   1.000  N
  H714     1.0000 0.27300  0.90729  0.72818  Biso   1.000  H
  H715     1.0000 0.22700  0.90729  0.77182  Biso   1.000  H
  C526     1.0000 0.27781  0.01671  0.75999  Biso   1.000  C
  C527     1.0000 0.21281  0.06401  0.70430  Biso   1.000  C
  H716     1.0000 0.19760  0.01880  0.77060  Biso   1.000  H
  C528     1.0000 0.21171  0.66350  0.94710  Biso   1.000  C
  C529     1.0000 0.13508  0.68802  0.88719  Biso   1.000  C
  C530     1.0000 0.05290  0.71171  0.83650  Biso   1.000  C
  C531     1.0000 0.28829  0.83650  0.94710  Biso   1.000  C
  C532     1.0000 0.31198  0.88719  0.86492  Biso   1.000  C
  C533     1.0000 0.33650  0.94710  0.78829  Biso   1.000  C
  C534     1.0000 0.93599  0.70430  0.78719  Biso   1.000  C
  H717     1.0000 0.98120  0.77060  0.80240  Biso   1.000  H
  C535     1.0000 0.88672  0.76188  0.72341  Biso   1.000  C
  H718     1.0000 0.93599  0.80879  0.67611  Biso   1.000  H
  H719     1.0000 0.93701  0.82629  0.73701  Biso   1.000  H
  C536     1.0000 0.28719  0.06401  0.79570  Biso   1.000  C
  H720     1.0000 0.30240  0.01880  0.72940  Biso   1.000  H
  C537     1.0000 0.22341  0.11328  0.73812  Biso   1.000  C
  H721     1.0000 0.17611  0.06401  0.69121  Biso   1.000  H
  H722     1.0000 0.23701  0.06299  0.67371  Biso   1.000  H
  N83      1.0000 0.21608  0.71801  0.96460  Biso   1.000  N
  H723     1.0000 0.19740  0.64210  0.97639  Biso   1.000  H
  H724     1.0000 0.24750  0.65010  0.93922  Biso   1.000  H
  H725     1.0000 0.12901  0.71829  0.90840  Biso   1.000  H
  H726     1.0000 0.02361  0.69740  0.85790  Biso   1.000  H
  H727     1.0000 0.06078  0.74750  0.84990  Biso   1.000  H
  N84      1.0000 0.28392  0.78199  0.96460  Biso   1.000  N
  H728     1.0000 0.30260  0.85790  0.97639  Biso   1.000  H
  H729     1.0000 0.25250  0.84990  0.93922  Biso   1.000  H
  H730     1.0000 0.28171  0.90840  0.87099  Biso   1.000  H
  H731     1.0000 0.35790  0.97639  0.80260  Biso   1.000  H
  H732     1.0000 0.34990  0.93922  0.75250  Biso   1.000  H
  C538     1.0000 0.88672  0.73812  0.77659  Biso   1.000  C
  H733     1.0000 0.93599  0.69121  0.82389  Biso   1.000  H
  H734     1.0000 0.93701  0.67371  0.76299  Biso   1.000  H
  H735     1.0000 0.85491  0.78412  0.71931  Biso   1.000  H
  H736     1.0000 0.88479  0.73339  0.69669  Biso   1.000  H
  C539     1.0000 0.27659  0.11328  0.76188  Biso   1.000  C
  H737     1.0000 0.32389  0.06401  0.80879  Biso   1.000  H
  H738     1.0000 0.26299  0.06299  0.82629  Biso   1.000  H
  H739     1.0000 0.21931  0.14509  0.71588  Biso   1.000  H
  H740     1.0000 0.19669  0.11521  0.76661  Biso   1.000  H
  C540     1.0000 0.25002  0.74998  0.93011  Biso   1.000  C
  C541     1.0000 0.24001  0.72219  0.01671  Biso   1.000  C
  C542     1.0000 0.25999  0.77781  0.01671  Biso   1.000  C
  H741     1.0000 0.85491  0.71588  0.78069  Biso   1.000  H
  H742     1.0000 0.88479  0.76661  0.80331  Biso   1.000  H
  H743     1.0000 0.28069  0.14509  0.78412  Biso   1.000  H
  H744     1.0000 0.30331  0.11521  0.73339  Biso   1.000  H
  H745     1.0000 0.22818  0.77300  0.90729  Biso   1.000  H
  H746     1.0000 0.27182  0.72700  0.90729  Biso   1.000  H
  C543     1.0000 0.20430  0.71281  0.06401  Biso   1.000  C
  H747     1.0000 0.27060  0.69760  0.01880  Biso   1.000  H
  C544     1.0000 0.29570  0.78719  0.06401  Biso   1.000  C
  H748     1.0000 0.22940  0.80240  0.01880  Biso   1.000  H
  C545     1.0000 0.23812  0.72341  0.11328  Biso   1.000  C
  H749     1.0000 0.19121  0.67611  0.06401  Biso   1.000  H
  H750     1.0000 0.17371  0.73701  0.06299  Biso   1.000  H
  C546     1.0000 0.26188  0.77659  0.11328  Biso   1.000  C
  H751     1.0000 0.30879  0.82389  0.06401  Biso   1.000  H
  H752     1.0000 0.32629  0.76299  0.06299  Biso   1.000  H
  H753     1.0000 0.21588  0.71931  0.14509  Biso   1.000  H
  H754     1.0000 0.26661  0.69669  0.11521  Biso   1.000  H
  H755     1.0000 0.28412  0.78069  0.14509  Biso   1.000  H
  H756     1.0000 0.23339  0.80331  0.11521  Biso   1.000  H
  C547     1.0000 0.36330  0.02661  0.98810  Biso   1.000  C
  C548     1.0000 0.31399  0.03721  0.95432  Biso   1.000  C
  C549     1.0000 0.36330  0.97339  0.01190  Biso   1.000  C
  H757     1.0000 0.36520  0.05329  0.01659  Biso   1.000  H
  H758     1.0000 0.39511  0.03071  0.96590  Biso   1.000  H
  C550     1.0000 0.26669  0.02779  0.98999  Biso   1.000  C
  H759     1.0000 0.31399  0.07391  0.94119  Biso   1.000  H
  H760     1.0000 0.31301  0.01301  0.92369  Biso   1.000  H
  C551     1.0000 0.31399  0.96279  0.04568  Biso   1.000  C
  H761     1.0000 0.36520  0.94671  0.98341  Biso   1.000  H
  H762     1.0000 0.39511  0.96929  0.03410  Biso   1.000  H
  N85      1.0000 0.21462  0.03201  0.96610  Biso   1.000  N
  C552     1.0000 0.26669  0.97221  0.01001  Biso   1.000  C
  H763     1.0000 0.26878  0.05238  0.02061  Biso   1.000  H
  H764     1.0000 0.31399  0.92609  0.05881  Biso   1.000  H
  H765     1.0000 0.31301  0.98699  0.07631  Biso   1.000  H
  C553     1.0000 0.18009  0.00000  0.00000  Biso   1.000  C
  C554     1.0000 0.19708  0.08652  0.96169  Biso   1.000  C
  N86      1.0000 0.21462  0.96799  0.03390  Biso   1.000  N
  H766     1.0000 0.26878  0.94762  0.97939  Biso   1.000  H
  H767     1.0000 0.15731  0.02302  0.02180  Biso   1.000  H
  H768     1.0000 0.15731  0.97698  0.97820  Biso   1.000  H
  H769     1.0000 0.22641  0.10788  0.94742  Biso   1.000  H
  H770     1.0000 0.18920  0.09988  0.99752  Biso   1.000  H
  C555     1.0000 0.14789  0.09492  0.92661  Biso   1.000  C
  C556     1.0000 0.19708  0.91348  0.03831  Biso   1.000  C
  C557     1.0000 0.11490  0.13721  0.93800  Biso   1.000  C
  C558     1.0000 0.13721  0.06200  0.88510  Biso   1.000  C
  H771     1.0000 0.22641  0.89212  0.05258  Biso   1.000  H
  H772     1.0000 0.18920  0.90012  0.00248  Biso   1.000  H
  C559     1.0000 0.14789  0.90508  0.07339  Biso   1.000  C
  C560     1.0000 0.07339  0.14789  0.90508  Biso   1.000  C
  H773     1.0000 0.12101  0.15842  0.96831  Biso   1.000  H
  C561     1.0000 0.09492  0.07339  0.85211  Biso   1.000  C
  H774     1.0000 0.15842  0.03169  0.87899  Biso   1.000  H
  C562     1.0000 0.11490  0.86279  0.06200  Biso   1.000  C
  C563     1.0000 0.13721  0.93800  0.11490  Biso   1.000  C
  C564     1.0000 0.03831  0.19708  0.91348  Biso   1.000  C
  C565     1.0000 0.06200  0.11490  0.86279  Biso   1.000  C
  C566     1.0000 0.08652  0.03831  0.80292  Biso   1.000  C
  C567     1.0000 0.07339  0.85211  0.09492  Biso   1.000  C
  H775     1.0000 0.12101  0.84158  0.03169  Biso   1.000  H
  C568     1.0000 0.09492  0.92661  0.14789  Biso   1.000  C
  H776     1.0000 0.15842  0.96831  0.12101  Biso   1.000  H
  N87      1.0000 0.03390  0.21462  0.96799  Biso   1.000  N
  H777     1.0000 0.05258  0.22641  0.89212  Biso   1.000  H
  H778     1.0000 0.00248  0.18920  0.90012  Biso   1.000  H
  H779     1.0000 0.03169  0.12101  0.84158  Biso   1.000  H
  N88      1.0000 0.03201  0.03390  0.78538  Biso   1.000  N
  H780     1.0000 0.10788  0.05258  0.77359  Biso   1.000  H
  H781     1.0000 0.09988  0.00248  0.81080  Biso   1.000  H
  C569     1.0000 0.03831  0.80292  0.08652  Biso   1.000  C
  C570     1.0000 0.06200  0.88510  0.13721  Biso   1.000  C
  C571     1.0000 0.08652  0.96169  0.19708  Biso   1.000  C
  C572     1.0000 0.00000  0.18009  0.00000  Biso   1.000  C
  C573     1.0000 0.01001  0.26669  0.97221  Biso   1.000  C
  C574     1.0000 0.02779  0.01001  0.73331  Biso   1.000  C
  C575     1.0000 0.00000  0.00000  0.81991  Biso   1.000  C
  N89      1.0000 0.03390  0.78538  0.03201  Biso   1.000  N
  H782     1.0000 0.05258  0.77359  0.10788  Biso   1.000  H
  H783     1.0000 0.00248  0.81080  0.09988  Biso   1.000  H
  H784     1.0000 0.03169  0.87899  0.15842  Biso   1.000  H
  N90      1.0000 0.03201  0.96610  0.21462  Biso   1.000  N
  H785     1.0000 0.10788  0.94742  0.22641  Biso   1.000  H
  H786     1.0000 0.09988  0.99752  0.18920  Biso   1.000  H
  H787     1.0000 0.02180  0.15731  0.02302  Biso   1.000  H
  H788     1.0000 0.97820  0.15731  0.97698  Biso   1.000  H
  N91      1.0000 0.96610  0.21462  0.03201  Biso   1.000  N
  H789     1.0000 0.97939  0.26878  0.94762  Biso   1.000  H
  C576     1.0000 0.98999  0.26669  0.02779  Biso   1.000  C
  C577     1.0000 0.04568  0.31399  0.96279  Biso   1.000  C
  C578     1.0000 0.97221  0.98999  0.73331  Biso   1.000  C
  H790     1.0000 0.05238  0.97939  0.73122  Biso   1.000  H
  C579     1.0000 0.03721  0.04568  0.68601  Biso   1.000  C
  N92      1.0000 0.96799  0.96610  0.78538  Biso   1.000  N
  H791     1.0000 0.97698  0.02180  0.84269  Biso   1.000  H
  H792     1.0000 0.02302  0.97820  0.84269  Biso   1.000  H
  C580     1.0000 0.01001  0.73331  0.02779  Biso   1.000  C
  C581     1.0000 0.00000  0.81991  0.00000  Biso   1.000  C
  C582     1.0000 0.00000  0.00000  0.18009  Biso   1.000  C
  C583     1.0000 0.02779  0.98999  0.26669  Biso   1.000  C
  C584     1.0000 0.96169  0.19708  0.08652  Biso   1.000  C
  H793     1.0000 0.02061  0.26878  0.05238  Biso   1.000  H
  C585     1.0000 0.95432  0.31399  0.03721  Biso   1.000  C
  C586     1.0000 0.01190  0.36330  0.97339  Biso   1.000  C
  H794     1.0000 0.05881  0.31399  0.92609  Biso   1.000  H
  H795     1.0000 0.07631  0.31301  0.98699  Biso   1.000  H
  C587     1.0000 0.96279  0.95432  0.68601  Biso   1.000  C
  H796     1.0000 0.94762  0.02061  0.73122  Biso   1.000  H
  C588     1.0000 0.02661  0.01190  0.63670  Biso   1.000  C
  H797     1.0000 0.07391  0.05881  0.68601  Biso   1.000  H
  H798     1.0000 0.01301  0.07631  0.68699  Biso   1.000  H
  C589     1.0000 0.91348  0.96169  0.80292  Biso   1.000  C
  C590     1.0000 0.98999  0.73331  0.97221  Biso   1.000  C
  H799     1.0000 0.97939  0.73122  0.05238  Biso   1.000  H
  C591     1.0000 0.04568  0.68601  0.03721  Biso   1.000  C
  N93      1.0000 0.96610  0.78538  0.96799  Biso   1.000  N
  H800     1.0000 0.97820  0.84269  0.02302  Biso   1.000  H
  H801     1.0000 0.02180  0.84269  0.97698  Biso   1.000  H
  H802     1.0000 0.02302  0.02180  0.15731  Biso   1.000  H
  H803     1.0000 0.97698  0.97820  0.15731  Biso   1.000  H
  N94      1.0000 0.96799  0.03390  0.21462  Biso   1.000  N
  H804     1.0000 0.05238  0.02061  0.26878  Biso   1.000  H
  C592     1.0000 0.97221  0.01001  0.26669  Biso   1.000  C
  C593     1.0000 0.03721  0.95432  0.31399  Biso   1.000  C
  H805     1.0000 0.94742  0.22641  0.10788  Biso   1.000  H
  H806     1.0000 0.99752  0.18920  0.09988  Biso   1.000  H
  C594     1.0000 0.92661  0.14789  0.09492  Biso   1.000  C
  C595     1.0000 0.98810  0.36330  0.02661  Biso   1.000  C
  H807     1.0000 0.94119  0.31399  0.07391  Biso   1.000  H
  H808     1.0000 0.92369  0.31301  0.01301  Biso   1.000  H
  H809     1.0000 0.98341  0.36520  0.94671  Biso   1.000  H
  H810     1.0000 0.03410  0.39511  0.96929  Biso   1.000  H
  C596     1.0000 0.97339  0.98810  0.63670  Biso   1.000  C
  H811     1.0000 0.92609  0.94119  0.68601  Biso   1.000  H
  H812     1.0000 0.98699  0.92369  0.68699  Biso   1.000  H
  H813     1.0000 0.05329  0.98341  0.63480  Biso   1.000  H
  H814     1.0000 0.03071  0.03410  0.60489  Biso   1.000  H
  H815     1.0000 0.89212  0.94742  0.77359  Biso   1.000  H
  H816     1.0000 0.90012  0.99752  0.81080  Biso   1.000  H
  C597     1.0000 0.90508  0.92661  0.85211  Biso   1.000  C
  C598     1.0000 0.95432  0.68601  0.96279  Biso   1.000  C
  H817     1.0000 0.02061  0.73122  0.94762  Biso   1.000  H
  C599     1.0000 0.01190  0.63670  0.02661  Biso   1.000  C
  H818     1.0000 0.05881  0.68601  0.07391  Biso   1.000  H
  H819     1.0000 0.07631  0.68699  0.01301  Biso   1.000  H
  C600     1.0000 0.96169  0.80292  0.91348  Biso   1.000  C
  C601     1.0000 0.91348  0.03831  0.19708  Biso   1.000  C
  H820     1.0000 0.94762  0.97939  0.26878  Biso   1.000  H
  C602     1.0000 0.96279  0.04568  0.31399  Biso   1.000  C
  C603     1.0000 0.02661  0.98810  0.36330  Biso   1.000  C
  H821     1.0000 0.07391  0.94119  0.31399  Biso   1.000  H
  H822     1.0000 0.01301  0.92369  0.31301  Biso   1.000  H
  C604     1.0000 0.93800  0.11490  0.13721  Biso   1.000  C
  C605     1.0000 0.88510  0.13721  0.06200  Biso   1.000  C
  H823     1.0000 0.01659  0.36520  0.05329  Biso   1.000  H
  H824     1.0000 0.96590  0.39511  0.03071  Biso   1.000  H
  H825     1.0000 0.96929  0.96590  0.60489  Biso   1.000  H
  H826     1.0000 0.94671  0.01659  0.63480  Biso   1.000  H
  C606     1.0000 0.93800  0.88510  0.86279  Biso   1.000  C
  C607     1.0000 0.86279  0.93800  0.88510  Biso   1.000  C
  C608     1.0000 0.98810  0.63670  0.97339  Biso   1.000  C
  H827     1.0000 0.94119  0.68601  0.92609  Biso   1.000  H
  H828     1.0000 0.92369  0.68699  0.98699  Biso   1.000  H
  H829     1.0000 0.98341  0.63480  0.05329  Biso   1.000  H
  H830     1.0000 0.03410  0.60489  0.03071  Biso   1.000  H
  H831     1.0000 0.94742  0.77359  0.89212  Biso   1.000  H
  H832     1.0000 0.99752  0.81080  0.90012  Biso   1.000  H
  C609     1.0000 0.92661  0.85211  0.90508  Biso   1.000  C
  H833     1.0000 0.89212  0.05258  0.22641  Biso   1.000  H
  H834     1.0000 0.90012  0.00248  0.18920  Biso   1.000  H
  C610     1.0000 0.90508  0.07339  0.14789  Biso   1.000  C
  C611     1.0000 0.97339  0.01190  0.36330  Biso   1.000  C
  H835     1.0000 0.92609  0.05881  0.31399  Biso   1.000  H
  H836     1.0000 0.98699  0.07631  0.31301  Biso   1.000  H
  H837     1.0000 0.05329  0.01659  0.36520  Biso   1.000  H
  H838     1.0000 0.03071  0.96590  0.39511  Biso   1.000  H
  H839     1.0000 0.96831  0.12101  0.15842  Biso   1.000  H
  C612     1.0000 0.85211  0.09492  0.07339  Biso   1.000  C
  H840     1.0000 0.87899  0.15842  0.03169  Biso   1.000  H
  H841     1.0000 0.96831  0.87899  0.84158  Biso   1.000  H
  C613     1.0000 0.85211  0.90508  0.92661  Biso   1.000  C
  H842     1.0000 0.84158  0.96831  0.87899  Biso   1.000  H
  H843     1.0000 0.96590  0.60489  0.96929  Biso   1.000  H
  H844     1.0000 0.01659  0.63480  0.94671  Biso   1.000  H
  C614     1.0000 0.88510  0.86279  0.93800  Biso   1.000  C
  C615     1.0000 0.86279  0.06200  0.11490  Biso   1.000  C
  H845     1.0000 0.94671  0.98341  0.36520  Biso   1.000  H
  H846     1.0000 0.96929  0.03410  0.39511  Biso   1.000  H
  C616     1.0000 0.80292  0.08652  0.03831  Biso   1.000  C
  C617     1.0000 0.80292  0.91348  0.96169  Biso   1.000  C
  H847     1.0000 0.87899  0.84158  0.96831  Biso   1.000  H
  H848     1.0000 0.84158  0.03169  0.12101  Biso   1.000  H
  N95      1.0000 0.78538  0.03201  0.03390  Biso   1.000  N
  H849     1.0000 0.77359  0.10788  0.05258  Biso   1.000  H
  H850     1.0000 0.81080  0.09988  0.00248  Biso   1.000  H
  N96      1.0000 0.78538  0.96799  0.96610  Biso   1.000  N
  H851     1.0000 0.77359  0.89212  0.94742  Biso   1.000  H
  H852     1.0000 0.81080  0.90012  0.99752  Biso   1.000  H
  C618     1.0000 0.81991  0.00000  0.00000  Biso   1.000  C
  C619     1.0000 0.73331  0.02779  0.01001  Biso   1.000  C
  C620     1.0000 0.73331  0.97221  0.98999  Biso   1.000  C
  H853     1.0000 0.84269  0.97698  0.02180  Biso   1.000  H
  H854     1.0000 0.84269  0.02302  0.97820  Biso   1.000  H
  H855     1.0000 0.73122  0.05238  0.97939  Biso   1.000  H
  C621     1.0000 0.68601  0.03721  0.04568  Biso   1.000  C
  C622     1.0000 0.68601  0.96279  0.95432  Biso   1.000  C
  H856     1.0000 0.73122  0.94762  0.02061  Biso   1.000  H
  C623     1.0000 0.63670  0.02661  0.01190  Biso   1.000  C
  H857     1.0000 0.68601  0.07391  0.05881  Biso   1.000  H
  H858     1.0000 0.68699  0.01301  0.07631  Biso   1.000  H
  C624     1.0000 0.63670  0.97339  0.98810  Biso   1.000  C
  H859     1.0000 0.68601  0.92609  0.94119  Biso   1.000  H
  H860     1.0000 0.68699  0.98699  0.92369  Biso   1.000  H
  H861     1.0000 0.63480  0.05329  0.98341  Biso   1.000  H
  H862     1.0000 0.60489  0.03071  0.03410  Biso   1.000  H
  H863     1.0000 0.60489  0.96929  0.96590  Biso   1.000  H
  H864     1.0000 0.63480  0.94671  0.01659  Biso   1.000  H
