data_image0
_cell_length_a       23.337
_cell_length_b       23.523
_cell_length_c       27.047
_cell_angle_alpha    90
_cell_angle_beta     90
_cell_angle_gamma    90

_symmetry_space_group_name_H-M    "P 1"
_symmetry_int_tables_number       1

loop_
  _symmetry_equiv_pos_as_xyz
  'x, y, z'

loop_
  _atom_site_label
  _atom_site_occupancy
  _atom_site_fract_x
  _atom_site_fract_y
  _atom_site_fract_z
  _atom_site_thermal_displace_type
  _atom_site_B_iso_or_equiv
  _atom_site_type_symbol
  C1       1.0000 0.51699  0.44102  0.46131  Biso   1.000  C
  C2       1.0000 0.52629  0.37670  0.45639  Biso   1.000  C
  C3       1.0000 0.47851  0.46452  0.41971  Biso   1.000  C
  H1       1.0000 0.55448  0.46049  0.46042  Biso   1.000  H
  H2       1.0000 0.49899  0.44922  0.49370  Biso   1.000  H
  C4       1.0000 0.54870  0.36262  0.40470  Biso   1.000  C
  H3       1.0000 0.55431  0.36369  0.48150  Biso   1.000  H
  H4       1.0000 0.48982  0.35642  0.46220  Biso   1.000  H
  C5       1.0000 0.50212  0.44909  0.36799  Biso   1.000  C
  H5       1.0000 0.47598  0.50640  0.42282  Biso   1.000  H
  H6       1.0000 0.43939  0.44879  0.42330  Biso   1.000  H
  C6       1.0000 0.50971  0.38490  0.36440  Biso   1.000  C
  H7       1.0000 0.58731  0.37942  0.40060  Biso   1.000  H
  H8       1.0000 0.55230  0.32092  0.40141  Biso   1.000  H
  H9       1.0000 0.47508  0.46231  0.34222  Biso   1.000  H
  H10      1.0000 0.53940  0.46822  0.36270  Biso   1.000  H
  N1       1.0000 0.53130  0.36832  0.31430  Biso   1.000  N
  H11      1.0000 0.47118  0.36700  0.36891  Biso   1.000  H
  C7       1.0000 0.48892  0.37210  0.27330  Biso   1.000  C
  H12      1.0000 0.56198  0.39111  0.30661  Biso   1.000  H
  H13      1.0000 0.54450  0.33151  0.31589  Biso   1.000  H
  C8       1.0000 0.51189  0.34681  0.22579  Biso   1.000  C
  H14      1.0000 0.47890  0.41249  0.26761  Biso   1.000  H
  H15      1.0000 0.45349  0.35170  0.28299  Biso   1.000  H
  C9       1.0000 0.49059  0.29665  0.20479  Biso   1.000  C
  C10      1.0000 0.55448  0.37606  0.20102  Biso   1.000  C
  O1       1.0000 0.44727  0.26634  0.22757  Biso   1.000  O
  C11      1.0000 0.51159  0.27586  0.15968  Biso   1.000  C
  C12      1.0000 0.57899  0.35616  0.15673  Biso   1.000  C
  O2       1.0000 0.57012  0.42656  0.22258  Biso   1.000  O
  H16      1.0000 0.45589  0.26060  0.25729  Biso   1.000  H
  C13      1.0000 0.48729  0.22132  0.13732  Biso   1.000  C
  C14      1.0000 0.55611  0.30591  0.13750  Biso   1.000  C
  C15      1.0000 0.62780  0.38758  0.13266  Biso   1.000  C
  H17      1.0000 0.60500  0.43268  0.21721  Biso   1.000  H
  C16      1.0000 0.51540  0.16886  0.15943  Biso   1.000  C
  H18      1.0000 0.44582  0.21978  0.14660  Biso   1.000  H
  C17      1.0000 0.48961  0.22051  0.08030  Biso   1.000  C
  H19      1.0000 0.57180  0.29150  0.10759  Biso   1.000  H
  H20      1.0000 0.62262  0.42869  0.14079  Biso   1.000  H
  C18      1.0000 0.63029  0.38341  0.07605  Biso   1.000  C
  C19      1.0000 0.68462  0.36938  0.15554  Biso   1.000  C
  C20      1.0000 0.48952  0.13740  0.19688  Biso   1.000  C
  C21      1.0000 0.56850  0.14960  0.14294  Biso   1.000  C
  H21      1.0000 0.53010  0.22378  0.06958  Biso   1.000  H
  H22      1.0000 0.47470  0.18361  0.06829  Biso   1.000  H
  C22      1.0000 0.45490  0.26859  0.05709  Biso   1.000  C
  H23      1.0000 0.66602  0.40169  0.06441  Biso   1.000  H
  H24      1.0000 0.63200  0.34269  0.06659  Biso   1.000  H
  C23      1.0000 0.58079  0.41019  0.05050  Biso   1.000  C
  C24      1.0000 0.71132  0.40165  0.19229  Biso   1.000  C
  C25      1.0000 0.71230  0.31960  0.14039  Biso   1.000  C
  O3       1.0000 0.43793  0.15198  0.21814  Biso   1.000  O
  C26      1.0000 0.51412  0.08808  0.21588  Biso   1.000  C
  H25      1.0000 0.58769  0.17098  0.11820  Biso   1.000  H
  C27      1.0000 0.59519  0.10067  0.16061  Biso   1.000  C
  H26      1.0000 0.41359  0.26162  0.06289  Biso   1.000  H
  H27      1.0000 0.46518  0.30489  0.07332  Biso   1.000  H
  C28      1.0000 0.46570  0.27322  0.00270  Biso   1.000  C
  H28      1.0000 0.42259  0.27628  0.07990  Biso   1.000  H
  H29      1.0000 0.47971  0.30268  0.05771  Biso   1.000  H
  C29      1.0000 0.43052  0.26510  0.00728  Biso   1.000  C
  H30      1.0000 0.57171  0.44692  0.06659  Biso   1.000  H
  H31      1.0000 0.54681  0.38520  0.05339  Biso   1.000  H
  C30      1.0000 0.59429  0.42040  0.99530  Biso   1.000  C
  O4       1.0000 0.68436  0.45092  0.20790  Biso   1.000  O
  C31      1.0000 0.76462  0.38588  0.21167  Biso   1.000  C
  C32      1.0000 0.76492  0.30230  0.15850  Biso   1.000  C
  H32      1.0000 0.69392  0.29639  0.11639  Biso   1.000  H
  H33      1.0000 0.43279  0.18722  0.21540  Biso   1.000  H
  C33      1.0000 0.56648  0.06993  0.19755  Biso   1.000  C
  C34      1.0000 0.48468  0.05752  0.25811  Biso   1.000  C
  C35      1.0000 0.65321  0.08149  0.14112  Biso   1.000  C
  H34      1.0000 0.50392  0.28921  0.99701  Biso   1.000  H
  H35      1.0000 0.43682  0.29809  0.98773  Biso   1.000  H
  H36      1.0000 0.46330  0.23539  0.98761  Biso   1.000  H
  H37      1.0000 0.45918  0.27722  0.98299  Biso   1.000  H
  H38      1.0000 0.41912  0.22582  0.00041  Biso   1.000  H
  H39      1.0000 0.39688  0.28989  0.00510  Biso   1.000  H
  H40      1.0000 0.63581  0.42359  0.99079  Biso   1.000  H
  H41      1.0000 0.57582  0.45560  0.98440  Biso   1.000  H
  H42      1.0000 0.57981  0.38839  0.97571  Biso   1.000  H
  H43      1.0000 0.68801  0.45419  0.23870  Biso   1.000  H
  C36      1.0000 0.79110  0.33605  0.19499  Biso   1.000  C
  C37      1.0000 0.79659  0.42074  0.24949  Biso   1.000  C
  C38      1.0000 0.79372  0.24857  0.13854  Biso   1.000  C
  O5       1.0000 0.58821  0.01981  0.21659  Biso   1.000  O
  N2       1.0000 0.49222  0.09068  0.30499  Biso   1.000  N
  H44      1.0000 0.44329  0.05331  0.25071  Biso   1.000  H
  H45      1.0000 0.50131  0.01900  0.26210  Biso   1.000  H
  C39      1.0000 0.70090  0.11631  0.16420  Biso   1.000  C
  H46      1.0000 0.65870  0.04162  0.15292  Biso   1.000  H
  C40      1.0000 0.65420  0.07920  0.08452  Biso   1.000  C
  O6       1.0000 0.84368  0.32500  0.21485  Biso   1.000  O
  N3       1.0000 0.79312  0.39519  0.30011  Biso   1.000  N
  H47      1.0000 0.83730  0.42371  0.23962  Biso   1.000  H
  H48      1.0000 0.78039  0.45972  0.25042  Biso   1.000  H
  C41      1.0000 0.76861  0.19615  0.16294  Biso   1.000  C
  H49      1.0000 0.83498  0.25052  0.14819  Biso   1.000  H
  C42      1.0000 0.79140  0.24640  0.08186  Biso   1.000  C
  H50      1.0000 0.62300  0.02410  0.22339  Biso   1.000  H
  H51      1.0000 0.48258  0.12800  0.29922  Biso   1.000  H
  H52      1.0000 0.53019  0.08970  0.31401  Biso   1.000  H
  C43      1.0000 0.45619  0.06832  0.34732  Biso   1.000  C
  C44      1.0000 0.72169  0.10131  0.21097  Biso   1.000  C
  C45      1.0000 0.72559  0.16337  0.14157  Biso   1.000  C
  H53      1.0000 0.62039  0.05752  0.07298  Biso   1.000  H
  H54      1.0000 0.65060  0.11839  0.07162  Biso   1.000  H
  C46      1.0000 0.70819  0.05212  0.06259  Biso   1.000  C
  H55      1.0000 0.84912  0.28972  0.21551  Biso   1.000  H
  H56      1.0000 0.80439  0.35782  0.29859  Biso   1.000  H
  H57      1.0000 0.75562  0.39612  0.31072  Biso   1.000  H
  C47      1.0000 0.83040  0.42652  0.33708  Biso   1.000  C
  C48      1.0000 0.78840  0.17914  0.20960  Biso   1.000  C
  H58      1.0000 0.75108  0.24121  0.07128  Biso   1.000  H
  H59      1.0000 0.81352  0.21298  0.07029  Biso   1.000  H
  C49      1.0000 0.81591  0.30060  0.05679  Biso   1.000  C
  H60      1.0000 0.45918  0.02589  0.34780  Biso   1.000  H
  C50      1.0000 0.48151  0.09170  0.39572  Biso   1.000  C
  C51      1.0000 0.39461  0.08439  0.34000  Biso   1.000  C
  O7       1.0000 0.69803  0.05535  0.23592  Biso   1.000  O
  C52      1.0000 0.76732  0.13123  0.23341  Biso   1.000  C
  H61      1.0000 0.71239  0.17379  0.10959  Biso   1.000  H
  H62      1.0000 0.70300  0.04778  0.02651  Biso   1.000  H
  H63      1.0000 0.74101  0.07801  0.06799  Biso   1.000  H
  C53      1.0000 0.72250  0.99409  0.08482  Biso   1.000  C
  H64      1.0000 0.82710  0.46822  0.33039  Biso   1.000  H
  C54      1.0000 0.80880  0.41521  0.38880  Biso   1.000  C
  C55      1.0000 0.89249  0.40930  0.33109  Biso   1.000  C
  O8       1.0000 0.83297  0.20979  0.23023  Biso   1.000  O
  H65      1.0000 0.82290  0.29180  0.02159  Biso   1.000  H
  H66      1.0000 0.78592  0.33040  0.05801  Biso   1.000  H
  C56      1.0000 0.86901  0.32462  0.07772  Biso   1.000  C
  H67      1.0000 0.48511  0.13361  0.39332  Biso   1.000  H
  H68      1.0000 0.52029  0.07571  0.40082  Biso   1.000  H
  C57      1.0000 0.44299  0.07618  0.43979  Biso   1.000  C
  C58      1.0000 0.35772  0.06632  0.38341  Biso   1.000  C
  H69      1.0000 0.38008  0.06619  0.30950  Biso   1.000  H
  H70      1.0000 0.39170  0.12609  0.33571  Biso   1.000  H
  H71      1.0000 0.68312  0.06679  0.26240  Biso   1.000  H
  C59      1.0000 0.79612  0.10666  0.27888  Biso   1.000  C
  H72      1.0000 0.73428  0.99889  0.11931  Biso   1.000  H
  H73      1.0000 0.75382  0.97670  0.06600  Biso   1.000  H
  H74      1.0000 0.68861  0.96960  0.08330  Biso   1.000  H
  H75      1.0000 0.81099  0.37402  0.39609  Biso   1.000  H
  H76      1.0000 0.76831  0.42720  0.39161  Biso   1.000  H
  C60      1.0000 0.84561  0.44828  0.42570  Biso   1.000  C
  C61      1.0000 0.92990  0.44089  0.36899  Biso   1.000  C
  H77      1.0000 0.90560  0.41848  0.29719  Biso   1.000  H
  H78      1.0000 0.89630  0.36781  0.33601  Biso   1.000  H
  H79      1.0000 0.82671  0.21460  0.26051  Biso   1.000  H
  H80      1.0000 0.86022  0.34490  0.10840  Biso   1.000  H
  H81      1.0000 0.88602  0.35110  0.05380  Biso   1.000  H
  H82      1.0000 0.89622  0.29388  0.08459  Biso   1.000  H
  H83      1.0000 0.44560  0.03482  0.44589  Biso   1.000  H
  H84      1.0000 0.45721  0.09591  0.46970  Biso   1.000  H
  C62      1.0000 0.38141  0.09191  0.43151  Biso   1.000  C
  H85      1.0000 0.35729  0.02440  0.38581  Biso   1.000  H
  H86      1.0000 0.31782  0.07950  0.37812  Biso   1.000  H
  N4       1.0000 0.77161  0.12503  0.32717  Biso   1.000  N
  H87      1.0000 0.79389  0.06470  0.27700  Biso   1.000  H
  H88      1.0000 0.83708  0.11729  0.27822  Biso   1.000  H
  H89      1.0000 0.84132  0.48952  0.41949  Biso   1.000  H
  H90      1.0000 0.83190  0.44042  0.45972  Biso   1.000  H
  C63      1.0000 0.90809  0.43209  0.42160  Biso   1.000  C
  H91      1.0000 0.96979  0.42690  0.36662  Biso   1.000  H
  H92      1.0000 0.92990  0.48200  0.36119  Biso   1.000  H
  H93      1.0000 0.37798  0.13391  0.43021  Biso   1.000  H
  H94      1.0000 0.35819  0.07831  0.45979  Biso   1.000  H
  H95      1.0000 0.73231  0.12201  0.32569  Biso   1.000  H
  H96      1.0000 0.78039  0.16269  0.33220  Biso   1.000  H
  C64      1.0000 0.79312  0.09102  0.37058  Biso   1.000  C
  H97      1.0000 0.91301  0.39179  0.43110  Biso   1.000  H
  H98      1.0000 0.93093  0.45560  0.44471  Biso   1.000  H
  H99      1.0000 0.78159  0.05042  0.36592  Biso   1.000  H
  C65      1.0000 0.76449  0.11342  0.41701  Biso   1.000  C
  C66      1.0000 0.85842  0.09391  0.37450  Biso   1.000  C
  H100     1.0000 0.72229  0.11070  0.41350  Biso   1.000  H
  H101     1.0000 0.77469  0.15381  0.42182  Biso   1.000  H
  C67      1.0000 0.78399  0.07869  0.46171  Biso   1.000  C
  C68      1.0000 0.87972  0.06011  0.41990  Biso   1.000  C
  H102     1.0000 0.87059  0.13408  0.37749  Biso   1.000  H
  H103     1.0000 0.87582  0.07801  0.34410  Biso   1.000  H
  H104     1.0000 0.77101  0.03881  0.45809  Biso   1.000  H
  H105     1.0000 0.76659  0.09442  0.49211  Biso   1.000  H
  C69      1.0000 0.85019  0.08039  0.46600  Biso   1.000  C
  H106     1.0000 0.87171  0.01909  0.41502  Biso   1.000  H
  H107     1.0000 0.92158  0.06500  0.42352  Biso   1.000  H
  H108     1.0000 0.86241  0.11988  0.47310  Biso   1.000  H
  H109     1.0000 0.86232  0.05641  0.49421  Biso   1.000  H
  C70      1.0000 0.48301  0.55898  0.53869  Biso   1.000  C
  C71      1.0000 0.47371  0.62330  0.54361  Biso   1.000  C
  C72      1.0000 0.52149  0.53552  0.58032  Biso   1.000  C
  H110     1.0000 0.44552  0.53951  0.53962  Biso   1.000  H
  H111     1.0000 0.50101  0.55082  0.50630  Biso   1.000  H
  C73      1.0000 0.45130  0.63742  0.59530  Biso   1.000  C
  H112     1.0000 0.44569  0.63631  0.51850  Biso   1.000  H
  H113     1.0000 0.51022  0.64363  0.53780  Biso   1.000  H
  C74      1.0000 0.49792  0.55091  0.63201  Biso   1.000  C
  H114     1.0000 0.52402  0.49360  0.57722  Biso   1.000  H
  H115     1.0000 0.56061  0.55121  0.57670  Biso   1.000  H
  C75      1.0000 0.49029  0.61510  0.63560  Biso   1.000  C
  H116     1.0000 0.41269  0.62058  0.59940  Biso   1.000  H
  H117     1.0000 0.44770  0.67912  0.59862  Biso   1.000  H
  H118     1.0000 0.52492  0.53769  0.65782  Biso   1.000  H
  H119     1.0000 0.46060  0.53182  0.63730  Biso   1.000  H
  N5       1.0000 0.46870  0.63172  0.68573  Biso   1.000  N
  H120     1.0000 0.52882  0.63300  0.63112  Biso   1.000  H
  C76      1.0000 0.51112  0.62790  0.72670  Biso   1.000  C
  H121     1.0000 0.43802  0.60889  0.69342  Biso   1.000  H
  H122     1.0000 0.45550  0.66849  0.68411  Biso   1.000  H
  C77      1.0000 0.48811  0.65319  0.77421  Biso   1.000  C
  H123     1.0000 0.52110  0.58751  0.73239  Biso   1.000  H
  H124     1.0000 0.54651  0.64830  0.71701  Biso   1.000  H
  C78      1.0000 0.44552  0.62394  0.79902  Biso   1.000  C
  C79      1.0000 0.50941  0.70335  0.79521  Biso   1.000  C
  C80      1.0000 0.42101  0.64384  0.84331  Biso   1.000  C
  O9       1.0000 0.42988  0.57344  0.77742  Biso   1.000  O
  C81      1.0000 0.48841  0.72418  0.84032  Biso   1.000  C
  O10      1.0000 0.55273  0.73366  0.77247  Biso   1.000  O
  C82      1.0000 0.37220  0.61242  0.86738  Biso   1.000  C
  C83      1.0000 0.44389  0.69409  0.86250  Biso   1.000  C
  H125     1.0000 0.39500  0.56732  0.78282  Biso   1.000  H
  C84      1.0000 0.51271  0.77873  0.86272  Biso   1.000  C
  H126     1.0000 0.54411  0.73940  0.74271  Biso   1.000  H
  C85      1.0000 0.31542  0.63062  0.84446  Biso   1.000  C
  H127     1.0000 0.37738  0.57131  0.85921  Biso   1.000  H
  C86      1.0000 0.36971  0.61659  0.92398  Biso   1.000  C
  H128     1.0000 0.42820  0.70850  0.89241  Biso   1.000  H
  C87      1.0000 0.48460  0.83114  0.84057  Biso   1.000  C
  H129     1.0000 0.55418  0.78022  0.85340  Biso   1.000  H
  C88      1.0000 0.51039  0.77949  0.91970  Biso   1.000  C
  C89      1.0000 0.28868  0.59835  0.80771  Biso   1.000  C
  C90      1.0000 0.28770  0.68040  0.85961  Biso   1.000  C
  H130     1.0000 0.33402  0.59831  0.93559  Biso   1.000  H
  H131     1.0000 0.36800  0.65731  0.93341  Biso   1.000  H
  C91      1.0000 0.41921  0.58981  0.94950  Biso   1.000  C
  C92      1.0000 0.51052  0.86260  0.80316  Biso   1.000  C
  C93      1.0000 0.43150  0.85044  0.85710  Biso   1.000  C
  H132     1.0000 0.46990  0.77622  0.93042  Biso   1.000  H
  H133     1.0000 0.52530  0.81639  0.93171  Biso   1.000  H
  C94      1.0000 0.54510  0.73141  0.94291  Biso   1.000  C
  C95      1.0000 0.23542  0.61412  0.78833  Biso   1.000  C
  O11      1.0000 0.31564  0.54908  0.79210  Biso   1.000  O
  C96      1.0000 0.23512  0.69770  0.84150  Biso   1.000  C
  H134     1.0000 0.30608  0.70361  0.88361  Biso   1.000  H
  H135     1.0000 0.42829  0.55312  0.93341  Biso   1.000  H
  H136     1.0000 0.45319  0.61480  0.94661  Biso   1.000  H
  C97      1.0000 0.40571  0.57960  0.00470  Biso   1.000  C
  O12      1.0000 0.56207  0.84802  0.78186  Biso   1.000  O
  C98      1.0000 0.48588  0.91192  0.78412  Biso   1.000  C
  C99      1.0000 0.40481  0.89938  0.83939  Biso   1.000  C
  H137     1.0000 0.41231  0.82902  0.88180  Biso   1.000  H
  H138     1.0000 0.58641  0.73843  0.93711  Biso   1.000  H
  H139     1.0000 0.53482  0.69511  0.92672  Biso   1.000  H
  C100     1.0000 0.53430  0.72682  0.99730  Biso   1.000  C
  H140     1.0000 0.57741  0.72372  0.92010  Biso   1.000  H
  H141     1.0000 0.52029  0.69732  0.94232  Biso   1.000  H
  C101     1.0000 0.56948  0.73490  0.99272  Biso   1.000  C
  C102     1.0000 0.20341  0.57926  0.75051  Biso   1.000  C
  C103     1.0000 0.20890  0.66395  0.80504  Biso   1.000  C
  H142     1.0000 0.31199  0.54581  0.76130  Biso   1.000  H
  C104     1.0000 0.20628  0.75143  0.86146  Biso   1.000  C
  H143     1.0000 0.36419  0.57641  0.00921  Biso   1.000  H
  H144     1.0000 0.42422  0.54440  0.01560  Biso   1.000  H
  H145     1.0000 0.42019  0.61161  0.02429  Biso   1.000  H
  H146     1.0000 0.56721  0.81282  0.78460  Biso   1.000  H
  C105     1.0000 0.43352  0.93007  0.80245  Biso   1.000  C
  C106     1.0000 0.51532  0.94252  0.74189  Biso   1.000  C
  C107     1.0000 0.34679  0.91851  0.85888  Biso   1.000  C
  H147     1.0000 0.49612  0.71079  0.00299  Biso   1.000  H
  H148     1.0000 0.56318  0.70191  0.01231  Biso   1.000  H
  H149     1.0000 0.53670  0.76461  0.01239  Biso   1.000  H
  H150     1.0000 0.54082  0.72282  0.01701  Biso   1.000  H
  H151     1.0000 0.58092  0.77422  0.99959  Biso   1.000  H
  H152     1.0000 0.60312  0.71011  0.99490  Biso   1.000  H
  N6       1.0000 0.20688  0.60481  0.69989  Biso   1.000  N
  H153     1.0000 0.16270  0.57629  0.76042  Biso   1.000  H
  H154     1.0000 0.21961  0.54032  0.74962  Biso   1.000  H
  O13      1.0000 0.15632  0.67504  0.78515  Biso   1.000  O
  H155     1.0000 0.16502  0.74952  0.85181  Biso   1.000  H
  C108     1.0000 0.20860  0.75360  0.91814  Biso   1.000  C
  C109     1.0000 0.23139  0.80389  0.83710  Biso   1.000  C
  O14      1.0000 0.41179  0.98019  0.78341  Biso   1.000  O
  N7       1.0000 0.50782  0.90932  0.69501  Biso   1.000  N
  H156     1.0000 0.55671  0.94669  0.74933  Biso   1.000  H
  H157     1.0000 0.49869  0.98100  0.73790  Biso   1.000  H
  C110     1.0000 0.29910  0.88373  0.83580  Biso   1.000  C
  H158     1.0000 0.34130  0.95842  0.84712  Biso   1.000  H
  C111     1.0000 0.34580  0.92080  0.91552  Biso   1.000  C
  C112     1.0000 0.16960  0.57352  0.66296  Biso   1.000  C
  H159     1.0000 0.19561  0.64222  0.70141  Biso   1.000  H
  H160     1.0000 0.24442  0.60392  0.68932  Biso   1.000  H
  H161     1.0000 0.15092  0.71033  0.78452  Biso   1.000  H
  H162     1.0000 0.24892  0.75879  0.92872  Biso   1.000  H
  H163     1.0000 0.18648  0.78702  0.92971  Biso   1.000  H
  C113     1.0000 0.18409  0.69940  0.94321  Biso   1.000  C
  C114     1.0000 0.21160  0.82086  0.79040  Biso   1.000  C
  C115     1.0000 0.27441  0.83663  0.85843  Biso   1.000  C
  H164     1.0000 0.37700  0.97590  0.77661  Biso   1.000  H
  H165     1.0000 0.51742  0.87200  0.70082  Biso   1.000  H
  H166     1.0000 0.46981  0.91030  0.68599  Biso   1.000  H
  C116     1.0000 0.54381  0.93173  0.65272  Biso   1.000  C
  C117     1.0000 0.27831  0.89869  0.78907  Biso   1.000  C
  H167     1.0000 0.37961  0.94252  0.92702  Biso   1.000  H
  H168     1.0000 0.34940  0.88161  0.92842  Biso   1.000  H
  C118     1.0000 0.29181  0.94792  0.93741  Biso   1.000  C
  C119     1.0000 0.19120  0.58479  0.61120  Biso   1.000  C
  H169     1.0000 0.17290  0.53182  0.66961  Biso   1.000  H
  C120     1.0000 0.10751  0.59070  0.66891  Biso   1.000  C
  H170     1.0000 0.17710  0.70820  0.97841  Biso   1.000  H
  H171     1.0000 0.21408  0.66960  0.94203  Biso   1.000  H
  C121     1.0000 0.13099  0.67542  0.92232  Biso   1.000  C
  O15      1.0000 0.16703  0.79021  0.76977  Biso   1.000  O
  C122     1.0000 0.23272  0.86877  0.76663  Biso   1.000  C
  H172     1.0000 0.28761  0.82621  0.89041  Biso   1.000  H
  H173     1.0000 0.54082  0.97411  0.65220  Biso   1.000  H
  C123     1.0000 0.51849  0.90830  0.60432  Biso   1.000  C
  C124     1.0000 0.60539  0.91561  0.66000  Biso   1.000  C
  O16      1.0000 0.30197  0.94465  0.76408  Biso   1.000  O
  H174     1.0000 0.29700  0.95222  0.97353  Biso   1.000  H
  H175     1.0000 0.25899  0.92199  0.93201  Biso   1.000  H
  C125     1.0000 0.27750  0.00591  0.91522  Biso   1.000  C
  C126     1.0000 0.15439  0.55172  0.57430  Biso   1.000  C
  H176     1.0000 0.18901  0.62603  0.60391  Biso   1.000  H
  H177     1.0000 0.23169  0.57280  0.60842  Biso   1.000  H
  C127     1.0000 0.07010  0.55911  0.63101  Biso   1.000  C
  H178     1.0000 0.09440  0.58152  0.70281  Biso   1.000  H
  H179     1.0000 0.10370  0.63219  0.66399  Biso   1.000  H
  H180     1.0000 0.13982  0.65510  0.89160  Biso   1.000  H
  H181     1.0000 0.11398  0.64890  0.94620  Biso   1.000  H
  H182     1.0000 0.10378  0.70612  0.91541  Biso   1.000  H
  H183     1.0000 0.17329  0.78540  0.73949  Biso   1.000  H
  C128     1.0000 0.20388  0.89334  0.72112  Biso   1.000  C
  H184     1.0000 0.51489  0.86643  0.60672  Biso   1.000  H
  H185     1.0000 0.47971  0.92429  0.59922  Biso   1.000  H
  C129     1.0000 0.55701  0.92382  0.56021  Biso   1.000  C
  C130     1.0000 0.64228  0.93372  0.61659  Biso   1.000  C
  H186     1.0000 0.61992  0.93381  0.69050  Biso   1.000  H
  H187     1.0000 0.60830  0.87391  0.66433  Biso   1.000  H
  H188     1.0000 0.31692  0.93321  0.73760  Biso   1.000  H
  H189     1.0000 0.26572  0.00111  0.88073  Biso   1.000  H
  H190     1.0000 0.24622  0.02330  0.93400  Biso   1.000  H
  H191     1.0000 0.31139  0.03040  0.91670  Biso   1.000  H
  H192     1.0000 0.15872  0.51052  0.58051  Biso   1.000  H
  H193     1.0000 0.16810  0.55962  0.54032  Biso   1.000  H
  C131     1.0000 0.09191  0.56791  0.57840  Biso   1.000  C
  H194     1.0000 0.03021  0.57310  0.63342  Biso   1.000  H
  H195     1.0000 0.07010  0.51800  0.63881  Biso   1.000  H
  N8       1.0000 0.22839  0.87497  0.67283  Biso   1.000  N
  H196     1.0000 0.20611  0.93530  0.72300  Biso   1.000  H
  H197     1.0000 0.16292  0.88271  0.72182  Biso   1.000  H
  H198     1.0000 0.55440  0.96523  0.55411  Biso   1.000  H
  H199     1.0000 0.54279  0.90409  0.53030  Biso   1.000  H
  C132     1.0000 0.61859  0.90809  0.56849  Biso   1.000  C
  H200     1.0000 0.64271  0.97560  0.61419  Biso   1.000  H
  H201     1.0000 0.68222  0.92050  0.62192  Biso   1.000  H
  H202     1.0000 0.08699  0.60821  0.56890  Biso   1.000  H
  H203     1.0000 0.06912  0.54440  0.55529  Biso   1.000  H
  H204     1.0000 0.26769  0.87799  0.67431  Biso   1.000  H
  H205     1.0000 0.21961  0.83731  0.66780  Biso   1.000  H
  C133     1.0000 0.20688  0.90903  0.62946  Biso   1.000  C
  H206     1.0000 0.62202  0.86609  0.56982  Biso   1.000  H
  H207     1.0000 0.64181  0.92169  0.54021  Biso   1.000  H
  H208     1.0000 0.21841  0.94962  0.63412  Biso   1.000  H
  C134     1.0000 0.23551  0.88662  0.58302  Biso   1.000  C
  C135     1.0000 0.14162  0.90609  0.62550  Biso   1.000  C
  H209     1.0000 0.27771  0.88930  0.58650  Biso   1.000  H
  H210     1.0000 0.22531  0.84619  0.57822  Biso   1.000  H
  C136     1.0000 0.21601  0.92131  0.53832  Biso   1.000  C
  C137     1.0000 0.12028  0.93989  0.58010  Biso   1.000  C
  H211     1.0000 0.12941  0.86592  0.62251  Biso   1.000  H
  H212     1.0000 0.12418  0.92199  0.65590  Biso   1.000  H
  H213     1.0000 0.22899  0.96119  0.54191  Biso   1.000  H
  H214     1.0000 0.23341  0.90562  0.50789  Biso   1.000  H
  C138     1.0000 0.14981  0.91961  0.53400  Biso   1.000  C
  H215     1.0000 0.12829  0.98091  0.58502  Biso   1.000  H
  H216     1.0000 0.07842  0.93500  0.57651  Biso   1.000  H
  H217     1.0000 0.13759  0.88012  0.52690  Biso   1.000  H
  H218     1.0000 0.13772  0.94359  0.50582  Biso   1.000  H
  C139     1.0000 0.37970  0.43991  0.58010  Biso   1.000  C
  C140     1.0000 0.35022  0.41959  0.53400  Biso   1.000  C
  C141     1.0000 0.35840  0.40611  0.62550  Biso   1.000  C
  H219     1.0000 0.37168  0.48089  0.58502  Biso   1.000  H
  H220     1.0000 0.42161  0.43502  0.57651  Biso   1.000  H
  C142     1.0000 0.28401  0.42129  0.53832  Biso   1.000  C
  H221     1.0000 0.36239  0.38010  0.52690  Biso   1.000  H
  H222     1.0000 0.36230  0.44361  0.50582  Biso   1.000  H
  C143     1.0000 0.29310  0.40900  0.62946  Biso   1.000  C
  H223     1.0000 0.37061  0.36590  0.62251  Biso   1.000  H
  H224     1.0000 0.37580  0.42201  0.65590  Biso   1.000  H
  C144     1.0000 0.26452  0.38660  0.58302  Biso   1.000  C
  H225     1.0000 0.27099  0.46121  0.54191  Biso   1.000  H
  H226     1.0000 0.26662  0.40560  0.50789  Biso   1.000  H
  N9       1.0000 0.27159  0.37499  0.67283  Biso   1.000  N
  H227     1.0000 0.28161  0.44960  0.63412  Biso   1.000  H
  H228     1.0000 0.22231  0.38932  0.58650  Biso   1.000  H
  H229     1.0000 0.27471  0.34621  0.57822  Biso   1.000  H
  H230     1.0000 0.23229  0.37801  0.67431  Biso   1.000  H
  H231     1.0000 0.28041  0.33729  0.66780  Biso   1.000  H
  C145     1.0000 0.29610  0.39336  0.72112  Biso   1.000  C
  C146     1.0000 0.26730  0.36879  0.76663  Biso   1.000  C
  H232     1.0000 0.29391  0.43532  0.72300  Biso   1.000  H
  H233     1.0000 0.33710  0.38269  0.72182  Biso   1.000  H
  C147     1.0000 0.28838  0.32083  0.79040  Biso   1.000  C
  C148     1.0000 0.22171  0.39867  0.78907  Biso   1.000  C
  O17      1.0000 0.33295  0.29018  0.76977  Biso   1.000  O
  C149     1.0000 0.26859  0.30387  0.83710  Biso   1.000  C
  O18      1.0000 0.19801  0.44463  0.76408  Biso   1.000  O
  C150     1.0000 0.20088  0.38371  0.83580  Biso   1.000  C
  H234     1.0000 0.32669  0.28542  0.73949  Biso   1.000  H
  C151     1.0000 0.29370  0.25141  0.86146  Biso   1.000  C
  C152     1.0000 0.22561  0.33661  0.85843  Biso   1.000  C
  H235     1.0000 0.18310  0.43319  0.73760  Biso   1.000  H
  C153     1.0000 0.15319  0.41848  0.85888  Biso   1.000  C
  C154     1.0000 0.26490  0.19772  0.84150  Biso   1.000  C
  H236     1.0000 0.33500  0.24950  0.85181  Biso   1.000  H
  C155     1.0000 0.29138  0.25358  0.91814  Biso   1.000  C
  H237     1.0000 0.21241  0.32619  0.89041  Biso   1.000  H
  C156     1.0000 0.09521  0.39935  0.83939  Biso   1.000  C
  H238     1.0000 0.15872  0.45840  0.84712  Biso   1.000  H
  C157     1.0000 0.15422  0.42082  0.91552  Biso   1.000  C
  C158     1.0000 0.29108  0.16392  0.80504  Biso   1.000  C
  C159     1.0000 0.21228  0.18038  0.85961  Biso   1.000  C
  H239     1.0000 0.25110  0.25881  0.92872  Biso   1.000  H
  H240     1.0000 0.31349  0.28700  0.92971  Biso   1.000  H
  C160     1.0000 0.31589  0.19942  0.94321  Biso   1.000  C
  C161     1.0000 0.06852  0.35042  0.85710  Biso   1.000  C
  C162     1.0000 0.06650  0.43009  0.80245  Biso   1.000  C
  H241     1.0000 0.12041  0.44250  0.92702  Biso   1.000  H
  H242     1.0000 0.15062  0.38158  0.92842  Biso   1.000  H
  C163     1.0000 0.20821  0.44790  0.93741  Biso   1.000  C
  O19      1.0000 0.34366  0.17502  0.78515  Biso   1.000  O
  C164     1.0000 0.26460  0.11410  0.78833  Biso   1.000  C
  C165     1.0000 0.18460  0.13064  0.84446  Biso   1.000  C
  H243     1.0000 0.19390  0.20359  0.88361  Biso   1.000  H
  H244     1.0000 0.32292  0.20822  0.97841  Biso   1.000  H
  H245     1.0000 0.28590  0.16962  0.94203  Biso   1.000  H
  C166     1.0000 0.36898  0.17540  0.92232  Biso   1.000  C
  C167     1.0000 0.01538  0.33112  0.84057  Biso   1.000  C
  H246     1.0000 0.08771  0.32900  0.88180  Biso   1.000  H
  O20      1.0000 0.08819  0.48021  0.78341  Biso   1.000  O
  C168     1.0000 0.01410  0.41189  0.78412  Biso   1.000  C
  H247     1.0000 0.20298  0.45220  0.97353  Biso   1.000  H
  H248     1.0000 0.24099  0.42201  0.93201  Biso   1.000  H
  C169     1.0000 0.22252  0.50589  0.91522  Biso   1.000  C
  H249     1.0000 0.34910  0.21030  0.78452  Biso   1.000  H
  C170     1.0000 0.21130  0.09837  0.80771  Biso   1.000  C
  C171     1.0000 0.29661  0.07924  0.75051  Biso   1.000  C
  C172     1.0000 0.12778  0.11240  0.86738  Biso   1.000  C
  H250     1.0000 0.36020  0.15508  0.89160  Biso   1.000  H
  H251     1.0000 0.38600  0.14892  0.94620  Biso   1.000  H
  H252     1.0000 0.39619  0.20610  0.91541  Biso   1.000  H
  C173     1.0000 0.98950  0.36262  0.80316  Biso   1.000  C
  C174     1.0000 0.98732  0.27871  0.86272  Biso   1.000  C
  H253     1.0000 0.12298  0.47592  0.77661  Biso   1.000  H
  C175     1.0000 0.98470  0.44250  0.74189  Biso   1.000  C
  H254     1.0000 0.23431  0.50108  0.88073  Biso   1.000  H
  H255     1.0000 0.25380  0.52332  0.93400  Biso   1.000  H
  H256     1.0000 0.18858  0.53042  0.91670  Biso   1.000  H
  O21      1.0000 0.18434  0.04906  0.79210  Biso   1.000  O
  N10      1.0000 0.29310  0.10479  0.69989  Biso   1.000  N
  H257     1.0000 0.33732  0.07631  0.76042  Biso   1.000  H
  H258     1.0000 0.28041  0.04030  0.74962  Biso   1.000  H
  C176     1.0000 0.07902  0.14382  0.84331  Biso   1.000  C
  H259     1.0000 0.12260  0.07129  0.85921  Biso   1.000  H
  C177     1.0000 0.13031  0.11661  0.92398  Biso   1.000  C
  O22      1.0000 0.93795  0.34804  0.78186  Biso   1.000  O
  C178     1.0000 0.01161  0.22416  0.84032  Biso   1.000  C
  H260     1.0000 0.94579  0.28019  0.85340  Biso   1.000  H
  C179     1.0000 0.98959  0.27951  0.91970  Biso   1.000  C
  H261     1.0000 0.00129  0.48102  0.73790  Biso   1.000  H
  N11      1.0000 0.99220  0.40930  0.69501  Biso   1.000  N
  H262     1.0000 0.94331  0.44671  0.74933  Biso   1.000  H
  H263     1.0000 0.18798  0.04578  0.76130  Biso   1.000  H
  H264     1.0000 0.30441  0.14220  0.70141  Biso   1.000  H
  H265     1.0000 0.25560  0.10390  0.68932  Biso   1.000  H
  C180     1.0000 0.33042  0.07350  0.66296  Biso   1.000  C
  C181     1.0000 0.05451  0.12396  0.79902  Biso   1.000  C
  C182     1.0000 0.05609  0.19407  0.86250  Biso   1.000  C
  H266     1.0000 0.16600  0.09829  0.93559  Biso   1.000  H
  H267     1.0000 0.13198  0.15729  0.93341  Biso   1.000  H
  C183     1.0000 0.08082  0.08978  0.94950  Biso   1.000  C
  H268     1.0000 0.93281  0.31280  0.78460  Biso   1.000  H
  C184     1.0000 0.99062  0.20333  0.79521  Biso   1.000  C
  H269     1.0000 0.03008  0.27620  0.93042  Biso   1.000  H
  H270     1.0000 0.97472  0.31641  0.93171  Biso   1.000  H
  C185     1.0000 0.95492  0.23139  0.94291  Biso   1.000  C
  H271     1.0000 0.03021  0.41032  0.68599  Biso   1.000  H
  H272     1.0000 0.98260  0.37202  0.70082  Biso   1.000  H
  C186     1.0000 0.95621  0.43171  0.65272  Biso   1.000  C
  H273     1.0000 0.32712  0.03180  0.66961  Biso   1.000  H
  C187     1.0000 0.30878  0.08481  0.61120  Biso   1.000  C
  C188     1.0000 0.39251  0.09072  0.66891  Biso   1.000  C
  O23      1.0000 0.07015  0.07346  0.77742  Biso   1.000  O
  C189     1.0000 0.01191  0.15321  0.77421  Biso   1.000  C
  H274     1.0000 0.07182  0.20852  0.89241  Biso   1.000  H
  H275     1.0000 0.07169  0.05310  0.93341  Biso   1.000  H
  H276     1.0000 0.04679  0.11478  0.94661  Biso   1.000  H
  C190     1.0000 0.09431  0.07958  0.00470  Biso   1.000  C
  O24      1.0000 0.94725  0.23364  0.77247  Biso   1.000  O
  H277     1.0000 0.91361  0.23840  0.93711  Biso   1.000  H
  H278     1.0000 0.96521  0.19509  0.92672  Biso   1.000  H
  C191     1.0000 0.96572  0.22680  0.99730  Biso   1.000  C
  H279     1.0000 0.92261  0.22370  0.92010  Biso   1.000  H
  H280     1.0000 0.97969  0.19730  0.94232  Biso   1.000  H
  C192     1.0000 0.93050  0.23492  0.99272  Biso   1.000  C
  H281     1.0000 0.95921  0.47409  0.65220  Biso   1.000  H
  C193     1.0000 0.98149  0.40832  0.60432  Biso   1.000  C
  C194     1.0000 0.89459  0.41559  0.66000  Biso   1.000  C
  H282     1.0000 0.31101  0.12600  0.60391  Biso   1.000  H
  H283     1.0000 0.26829  0.07278  0.60842  Biso   1.000  H
  C195     1.0000 0.34559  0.05169  0.57430  Biso   1.000  C
  C196     1.0000 0.42992  0.05909  0.63101  Biso   1.000  C
  H284     1.0000 0.40562  0.08149  0.70281  Biso   1.000  H
  H285     1.0000 0.39628  0.13221  0.66399  Biso   1.000  H
  H286     1.0000 0.10498  0.06730  0.78282  Biso   1.000  H
  C197     1.0000 0.98890  0.12792  0.72670  Biso   1.000  C
  H287     1.0000 0.13579  0.07639  0.00921  Biso   1.000  H
  H288     1.0000 0.07580  0.04438  0.01560  Biso   1.000  H
  H289     1.0000 0.07979  0.11159  0.02429  Biso   1.000  H
  H290     1.0000 0.95591  0.23938  0.74271  Biso   1.000  H
  H291     1.0000 0.93680  0.20189  0.01231  Biso   1.000  H
  H292     1.0000 0.96332  0.26459  0.01239  Biso   1.000  H
  H293     1.0000 0.95921  0.22280  0.01701  Biso   1.000  H
  H294     1.0000 0.00390  0.21081  0.00299  Biso   1.000  H
  H295     1.0000 0.91910  0.27420  0.99959  Biso   1.000  H
  H296     1.0000 0.89690  0.21009  0.99490  Biso   1.000  H
  H297     1.0000 0.02031  0.42431  0.59922  Biso   1.000  H
  H298     1.0000 0.98509  0.36641  0.60672  Biso   1.000  H
  C198     1.0000 0.94301  0.42380  0.56021  Biso   1.000  C
  C199     1.0000 0.85769  0.43370  0.61659  Biso   1.000  C
  H299     1.0000 0.88010  0.43379  0.69050  Biso   1.000  H
  H300     1.0000 0.89172  0.37389  0.66433  Biso   1.000  H
  H301     1.0000 0.34130  0.01050  0.58051  Biso   1.000  H
  H302     1.0000 0.33192  0.05960  0.54032  Biso   1.000  H
  C200     1.0000 0.40811  0.06789  0.57840  Biso   1.000  C
  H303     1.0000 0.46981  0.07312  0.63342  Biso   1.000  H
  H304     1.0000 0.42992  0.01798  0.63881  Biso   1.000  H
  N12      1.0000 0.03128  0.13170  0.68573  Biso   1.000  N
  H305     1.0000 0.97892  0.08749  0.73239  Biso   1.000  H
  H306     1.0000 0.95351  0.14828  0.71701  Biso   1.000  H
  H307     1.0000 0.94562  0.46520  0.55411  Biso   1.000  H
  H308     1.0000 0.95719  0.40412  0.53030  Biso   1.000  H
  C201     1.0000 0.88139  0.40811  0.56849  Biso   1.000  C
  H309     1.0000 0.85731  0.47562  0.61419  Biso   1.000  H
  H310     1.0000 0.81780  0.42052  0.62192  Biso   1.000  H
  H311     1.0000 0.41299  0.10819  0.56890  Biso   1.000  H
  H312     1.0000 0.43090  0.04438  0.55529  Biso   1.000  H
  H313     1.0000 0.06200  0.10891  0.69342  Biso   1.000  H
  H314     1.0000 0.04452  0.16852  0.68411  Biso   1.000  H
  C202     1.0000 0.00968  0.11512  0.63560  Biso   1.000  C
  H315     1.0000 0.87800  0.36611  0.56982  Biso   1.000  H
  H316     1.0000 0.85821  0.42171  0.54021  Biso   1.000  H
  C203     1.0000 0.04872  0.13740  0.59530  Biso   1.000  C
  C204     1.0000 0.00210  0.05089  0.63201  Biso   1.000  C
  H317     1.0000 0.97120  0.13302  0.63112  Biso   1.000  H
  H318     1.0000 0.08729  0.12061  0.59940  Biso   1.000  H
  H319     1.0000 0.05232  0.17910  0.59862  Biso   1.000  H
  C205     1.0000 0.02631  0.12328  0.54361  Biso   1.000  C
  H320     1.0000 0.03938  0.03180  0.63730  Biso   1.000  H
  C206     1.0000 0.97849  0.03550  0.58032  Biso   1.000  C
  H321     1.0000 0.97510  0.03771  0.65782  Biso   1.000  H
  H322     1.0000 0.05429  0.13629  0.51850  Biso   1.000  H
  C207     1.0000 0.01701  0.05901  0.53869  Biso   1.000  C
  H323     1.0000 0.98980  0.14360  0.53780  Biso   1.000  H
  H324     1.0000 0.97600  0.99362  0.57722  Biso   1.000  H
  H325     1.0000 0.93941  0.05118  0.57670  Biso   1.000  H
  H326     1.0000 0.05451  0.03949  0.53962  Biso   1.000  H
  H327     1.0000 0.99901  0.05080  0.50630  Biso   1.000  H
  C208     1.0000 0.65420  0.42082  0.58450  Biso   1.000  C
  C209     1.0000 0.65321  0.41848  0.64114  Biso   1.000  C
  H328     1.0000 0.62039  0.44250  0.57300  Biso   1.000  H
  H329     1.0000 0.65060  0.38158  0.57160  Biso   1.000  H
  C210     1.0000 0.70819  0.44790  0.56261  Biso   1.000  C
  C211     1.0000 0.59519  0.39935  0.66063  Biso   1.000  C
  C212     1.0000 0.70090  0.38371  0.66421  Biso   1.000  C
  H330     1.0000 0.65870  0.45840  0.65290  Biso   1.000  H
  H331     1.0000 0.70300  0.45220  0.52649  Biso   1.000  H
  H332     1.0000 0.74101  0.42201  0.56801  Biso   1.000  H
  C213     1.0000 0.72250  0.50589  0.58480  Biso   1.000  C
  C214     1.0000 0.56850  0.35042  0.64292  Biso   1.000  C
  C215     1.0000 0.56648  0.43009  0.69756  Biso   1.000  C
  C216     1.0000 0.72169  0.39867  0.71095  Biso   1.000  C
  C217     1.0000 0.72559  0.33661  0.64159  Biso   1.000  C
  H333     1.0000 0.73428  0.50108  0.61929  Biso   1.000  H
  H334     1.0000 0.75382  0.52332  0.56601  Biso   1.000  H
  H335     1.0000 0.68861  0.53042  0.58332  Biso   1.000  H
  C218     1.0000 0.51540  0.33112  0.65944  Biso   1.000  C
  H336     1.0000 0.58769  0.32900  0.61822  Biso   1.000  H
  C219     1.0000 0.51412  0.41189  0.71590  Biso   1.000  C
  O25      1.0000 0.58821  0.48021  0.71660  Biso   1.000  O
  O26      1.0000 0.69803  0.44463  0.73594  Biso   1.000  O
  C220     1.0000 0.76732  0.36879  0.73339  Biso   1.000  C
  C221     1.0000 0.76861  0.30387  0.66292  Biso   1.000  C
  H337     1.0000 0.71239  0.32619  0.60961  Biso   1.000  H
  C222     1.0000 0.48729  0.27871  0.63730  Biso   1.000  C
  C223     1.0000 0.48952  0.36262  0.69686  Biso   1.000  C
  C224     1.0000 0.48468  0.44250  0.75812  Biso   1.000  C
  H338     1.0000 0.62300  0.47592  0.72341  Biso   1.000  H
  H339     1.0000 0.68312  0.43319  0.76241  Biso   1.000  H
  C225     1.0000 0.78840  0.32083  0.70958  Biso   1.000  C
  C226     1.0000 0.79612  0.39336  0.77890  Biso   1.000  C
  C227     1.0000 0.79372  0.25141  0.63856  Biso   1.000  C
  C228     1.0000 0.48961  0.27951  0.58032  Biso   1.000  C
  H340     1.0000 0.44582  0.28019  0.64662  Biso   1.000  H
  C229     1.0000 0.51159  0.22416  0.65970  Biso   1.000  C
  O27      1.0000 0.43793  0.34804  0.71816  Biso   1.000  O
  N13      1.0000 0.49222  0.40930  0.80501  Biso   1.000  N
  H341     1.0000 0.44329  0.44671  0.75069  Biso   1.000  H
  H342     1.0000 0.50131  0.48102  0.76212  Biso   1.000  H
  O28      1.0000 0.83297  0.29018  0.73025  Biso   1.000  O
  N14      1.0000 0.77161  0.37499  0.82719  Biso   1.000  N
  H343     1.0000 0.79389  0.43532  0.77702  Biso   1.000  H
  H344     1.0000 0.83708  0.38269  0.77820  Biso   1.000  H
  C230     1.0000 0.76492  0.19772  0.65852  Biso   1.000  C
  H345     1.0000 0.83498  0.24950  0.64820  Biso   1.000  H
  C231     1.0000 0.79140  0.25358  0.58184  Biso   1.000  C
  C232     1.0000 0.45490  0.23139  0.55710  Biso   1.000  C
  H346     1.0000 0.53010  0.27620  0.56960  Biso   1.000  H
  H347     1.0000 0.47470  0.31641  0.56831  Biso   1.000  H
  C233     1.0000 0.49059  0.20333  0.70481  Biso   1.000  C
  C234     1.0000 0.55611  0.19407  0.63752  Biso   1.000  C
  H348     1.0000 0.43279  0.31280  0.71542  Biso   1.000  H
  H349     1.0000 0.48258  0.37202  0.79920  Biso   1.000  H
  H350     1.0000 0.53019  0.41032  0.81403  Biso   1.000  H
  C235     1.0000 0.45619  0.43171  0.84730  Biso   1.000  C
  H351     1.0000 0.82671  0.28542  0.76049  Biso   1.000  H
  H352     1.0000 0.73231  0.37801  0.82571  Biso   1.000  H
  H353     1.0000 0.78039  0.33729  0.83222  Biso   1.000  H
  C236     1.0000 0.79312  0.40900  0.87056  Biso   1.000  C
  C237     1.0000 0.71230  0.18038  0.64040  Biso   1.000  C
  C238     1.0000 0.79110  0.16392  0.69498  Biso   1.000  C
  H354     1.0000 0.75108  0.25881  0.57130  Biso   1.000  H
  H355     1.0000 0.81352  0.28700  0.57030  Biso   1.000  H
  C239     1.0000 0.81591  0.19942  0.55681  Biso   1.000  C
  C240     1.0000 0.43052  0.23492  0.50730  Biso   1.000  C
  H356     1.0000 0.41359  0.23840  0.56291  Biso   1.000  H
  H357     1.0000 0.46518  0.19509  0.57330  Biso   1.000  H
  C241     1.0000 0.46570  0.22680  0.50272  Biso   1.000  C
  H358     1.0000 0.42259  0.22370  0.57992  Biso   1.000  H
  H359     1.0000 0.47971  0.19730  0.55770  Biso   1.000  H
  O29      1.0000 0.44727  0.23364  0.72755  Biso   1.000  O
  C242     1.0000 0.51189  0.15321  0.72581  Biso   1.000  C
  C243     1.0000 0.57899  0.14382  0.65671  Biso   1.000  C
  H360     1.0000 0.57180  0.20852  0.60761  Biso   1.000  H
  H361     1.0000 0.45918  0.47409  0.84782  Biso   1.000  H
  C244     1.0000 0.48151  0.40832  0.89570  Biso   1.000  C
  C245     1.0000 0.39461  0.41559  0.84002  Biso   1.000  C
  H362     1.0000 0.78159  0.44960  0.86590  Biso   1.000  H
  C246     1.0000 0.76449  0.38660  0.91700  Biso   1.000  C
  C247     1.0000 0.85842  0.40611  0.87451  Biso   1.000  C
  C248     1.0000 0.68462  0.13064  0.65556  Biso   1.000  C
  H363     1.0000 0.69392  0.20359  0.61641  Biso   1.000  H
  C249     1.0000 0.76462  0.11410  0.71169  Biso   1.000  C
  O30      1.0000 0.84368  0.17502  0.71483  Biso   1.000  O
  H364     1.0000 0.82290  0.20822  0.52161  Biso   1.000  H
  H365     1.0000 0.78592  0.16962  0.55799  Biso   1.000  H
  C250     1.0000 0.86901  0.17540  0.57770  Biso   1.000  C
  H366     1.0000 0.43682  0.20189  0.48771  Biso   1.000  H
  H367     1.0000 0.46330  0.26459  0.48760  Biso   1.000  H
  H368     1.0000 0.41912  0.27420  0.50039  Biso   1.000  H
  H369     1.0000 0.45918  0.22280  0.48301  Biso   1.000  H
  H370     1.0000 0.39688  0.21009  0.50512  Biso   1.000  H
  H371     1.0000 0.50392  0.21081  0.49702  Biso   1.000  H
  H372     1.0000 0.45589  0.23938  0.75731  Biso   1.000  H
  C251     1.0000 0.55448  0.12396  0.70100  Biso   1.000  C
  C252     1.0000 0.48892  0.12792  0.77332  Biso   1.000  C
  C253     1.0000 0.62780  0.11240  0.63264  Biso   1.000  C
  H373     1.0000 0.48511  0.36641  0.89330  Biso   1.000  H
  H374     1.0000 0.52029  0.42431  0.90080  Biso   1.000  H
  C254     1.0000 0.44299  0.42380  0.93981  Biso   1.000  C
  C255     1.0000 0.35772  0.43370  0.88343  Biso   1.000  C
  H375     1.0000 0.38008  0.43379  0.80952  Biso   1.000  H
  H376     1.0000 0.39170  0.37389  0.83569  Biso   1.000  H
  H377     1.0000 0.72229  0.38932  0.91352  Biso   1.000  H
  H378     1.0000 0.77469  0.34621  0.92180  Biso   1.000  H
  C256     1.0000 0.78399  0.42129  0.96170  Biso   1.000  C
  C257     1.0000 0.87972  0.43991  0.91992  Biso   1.000  C
  H379     1.0000 0.87059  0.36590  0.87751  Biso   1.000  H
  H380     1.0000 0.87582  0.42201  0.84412  Biso   1.000  H
  C258     1.0000 0.71132  0.09837  0.69231  Biso   1.000  C
  C259     1.0000 0.79659  0.07924  0.74951  Biso   1.000  C
  H381     1.0000 0.84912  0.21030  0.71550  Biso   1.000  H
  H382     1.0000 0.86022  0.15508  0.60842  Biso   1.000  H
  H383     1.0000 0.88602  0.14892  0.55381  Biso   1.000  H
  H384     1.0000 0.89622  0.20610  0.58461  Biso   1.000  H
  O31      1.0000 0.57012  0.07346  0.72259  Biso   1.000  O
  N15      1.0000 0.53130  0.13170  0.81429  Biso   1.000  N
  H385     1.0000 0.47890  0.08749  0.76763  Biso   1.000  H
  H386     1.0000 0.45349  0.14828  0.78301  Biso   1.000  H
  H387     1.0000 0.62262  0.07129  0.64081  Biso   1.000  H
  C260     1.0000 0.63029  0.11661  0.57603  Biso   1.000  C
  H388     1.0000 0.44560  0.46520  0.94591  Biso   1.000  H
  H389     1.0000 0.45721  0.40412  0.96972  Biso   1.000  H
  C261     1.0000 0.38141  0.40811  0.93153  Biso   1.000  C
  H390     1.0000 0.35729  0.47562  0.88579  Biso   1.000  H
  H391     1.0000 0.31782  0.42052  0.87810  Biso   1.000  H
  H392     1.0000 0.77101  0.46121  0.95811  Biso   1.000  H
  H393     1.0000 0.76659  0.40560  0.99212  Biso   1.000  H
  C262     1.0000 0.85019  0.41959  0.96602  Biso   1.000  C
  H394     1.0000 0.87171  0.48089  0.91500  Biso   1.000  H
  H395     1.0000 0.92158  0.43502  0.92350  Biso   1.000  H
  O32      1.0000 0.68436  0.04906  0.70792  Biso   1.000  O
  N16      1.0000 0.79312  0.10479  0.80013  Biso   1.000  N
  H396     1.0000 0.83730  0.07631  0.73960  Biso   1.000  H
  H397     1.0000 0.78039  0.04030  0.75040  Biso   1.000  H
  H398     1.0000 0.60500  0.06730  0.71720  Biso   1.000  H
  H399     1.0000 0.56198  0.10891  0.80660  Biso   1.000  H
  H400     1.0000 0.54450  0.16852  0.81591  Biso   1.000  H
  C263     1.0000 0.50971  0.11512  0.86442  Biso   1.000  C
  H401     1.0000 0.66602  0.09829  0.56439  Biso   1.000  H
  H402     1.0000 0.63200  0.15729  0.56661  Biso   1.000  H
  C264     1.0000 0.58079  0.08978  0.55052  Biso   1.000  C
  H403     1.0000 0.37798  0.36611  0.93020  Biso   1.000  H
  H404     1.0000 0.35819  0.42171  0.95981  Biso   1.000  H
  H405     1.0000 0.86241  0.38010  0.97312  Biso   1.000  H
  H406     1.0000 0.86232  0.44361  0.99420  Biso   1.000  H
  H407     1.0000 0.68801  0.04578  0.73871  Biso   1.000  H
  H408     1.0000 0.80439  0.14220  0.79861  Biso   1.000  H
  H409     1.0000 0.75562  0.10390  0.81070  Biso   1.000  H
  C265     1.0000 0.83040  0.07350  0.83706  Biso   1.000  C
  H410     1.0000 0.47118  0.13302  0.86889  Biso   1.000  H
  C266     1.0000 0.54870  0.13740  0.90472  Biso   1.000  C
  C267     1.0000 0.50212  0.05089  0.86801  Biso   1.000  C
  H411     1.0000 0.57171  0.05310  0.56661  Biso   1.000  H
  H412     1.0000 0.54681  0.11478  0.55341  Biso   1.000  H
  C268     1.0000 0.59429  0.07958  0.49532  Biso   1.000  C
  H413     1.0000 0.82710  0.03180  0.83041  Biso   1.000  H
  C269     1.0000 0.80880  0.08481  0.88882  Biso   1.000  C
  C270     1.0000 0.89249  0.09072  0.83111  Biso   1.000  C
  H414     1.0000 0.58731  0.12061  0.90062  Biso   1.000  H
  H415     1.0000 0.55230  0.17910  0.90139  Biso   1.000  H
  C271     1.0000 0.52629  0.12328  0.95641  Biso   1.000  C
  C272     1.0000 0.47851  0.03550  0.91970  Biso   1.000  C
  H416     1.0000 0.47508  0.03771  0.84220  Biso   1.000  H
  H417     1.0000 0.53940  0.03180  0.86272  Biso   1.000  H
  H418     1.0000 0.63581  0.07639  0.49081  Biso   1.000  H
  H419     1.0000 0.57582  0.04438  0.48442  Biso   1.000  H
  H420     1.0000 0.57981  0.11159  0.47569  Biso   1.000  H
  H421     1.0000 0.81099  0.12600  0.89611  Biso   1.000  H
  H422     1.0000 0.76831  0.07278  0.89160  Biso   1.000  H
  C273     1.0000 0.84561  0.05169  0.92572  Biso   1.000  C
  C274     1.0000 0.92990  0.05909  0.86901  Biso   1.000  C
  H423     1.0000 0.90560  0.08149  0.79720  Biso   1.000  H
  H424     1.0000 0.89630  0.13221  0.83603  Biso   1.000  H
  H425     1.0000 0.55431  0.13629  0.98151  Biso   1.000  H
  H426     1.0000 0.48982  0.14360  0.96221  Biso   1.000  H
  C275     1.0000 0.51699  0.05901  0.96133  Biso   1.000  C
  H427     1.0000 0.43939  0.05118  0.92332  Biso   1.000  H
  H428     1.0000 0.47598  0.99362  0.92280  Biso   1.000  H
  H429     1.0000 0.84132  0.01050  0.91951  Biso   1.000  H
  H430     1.0000 0.83190  0.05960  0.95970  Biso   1.000  H
  C276     1.0000 0.90809  0.06789  0.92162  Biso   1.000  C
  H431     1.0000 0.96979  0.07312  0.86660  Biso   1.000  H
  H432     1.0000 0.92990  0.01798  0.86120  Biso   1.000  H
  H433     1.0000 0.55448  0.03949  0.96040  Biso   1.000  H
  H434     1.0000 0.49899  0.05080  0.99371  Biso   1.000  H
  H435     1.0000 0.91301  0.10819  0.93112  Biso   1.000  H
  H436     1.0000 0.93093  0.04438  0.94473  Biso   1.000  H
  C277     1.0000 0.34580  0.57922  0.41550  Biso   1.000  C
  C278     1.0000 0.34679  0.58152  0.35889  Biso   1.000  C
  H437     1.0000 0.37961  0.55750  0.42700  Biso   1.000  H
  H438     1.0000 0.34940  0.61842  0.42840  Biso   1.000  H
  C279     1.0000 0.29181  0.55210  0.43739  Biso   1.000  C
  C280     1.0000 0.29910  0.61629  0.33582  Biso   1.000  C
  C281     1.0000 0.40481  0.60065  0.33937  Biso   1.000  C
  H439     1.0000 0.34130  0.54160  0.34710  Biso   1.000  H
  H440     1.0000 0.29700  0.54780  0.47351  Biso   1.000  H
  H441     1.0000 0.25899  0.57799  0.43199  Biso   1.000  H
  C282     1.0000 0.27750  0.49411  0.41520  Biso   1.000  C
  C283     1.0000 0.27831  0.60133  0.28905  Biso   1.000  C
  C284     1.0000 0.27441  0.66339  0.35841  Biso   1.000  C
  C285     1.0000 0.43150  0.64958  0.35708  Biso   1.000  C
  C286     1.0000 0.43352  0.56991  0.30244  Biso   1.000  C
  H442     1.0000 0.26572  0.49892  0.38071  Biso   1.000  H
  H443     1.0000 0.24622  0.47672  0.43402  Biso   1.000  H
  H444     1.0000 0.31139  0.46958  0.41672  Biso   1.000  H
  O33      1.0000 0.30197  0.55537  0.26406  Biso   1.000  O
  C287     1.0000 0.23272  0.63121  0.26661  Biso   1.000  C
  C288     1.0000 0.23139  0.69613  0.33708  Biso   1.000  C
  H445     1.0000 0.28761  0.67381  0.39039  Biso   1.000  H
  C289     1.0000 0.48460  0.66888  0.34059  Biso   1.000  C
  H446     1.0000 0.41231  0.67100  0.38182  Biso   1.000  H
  O34      1.0000 0.41179  0.51983  0.28340  Biso   1.000  O
  C290     1.0000 0.48588  0.58811  0.28414  Biso   1.000  C
  H447     1.0000 0.31692  0.56681  0.23759  Biso   1.000  H
  C291     1.0000 0.21160  0.67917  0.29042  Biso   1.000  C
  C292     1.0000 0.20388  0.60664  0.22110  Biso   1.000  C
  C293     1.0000 0.20628  0.74859  0.36148  Biso   1.000  C
  C294     1.0000 0.51052  0.63742  0.30314  Biso   1.000  C
  C295     1.0000 0.51271  0.72129  0.36270  Biso   1.000  C
  H448     1.0000 0.37700  0.52413  0.27659  Biso   1.000  H
  C296     1.0000 0.51532  0.55750  0.24191  Biso   1.000  C
  O35      1.0000 0.16703  0.70982  0.26975  Biso   1.000  O
  N17      1.0000 0.22839  0.62501  0.17285  Biso   1.000  N
  H449     1.0000 0.20611  0.56472  0.22302  Biso   1.000  H
  H450     1.0000 0.16292  0.61731  0.22180  Biso   1.000  H
  C297     1.0000 0.23512  0.80228  0.34152  Biso   1.000  C
  H451     1.0000 0.16502  0.75050  0.35180  Biso   1.000  H
  C298     1.0000 0.20860  0.74642  0.41816  Biso   1.000  C
  O36      1.0000 0.56207  0.65200  0.28188  Biso   1.000  O
  H452     1.0000 0.55418  0.71981  0.35342  Biso   1.000  H
  C299     1.0000 0.51039  0.72049  0.41971  Biso   1.000  C
  C300     1.0000 0.48841  0.77584  0.34030  Biso   1.000  C
  N18      1.0000 0.50782  0.59070  0.19503  Biso   1.000  N
  H453     1.0000 0.55671  0.55329  0.24931  Biso   1.000  H
  H454     1.0000 0.49869  0.51902  0.23792  Biso   1.000  H
  H455     1.0000 0.17329  0.71462  0.23951  Biso   1.000  H
  H456     1.0000 0.26769  0.62199  0.17429  Biso   1.000  H
  H457     1.0000 0.21961  0.66271  0.16782  Biso   1.000  H
  C301     1.0000 0.20688  0.59100  0.12944  Biso   1.000  C
  C302     1.0000 0.20890  0.83608  0.30502  Biso   1.000  C
  C303     1.0000 0.28770  0.81962  0.35960  Biso   1.000  C
  H458     1.0000 0.24892  0.74119  0.42870  Biso   1.000  H
  H459     1.0000 0.18648  0.71300  0.42970  Biso   1.000  H
  C304     1.0000 0.18409  0.80062  0.44319  Biso   1.000  C
  H460     1.0000 0.56721  0.68720  0.28462  Biso   1.000  H
  H461     1.0000 0.46990  0.72380  0.43040  Biso   1.000  H
  H462     1.0000 0.52530  0.68359  0.43169  Biso   1.000  H
  C305     1.0000 0.54510  0.76861  0.44290  Biso   1.000  C
  C306     1.0000 0.50941  0.79667  0.29519  Biso   1.000  C
  C307     1.0000 0.44389  0.80593  0.36248  Biso   1.000  C
  H463     1.0000 0.51742  0.62802  0.20080  Biso   1.000  H
  H464     1.0000 0.46981  0.58972  0.18601  Biso   1.000  H
  C308     1.0000 0.54381  0.56829  0.15270  Biso   1.000  C
  H465     1.0000 0.21841  0.55040  0.13410  Biso   1.000  H
  C309     1.0000 0.23551  0.61340  0.08300  Biso   1.000  C
  C310     1.0000 0.14162  0.59389  0.12549  Biso   1.000  C
  O37      1.0000 0.15632  0.82498  0.28517  Biso   1.000  O
  C311     1.0000 0.23542  0.88590  0.28831  Biso   1.000  C
  C312     1.0000 0.31542  0.86940  0.34447  Biso   1.000  C
  H466     1.0000 0.30608  0.79641  0.38359  Biso   1.000  H
  H467     1.0000 0.17710  0.79182  0.47839  Biso   1.000  H
  H468     1.0000 0.21408  0.83042  0.44201  Biso   1.000  H
  C313     1.0000 0.13099  0.82460  0.42230  Biso   1.000  C
  H469     1.0000 0.58641  0.76160  0.43709  Biso   1.000  H
  H470     1.0000 0.53482  0.80491  0.42670  Biso   1.000  H
  C314     1.0000 0.53430  0.77320  0.49732  Biso   1.000  C
  H471     1.0000 0.57741  0.77630  0.42012  Biso   1.000  H
  H472     1.0000 0.52029  0.80270  0.44230  Biso   1.000  H
  C315     1.0000 0.56948  0.76512  0.49270  Biso   1.000  C
  O38      1.0000 0.55273  0.76636  0.27245  Biso   1.000  O
  C316     1.0000 0.48811  0.84679  0.27419  Biso   1.000  C
  C317     1.0000 0.42101  0.85618  0.34329  Biso   1.000  C
  H473     1.0000 0.42820  0.79152  0.39239  Biso   1.000  H
  H474     1.0000 0.54082  0.52591  0.15222  Biso   1.000  H
  C318     1.0000 0.51849  0.59172  0.10430  Biso   1.000  C
  C319     1.0000 0.60539  0.58441  0.16002  Biso   1.000  C
  H475     1.0000 0.27771  0.61072  0.08652  Biso   1.000  H
  H476     1.0000 0.22531  0.65379  0.07820  Biso   1.000  H
  C320     1.0000 0.21601  0.57871  0.03830  Biso   1.000  C
  C321     1.0000 0.12028  0.56009  0.08008  Biso   1.000  C
  H477     1.0000 0.12941  0.63410  0.12249  Biso   1.000  H
  H478     1.0000 0.12418  0.57799  0.15591  Biso   1.000  H
  H479     1.0000 0.15092  0.78970  0.28450  Biso   1.000  H
  C322     1.0000 0.28868  0.90167  0.30772  Biso   1.000  C
  C323     1.0000 0.20341  0.92076  0.25049  Biso   1.000  C
  C324     1.0000 0.37220  0.88760  0.36736  Biso   1.000  C
  H480     1.0000 0.13982  0.84492  0.39161  Biso   1.000  H
  H481     1.0000 0.11398  0.85112  0.44622  Biso   1.000  H
  H482     1.0000 0.10378  0.79390  0.41539  Biso   1.000  H
  H483     1.0000 0.49612  0.78923  0.50301  Biso   1.000  H
  H484     1.0000 0.56318  0.79811  0.51229  Biso   1.000  H
  H485     1.0000 0.53670  0.73541  0.51240  Biso   1.000  H
  H486     1.0000 0.54082  0.77720  0.51699  Biso   1.000  H
  H487     1.0000 0.58092  0.72580  0.49961  Biso   1.000  H
  H488     1.0000 0.60312  0.78991  0.49492  Biso   1.000  H
  H489     1.0000 0.54411  0.76062  0.24269  Biso   1.000  H
  C325     1.0000 0.44552  0.87604  0.29900  Biso   1.000  C
  C326     1.0000 0.51112  0.87213  0.22672  Biso   1.000  C
  H490     1.0000 0.51489  0.63359  0.10670  Biso   1.000  H
  H491     1.0000 0.47971  0.57569  0.09920  Biso   1.000  H
  C327     1.0000 0.55701  0.57620  0.06019  Biso   1.000  C
  C328     1.0000 0.64228  0.56630  0.11661  Biso   1.000  C
  H492     1.0000 0.61992  0.56621  0.19052  Biso   1.000  H
  H493     1.0000 0.60830  0.62611  0.16431  Biso   1.000  H
  H494     1.0000 0.22899  0.53879  0.04189  Biso   1.000  H
  H495     1.0000 0.23341  0.59440  0.00791  Biso   1.000  H
  C329     1.0000 0.14981  0.58041  0.03401  Biso   1.000  C
  H496     1.0000 0.12829  0.51911  0.08500  Biso   1.000  H
  H497     1.0000 0.07842  0.56502  0.07650  Biso   1.000  H
  O39      1.0000 0.31564  0.95094  0.29212  Biso   1.000  O
  N19      1.0000 0.20688  0.89521  0.19991  Biso   1.000  N
  H498     1.0000 0.16270  0.92369  0.26040  Biso   1.000  H
  H499     1.0000 0.21961  0.95970  0.24960  Biso   1.000  H
  H500     1.0000 0.37738  0.92871  0.35919  Biso   1.000  H
  C330     1.0000 0.36971  0.88339  0.42397  Biso   1.000  C
  O40      1.0000 0.42988  0.92658  0.27744  Biso   1.000  O
  N20      1.0000 0.46870  0.86830  0.18571  Biso   1.000  N
  H501     1.0000 0.52110  0.91251  0.23241  Biso   1.000  H
  H502     1.0000 0.54651  0.85172  0.21699  Biso   1.000  H
  H503     1.0000 0.55440  0.53480  0.05409  Biso   1.000  H
  H504     1.0000 0.54279  0.59588  0.03032  Biso   1.000  H
  C331     1.0000 0.61859  0.59189  0.06851  Biso   1.000  C
  H505     1.0000 0.64271  0.52442  0.11421  Biso   1.000  H
  H506     1.0000 0.68222  0.57952  0.12190  Biso   1.000  H
  H507     1.0000 0.13759  0.61990  0.02692  Biso   1.000  H
  H508     1.0000 0.13772  0.55639  0.00580  Biso   1.000  H
  H509     1.0000 0.31199  0.95422  0.26129  Biso   1.000  H
  H510     1.0000 0.19561  0.85780  0.20139  Biso   1.000  H
  H511     1.0000 0.24442  0.89610  0.18930  Biso   1.000  H
  C332     1.0000 0.16960  0.92650  0.16294  Biso   1.000  C
  H512     1.0000 0.33402  0.90171  0.43561  Biso   1.000  H
  H513     1.0000 0.36800  0.84271  0.43339  Biso   1.000  H
  C333     1.0000 0.41921  0.91022  0.44951  Biso   1.000  C
  H514     1.0000 0.39500  0.93270  0.28280  Biso   1.000  H
  H515     1.0000 0.43802  0.89113  0.19340  Biso   1.000  H
  H516     1.0000 0.45550  0.83153  0.18409  Biso   1.000  H
  C334     1.0000 0.49029  0.88492  0.13562  Biso   1.000  C
  H517     1.0000 0.62202  0.63389  0.06980  Biso   1.000  H
  H518     1.0000 0.64181  0.57829  0.04019  Biso   1.000  H
  H519     1.0000 0.17290  0.96820  0.16959  Biso   1.000  H
  C335     1.0000 0.19120  0.91519  0.11121  Biso   1.000  C
  C336     1.0000 0.10751  0.90932  0.16889  Biso   1.000  C
  H520     1.0000 0.42829  0.94690  0.43339  Biso   1.000  H
  H521     1.0000 0.45319  0.88522  0.44659  Biso   1.000  H
  C337     1.0000 0.40571  0.92042  0.50471  Biso   1.000  C
  H522     1.0000 0.52882  0.86702  0.13111  Biso   1.000  H
  C338     1.0000 0.45130  0.86260  0.09532  Biso   1.000  C
  C339     1.0000 0.49792  0.94911  0.13199  Biso   1.000  C
  H523     1.0000 0.18901  0.87400  0.10389  Biso   1.000  H
  H524     1.0000 0.23169  0.92722  0.10840  Biso   1.000  H
  C340     1.0000 0.15439  0.94831  0.07432  Biso   1.000  C
  C341     1.0000 0.07010  0.94091  0.13099  Biso   1.000  C
  H525     1.0000 0.09440  0.91851  0.20280  Biso   1.000  H
  H526     1.0000 0.10370  0.86779  0.16401  Biso   1.000  H
  H527     1.0000 0.36419  0.92361  0.50919  Biso   1.000  H
  H528     1.0000 0.42422  0.95562  0.51562  Biso   1.000  H
  H529     1.0000 0.42019  0.88841  0.52431  Biso   1.000  H
  H530     1.0000 0.41269  0.87939  0.09942  Biso   1.000  H
  H531     1.0000 0.44770  0.82090  0.09861  Biso   1.000  H
  C342     1.0000 0.47371  0.87672  0.04359  Biso   1.000  C
  C343     1.0000 0.52149  0.96450  0.08030  Biso   1.000  C
  H532     1.0000 0.52492  0.96229  0.15780  Biso   1.000  H
  H533     1.0000 0.46060  0.96820  0.13732  Biso   1.000  H
  H534     1.0000 0.15872  0.98950  0.08049  Biso   1.000  H
  H535     1.0000 0.16810  0.94040  0.04030  Biso   1.000  H
  C344     1.0000 0.09191  0.93211  0.07842  Biso   1.000  C
  H536     1.0000 0.03021  0.92692  0.13340  Biso   1.000  H
  H537     1.0000 0.07010  0.98202  0.13880  Biso   1.000  H
  H538     1.0000 0.44569  0.86371  0.01849  Biso   1.000  H
  H539     1.0000 0.51022  0.85640  0.03779  Biso   1.000  H
  C345     1.0000 0.48301  0.94099  0.03871  Biso   1.000  C
  H540     1.0000 0.56061  0.94882  0.07672  Biso   1.000  H
  H541     1.0000 0.52402  0.00642  0.07720  Biso   1.000  H
  H542     1.0000 0.08699  0.89181  0.06892  Biso   1.000  H
  H543     1.0000 0.06912  0.95562  0.05531  Biso   1.000  H
  H544     1.0000 0.44552  0.96051  0.03960  Biso   1.000  H
  H545     1.0000 0.50101  0.94920  0.00629  Biso   1.000  H
  C346     1.0000 0.63102  0.67542  0.57770  Biso   1.000  C
  C347     1.0000 0.68411  0.69940  0.55681  Biso   1.000  C
  H546     1.0000 0.63980  0.65510  0.60842  Biso   1.000  H
  H547     1.0000 0.61400  0.64890  0.55381  Biso   1.000  H
  H548     1.0000 0.60381  0.70612  0.58461  Biso   1.000  H
  C348     1.0000 0.70862  0.75360  0.58184  Biso   1.000  C
  H549     1.0000 0.67712  0.70820  0.52161  Biso   1.000  H
  H550     1.0000 0.71410  0.66960  0.55799  Biso   1.000  H
  C349     1.0000 0.70630  0.75143  0.63856  Biso   1.000  C
  H551     1.0000 0.74890  0.75879  0.57130  Biso   1.000  H
  H552     1.0000 0.68651  0.78702  0.57030  Biso   1.000  H
  C350     1.0000 0.73510  0.69770  0.65852  Biso   1.000  C
  H553     1.0000 0.66500  0.74952  0.64820  Biso   1.000  H
  C351     1.0000 0.73141  0.80389  0.66292  Biso   1.000  C
  C352     1.0000 0.70892  0.66395  0.69498  Biso   1.000  C
  C353     1.0000 0.78772  0.68040  0.64040  Biso   1.000  C
  C354     1.0000 0.71162  0.82086  0.70958  Biso   1.000  C
  C355     1.0000 0.77439  0.83663  0.64159  Biso   1.000  C
  O41      1.0000 0.65634  0.67504  0.71483  Biso   1.000  O
  C356     1.0000 0.73540  0.61412  0.71169  Biso   1.000  C
  C357     1.0000 0.81540  0.63062  0.65556  Biso   1.000  C
  H554     1.0000 0.80610  0.70361  0.61641  Biso   1.000  H
  O42      1.0000 0.66705  0.79021  0.73025  Biso   1.000  O
  C358     1.0000 0.73270  0.86877  0.73339  Biso   1.000  C
  C359     1.0000 0.79912  0.88373  0.66421  Biso   1.000  C
  H555     1.0000 0.78759  0.82621  0.60961  Biso   1.000  H
  H556     1.0000 0.65090  0.71033  0.71550  Biso   1.000  H
  C360     1.0000 0.78870  0.59835  0.69231  Biso   1.000  C
  C361     1.0000 0.70339  0.57926  0.74951  Biso   1.000  C
  C362     1.0000 0.87222  0.61242  0.63264  Biso   1.000  C
  H557     1.0000 0.67331  0.78540  0.76049  Biso   1.000  H
  C363     1.0000 0.77829  0.89869  0.71095  Biso   1.000  C
  C364     1.0000 0.70390  0.89334  0.77890  Biso   1.000  C
  C365     1.0000 0.84681  0.91851  0.64114  Biso   1.000  C
  O43      1.0000 0.81566  0.54908  0.70792  Biso   1.000  O
  N21      1.0000 0.70690  0.60481  0.80013  Biso   1.000  N
  H558     1.0000 0.66268  0.57629  0.73960  Biso   1.000  H
  H559     1.0000 0.71959  0.54032  0.75040  Biso   1.000  H
  C366     1.0000 0.92098  0.64384  0.65671  Biso   1.000  C
  H560     1.0000 0.87740  0.57131  0.64081  Biso   1.000  H
  C367     1.0000 0.86969  0.61659  0.57603  Biso   1.000  C
  O44      1.0000 0.80199  0.94465  0.73594  Biso   1.000  O
  N22      1.0000 0.72841  0.87497  0.82719  Biso   1.000  N
  H561     1.0000 0.70609  0.93530  0.77702  Biso   1.000  H
  H562     1.0000 0.66290  0.88271  0.77820  Biso   1.000  H
  C368     1.0000 0.90479  0.89938  0.66063  Biso   1.000  C
  H563     1.0000 0.84132  0.95842  0.65290  Biso   1.000  H
  C369     1.0000 0.84582  0.92080  0.58450  Biso   1.000  C
  H564     1.0000 0.81202  0.54581  0.73871  Biso   1.000  H
  H565     1.0000 0.69559  0.64222  0.79861  Biso   1.000  H
  H566     1.0000 0.74440  0.60392  0.81070  Biso   1.000  H
  C370     1.0000 0.66962  0.57352  0.83706  Biso   1.000  C
  C371     1.0000 0.94549  0.62394  0.70100  Biso   1.000  C
  C372     1.0000 0.94391  0.69409  0.63752  Biso   1.000  C
  H567     1.0000 0.83400  0.59831  0.56439  Biso   1.000  H
  H568     1.0000 0.86802  0.65731  0.56661  Biso   1.000  H
  C373     1.0000 0.91918  0.58981  0.55052  Biso   1.000  C
  H569     1.0000 0.81690  0.93321  0.76241  Biso   1.000  H
  H570     1.0000 0.76771  0.87799  0.82571  Biso   1.000  H
  H571     1.0000 0.71959  0.83731  0.83222  Biso   1.000  H
  C374     1.0000 0.70690  0.90903  0.87056  Biso   1.000  C
  C375     1.0000 0.93153  0.85044  0.64292  Biso   1.000  C
  C376     1.0000 0.93350  0.93007  0.69756  Biso   1.000  C
  H572     1.0000 0.87959  0.94252  0.57300  Biso   1.000  H
  H573     1.0000 0.84942  0.88161  0.57160  Biso   1.000  H
  C377     1.0000 0.79179  0.94792  0.56261  Biso   1.000  C
  H574     1.0000 0.67292  0.53182  0.83041  Biso   1.000  H
  C378     1.0000 0.69122  0.58479  0.88882  Biso   1.000  C
  C379     1.0000 0.60749  0.59070  0.83111  Biso   1.000  C
  O45      1.0000 0.92985  0.57344  0.72259  Biso   1.000  O
  C380     1.0000 0.98809  0.65319  0.72581  Biso   1.000  C
  C381     1.0000 0.98839  0.72418  0.65970  Biso   1.000  C
  H575     1.0000 0.92818  0.70850  0.60761  Biso   1.000  H
  H576     1.0000 0.92831  0.55312  0.56661  Biso   1.000  H
  H577     1.0000 0.95321  0.61480  0.55341  Biso   1.000  H
  C382     1.0000 0.90569  0.57960  0.49532  Biso   1.000  C
  H578     1.0000 0.71839  0.94962  0.86590  Biso   1.000  H
  C383     1.0000 0.73548  0.88662  0.91700  Biso   1.000  C
  C384     1.0000 0.64160  0.90609  0.87451  Biso   1.000  C
  C385     1.0000 0.98462  0.83114  0.65944  Biso   1.000  C
  H579     1.0000 0.91229  0.82902  0.61822  Biso   1.000  H
  O46      1.0000 0.91181  0.98019  0.71660  Biso   1.000  O
  C386     1.0000 0.98590  0.91192  0.71590  Biso   1.000  C
  H580     1.0000 0.79702  0.95222  0.52649  Biso   1.000  H
  H581     1.0000 0.75901  0.92199  0.56801  Biso   1.000  H
  C387     1.0000 0.77752  0.00591  0.58480  Biso   1.000  C
  H582     1.0000 0.68899  0.62603  0.89611  Biso   1.000  H
  H583     1.0000 0.73171  0.57280  0.89160  Biso   1.000  H
  C388     1.0000 0.65441  0.55172  0.92572  Biso   1.000  C
  C389     1.0000 0.57008  0.55911  0.86901  Biso   1.000  C
  H584     1.0000 0.59442  0.58152  0.79720  Biso   1.000  H
  H585     1.0000 0.60372  0.63219  0.83603  Biso   1.000  H
  H586     1.0000 0.89502  0.56732  0.71720  Biso   1.000  H
  C390     1.0000 0.00938  0.70335  0.70481  Biso   1.000  C
  C391     1.0000 0.01110  0.62790  0.77332  Biso   1.000  C
  C392     1.0000 0.01268  0.77873  0.63730  Biso   1.000  C
  H587     1.0000 0.86421  0.57641  0.49081  Biso   1.000  H
  H588     1.0000 0.92420  0.54440  0.48442  Biso   1.000  H
  H589     1.0000 0.92021  0.61161  0.47569  Biso   1.000  H
  H590     1.0000 0.77769  0.88930  0.91352  Biso   1.000  H
  H591     1.0000 0.72529  0.84619  0.92180  Biso   1.000  H
  C393     1.0000 0.71599  0.92131  0.96170  Biso   1.000  C
  C394     1.0000 0.62030  0.93989  0.91992  Biso   1.000  C
  H592     1.0000 0.62939  0.86592  0.87751  Biso   1.000  H
  H593     1.0000 0.62420  0.92199  0.84412  Biso   1.000  H
  C395     1.0000 0.01050  0.86260  0.69686  Biso   1.000  C
  H594     1.0000 0.87702  0.97590  0.72341  Biso   1.000  H
  C396     1.0000 0.01530  0.94252  0.75812  Biso   1.000  C
  H595     1.0000 0.76569  0.00111  0.61929  Biso   1.000  H
  H596     1.0000 0.74620  0.02330  0.56601  Biso   1.000  H
  H597     1.0000 0.81142  0.03040  0.58332  Biso   1.000  H
  H598     1.0000 0.65870  0.51052  0.91951  Biso   1.000  H
  H599     1.0000 0.66812  0.55962  0.95970  Biso   1.000  H
  C397     1.0000 0.59189  0.56791  0.92162  Biso   1.000  C
  H600     1.0000 0.53019  0.57310  0.86660  Biso   1.000  H
  H601     1.0000 0.57008  0.51800  0.86120  Biso   1.000  H
  O47      1.0000 0.05275  0.73366  0.72755  Biso   1.000  O
  N23      1.0000 0.96872  0.63172  0.81429  Biso   1.000  N
  H602     1.0000 0.02108  0.58751  0.76763  Biso   1.000  H
  H603     1.0000 0.04649  0.64830  0.78301  Biso   1.000  H
  H604     1.0000 0.05421  0.78022  0.64662  Biso   1.000  H
  C398     1.0000 0.01041  0.77949  0.58032  Biso   1.000  C
  H605     1.0000 0.72901  0.96119  0.95811  Biso   1.000  H
  H606     1.0000 0.73338  0.90562  0.99212  Biso   1.000  H
  C399     1.0000 0.64978  0.91961  0.96602  Biso   1.000  C
  H607     1.0000 0.62832  0.98091  0.91500  Biso   1.000  H
  H608     1.0000 0.57839  0.93500  0.92350  Biso   1.000  H
  O48      1.0000 0.06205  0.84802  0.71816  Biso   1.000  O
  H609     1.0000 0.99871  0.98100  0.76212  Biso   1.000  H
  N24      1.0000 0.00780  0.90932  0.80501  Biso   1.000  N
  H610     1.0000 0.05669  0.94669  0.75069  Biso   1.000  H
  H611     1.0000 0.58701  0.60821  0.93112  Biso   1.000  H
  H612     1.0000 0.56910  0.54440  0.94473  Biso   1.000  H
  H613     1.0000 0.04409  0.73940  0.75731  Biso   1.000  H
  H614     1.0000 0.93800  0.60889  0.80660  Biso   1.000  H
  H615     1.0000 0.95552  0.66849  0.81591  Biso   1.000  H
  C400     1.0000 0.99032  0.61510  0.86442  Biso   1.000  C
  H616     1.0000 0.96992  0.77622  0.56960  Biso   1.000  H
  H617     1.0000 0.02528  0.81639  0.56831  Biso   1.000  H
  C401     1.0000 0.04512  0.73141  0.55710  Biso   1.000  C
  H618     1.0000 0.63761  0.88012  0.97312  Biso   1.000  H
  H619     1.0000 0.63770  0.94359  0.99420  Biso   1.000  H
  H620     1.0000 0.06719  0.81282  0.71542  Biso   1.000  H
  H621     1.0000 0.96979  0.91030  0.81403  Biso   1.000  H
  H622     1.0000 0.01740  0.87200  0.79920  Biso   1.000  H
  C402     1.0000 0.04379  0.93173  0.84730  Biso   1.000  C
  C403     1.0000 0.95132  0.63742  0.90472  Biso   1.000  C
  C404     1.0000 0.99790  0.55091  0.86801  Biso   1.000  C
  H623     1.0000 0.02880  0.63300  0.86889  Biso   1.000  H
  H624     1.0000 0.08639  0.73843  0.56291  Biso   1.000  H
  H625     1.0000 0.03479  0.69511  0.57330  Biso   1.000  H
  C405     1.0000 0.03428  0.72682  0.50272  Biso   1.000  C
  H626     1.0000 0.07739  0.72372  0.57992  Biso   1.000  H
  H627     1.0000 0.02031  0.69732  0.55770  Biso   1.000  H
  C406     1.0000 0.06950  0.73490  0.50730  Biso   1.000  C
  H628     1.0000 0.04079  0.97411  0.84782  Biso   1.000  H
  C407     1.0000 0.01851  0.90830  0.89570  Biso   1.000  C
  C408     1.0000 0.10541  0.91561  0.84002  Biso   1.000  C
  H629     1.0000 0.91271  0.62058  0.90062  Biso   1.000  H
  H630     1.0000 0.94772  0.67912  0.90139  Biso   1.000  H
  C409     1.0000 0.97369  0.62330  0.95641  Biso   1.000  C
  H631     1.0000 0.96062  0.53182  0.86272  Biso   1.000  H
  C410     1.0000 0.02151  0.53552  0.91970  Biso   1.000  C
  H632     1.0000 0.02490  0.53769  0.84220  Biso   1.000  H
  H633     1.0000 0.99610  0.71079  0.49702  Biso   1.000  H
  H634     1.0000 0.06320  0.70191  0.48771  Biso   1.000  H
  H635     1.0000 0.03668  0.76461  0.48760  Biso   1.000  H
  H636     1.0000 0.04079  0.72282  0.48301  Biso   1.000  H
  H637     1.0000 0.08090  0.77422  0.50039  Biso   1.000  H
  H638     1.0000 0.10310  0.71011  0.50512  Biso   1.000  H
  H639     1.0000 0.97969  0.92429  0.90080  Biso   1.000  H
  H640     1.0000 0.01491  0.86643  0.89330  Biso   1.000  H
  C411     1.0000 0.05699  0.92382  0.93981  Biso   1.000  C
  C412     1.0000 0.14231  0.93372  0.88343  Biso   1.000  C
  H641     1.0000 0.11990  0.93381  0.80952  Biso   1.000  H
  H642     1.0000 0.10828  0.87391  0.83569  Biso   1.000  H
  H643     1.0000 0.94571  0.63631  0.98151  Biso   1.000  H
  C413     1.0000 0.98299  0.55898  0.96133  Biso   1.000  C
  H644     1.0000 0.01020  0.64363  0.96221  Biso   1.000  H
  H645     1.0000 0.02400  0.49360  0.92280  Biso   1.000  H
  H646     1.0000 0.06059  0.55121  0.92332  Biso   1.000  H
  H647     1.0000 0.05442  0.96523  0.94591  Biso   1.000  H
  H648     1.0000 0.04281  0.90409  0.96972  Biso   1.000  H
  C414     1.0000 0.11861  0.90809  0.93153  Biso   1.000  C
  H649     1.0000 0.14269  0.97560  0.88579  Biso   1.000  H
  H650     1.0000 0.18220  0.92050  0.87810  Biso   1.000  H
  H651     1.0000 0.94549  0.53951  0.96040  Biso   1.000  H
  H652     1.0000 0.00099  0.55082  0.99371  Biso   1.000  H
  H653     1.0000 0.12200  0.86609  0.93020  Biso   1.000  H
  H654     1.0000 0.14179  0.92169  0.95981  Biso   1.000  H
  C415     1.0000 0.36898  0.32462  0.42230  Biso   1.000  C
  C416     1.0000 0.31589  0.30060  0.44319  Biso   1.000  C
  H655     1.0000 0.36020  0.34490  0.39161  Biso   1.000  H
  H656     1.0000 0.38600  0.35110  0.44622  Biso   1.000  H
  H657     1.0000 0.39619  0.29388  0.41539  Biso   1.000  H
  C417     1.0000 0.29138  0.24640  0.41816  Biso   1.000  C
  H658     1.0000 0.32292  0.29180  0.47839  Biso   1.000  H
  H659     1.0000 0.28590  0.33040  0.44201  Biso   1.000  H
  C418     1.0000 0.29370  0.24857  0.36148  Biso   1.000  C
  H660     1.0000 0.25110  0.24121  0.42870  Biso   1.000  H
  H661     1.0000 0.31349  0.21298  0.42970  Biso   1.000  H
  C419     1.0000 0.26859  0.19615  0.33708  Biso   1.000  C
  C420     1.0000 0.26490  0.30230  0.34152  Biso   1.000  C
  H662     1.0000 0.33500  0.25052  0.35180  Biso   1.000  H
  C421     1.0000 0.28838  0.17914  0.29042  Biso   1.000  C
  C422     1.0000 0.22561  0.16337  0.35841  Biso   1.000  C
  C423     1.0000 0.29108  0.33605  0.30502  Biso   1.000  C
  C424     1.0000 0.21228  0.31960  0.35960  Biso   1.000  C
  O49      1.0000 0.33295  0.20979  0.26975  Biso   1.000  O
  C425     1.0000 0.26730  0.13123  0.26661  Biso   1.000  C
  C426     1.0000 0.20088  0.11631  0.33582  Biso   1.000  C
  H663     1.0000 0.21241  0.17379  0.39039  Biso   1.000  H
  O50      1.0000 0.34366  0.32500  0.28517  Biso   1.000  O
  C427     1.0000 0.26460  0.38588  0.28831  Biso   1.000  C
  C428     1.0000 0.18460  0.36938  0.34447  Biso   1.000  C
  H664     1.0000 0.19390  0.29639  0.38359  Biso   1.000  H
  H665     1.0000 0.32669  0.21460  0.23951  Biso   1.000  H
  C429     1.0000 0.22171  0.10131  0.28905  Biso   1.000  C
  C430     1.0000 0.29610  0.10666  0.22110  Biso   1.000  C
  C431     1.0000 0.15319  0.08149  0.35889  Biso   1.000  C
  H666     1.0000 0.34910  0.28972  0.28450  Biso   1.000  H
  C432     1.0000 0.21130  0.40165  0.30772  Biso   1.000  C
  C433     1.0000 0.29661  0.42074  0.25049  Biso   1.000  C
  C434     1.0000 0.12778  0.38758  0.36736  Biso   1.000  C
  O51      1.0000 0.19801  0.05535  0.26406  Biso   1.000  O
  N25      1.0000 0.27159  0.12503  0.17285  Biso   1.000  N
  H667     1.0000 0.29391  0.06470  0.22302  Biso   1.000  H
  H668     1.0000 0.33710  0.11729  0.22180  Biso   1.000  H
  C435     1.0000 0.09521  0.10067  0.33937  Biso   1.000  C
  H669     1.0000 0.15872  0.04162  0.34710  Biso   1.000  H
  C436     1.0000 0.15422  0.07920  0.41550  Biso   1.000  C
  O52      1.0000 0.18434  0.45092  0.29212  Biso   1.000  O
  N26      1.0000 0.29310  0.39519  0.19991  Biso   1.000  N
  H670     1.0000 0.33732  0.42371  0.26040  Biso   1.000  H
  H671     1.0000 0.28041  0.45972  0.24960  Biso   1.000  H
  C437     1.0000 0.07902  0.35616  0.34329  Biso   1.000  C
  H672     1.0000 0.12260  0.42869  0.35919  Biso   1.000  H
  C438     1.0000 0.13031  0.38341  0.42397  Biso   1.000  C
  H673     1.0000 0.18310  0.06679  0.23759  Biso   1.000  H
  H674     1.0000 0.23229  0.12201  0.17429  Biso   1.000  H
  H675     1.0000 0.28041  0.16269  0.16782  Biso   1.000  H
  C439     1.0000 0.29310  0.09102  0.12944  Biso   1.000  C
  C440     1.0000 0.06852  0.14960  0.35708  Biso   1.000  C
  C441     1.0000 0.06650  0.06993  0.30244  Biso   1.000  C
  H676     1.0000 0.12041  0.05752  0.42700  Biso   1.000  H
  H677     1.0000 0.15062  0.11839  0.42840  Biso   1.000  H
  C442     1.0000 0.20821  0.05212  0.43739  Biso   1.000  C
  H678     1.0000 0.18798  0.45419  0.26129  Biso   1.000  H
  H679     1.0000 0.30441  0.35782  0.20139  Biso   1.000  H
  H680     1.0000 0.25560  0.39612  0.18930  Biso   1.000  H
  C443     1.0000 0.33042  0.42652  0.16294  Biso   1.000  C
  C444     1.0000 0.05451  0.37606  0.29900  Biso   1.000  C
  C445     1.0000 0.05609  0.30591  0.36248  Biso   1.000  C
  H681     1.0000 0.16600  0.40169  0.43561  Biso   1.000  H
  H682     1.0000 0.13198  0.34269  0.43339  Biso   1.000  H
  C446     1.0000 0.08082  0.41019  0.44951  Biso   1.000  C
  H683     1.0000 0.28161  0.05042  0.13410  Biso   1.000  H
  C447     1.0000 0.26452  0.11342  0.08300  Biso   1.000  C
  C448     1.0000 0.35840  0.09391  0.12549  Biso   1.000  C
  C449     1.0000 0.01538  0.16886  0.34059  Biso   1.000  C
  H684     1.0000 0.08771  0.17098  0.38182  Biso   1.000  H
  O53      1.0000 0.08819  0.01981  0.28340  Biso   1.000  O
  C450     1.0000 0.01410  0.08808  0.28414  Biso   1.000  C
  H685     1.0000 0.20298  0.04778  0.47351  Biso   1.000  H
  H686     1.0000 0.24099  0.07801  0.43199  Biso   1.000  H
  C451     1.0000 0.22252  0.99409  0.41520  Biso   1.000  C
  H687     1.0000 0.32712  0.46822  0.16959  Biso   1.000  H
  C452     1.0000 0.30878  0.41521  0.11121  Biso   1.000  C
  C453     1.0000 0.39251  0.40930  0.16889  Biso   1.000  C
  O54      1.0000 0.07015  0.42656  0.27744  Biso   1.000  O
  C454     1.0000 0.01191  0.34681  0.27419  Biso   1.000  C
  C455     1.0000 0.01161  0.27586  0.34030  Biso   1.000  C
  H688     1.0000 0.07182  0.29150  0.39239  Biso   1.000  H
  H689     1.0000 0.07169  0.44692  0.43339  Biso   1.000  H
  H690     1.0000 0.04679  0.38520  0.44659  Biso   1.000  H
  C456     1.0000 0.09431  0.42040  0.50471  Biso   1.000  C
  H691     1.0000 0.22231  0.11070  0.08652  Biso   1.000  H
  H692     1.0000 0.27471  0.15381  0.07820  Biso   1.000  H
  C457     1.0000 0.28401  0.07869  0.03830  Biso   1.000  C
  C458     1.0000 0.37970  0.06011  0.08008  Biso   1.000  C
  H693     1.0000 0.37061  0.13408  0.12249  Biso   1.000  H
  H694     1.0000 0.37580  0.07801  0.15591  Biso   1.000  H
  C459     1.0000 0.98950  0.13740  0.30314  Biso   1.000  C
  C460     1.0000 0.98732  0.22132  0.36270  Biso   1.000  C
  H695     1.0000 0.12298  0.02410  0.27659  Biso   1.000  H
  C461     1.0000 0.98470  0.05752  0.24191  Biso   1.000  C
  H696     1.0000 0.23431  0.99889  0.38071  Biso   1.000  H
  H697     1.0000 0.25380  0.97670  0.43402  Biso   1.000  H
  H698     1.0000 0.18858  0.96960  0.41672  Biso   1.000  H
  H699     1.0000 0.31101  0.37402  0.10389  Biso   1.000  H
  H700     1.0000 0.26829  0.42720  0.10840  Biso   1.000  H
  C462     1.0000 0.34559  0.44828  0.07432  Biso   1.000  C
  C463     1.0000 0.42992  0.44089  0.13099  Biso   1.000  C
  H701     1.0000 0.40562  0.41848  0.20280  Biso   1.000  H
  H702     1.0000 0.39628  0.36781  0.16401  Biso   1.000  H
  H703     1.0000 0.10498  0.43268  0.28280  Biso   1.000  H
  C464     1.0000 0.99062  0.29665  0.29519  Biso   1.000  C
  C465     1.0000 0.98890  0.37210  0.22672  Biso   1.000  C
  H704     1.0000 0.13579  0.42359  0.50919  Biso   1.000  H
  H705     1.0000 0.07580  0.45560  0.51562  Biso   1.000  H
  H706     1.0000 0.07979  0.38839  0.52431  Biso   1.000  H
  H707     1.0000 0.27099  0.03881  0.04189  Biso   1.000  H
  H708     1.0000 0.26662  0.09442  0.00791  Biso   1.000  H
  C466     1.0000 0.35022  0.08039  0.03401  Biso   1.000  C
  H709     1.0000 0.37168  0.01909  0.08500  Biso   1.000  H
  H710     1.0000 0.42161  0.06500  0.07650  Biso   1.000  H
  O55      1.0000 0.93795  0.15198  0.28188  Biso   1.000  O
  H711     1.0000 0.94579  0.21978  0.35342  Biso   1.000  H
  C467     1.0000 0.98959  0.22051  0.41971  Biso   1.000  C
  H712     1.0000 0.00129  0.01900  0.23792  Biso   1.000  H
  N27      1.0000 0.99220  0.09068  0.19503  Biso   1.000  N
  H713     1.0000 0.94331  0.05331  0.24931  Biso   1.000  H
  H714     1.0000 0.34130  0.48952  0.08049  Biso   1.000  H
  H715     1.0000 0.33192  0.44042  0.04030  Biso   1.000  H
  C468     1.0000 0.40811  0.43209  0.07842  Biso   1.000  C
  H716     1.0000 0.46981  0.42690  0.13340  Biso   1.000  H
  H717     1.0000 0.42992  0.48200  0.13880  Biso   1.000  H
  O56      1.0000 0.94725  0.26634  0.27245  Biso   1.000  O
  N28      1.0000 0.03128  0.36832  0.18571  Biso   1.000  N
  H718     1.0000 0.97892  0.41249  0.23241  Biso   1.000  H
  H719     1.0000 0.95351  0.35170  0.21699  Biso   1.000  H
  H720     1.0000 0.36239  0.11988  0.02692  Biso   1.000  H
  H721     1.0000 0.36230  0.05641  0.00580  Biso   1.000  H
  H722     1.0000 0.93281  0.18722  0.28462  Biso   1.000  H
  H723     1.0000 0.03008  0.22378  0.43040  Biso   1.000  H
  H724     1.0000 0.97472  0.18361  0.43169  Biso   1.000  H
  C469     1.0000 0.95492  0.26859  0.44290  Biso   1.000  C
  H725     1.0000 0.03021  0.08970  0.18601  Biso   1.000  H
  H726     1.0000 0.98260  0.12800  0.20080  Biso   1.000  H
  C470     1.0000 0.95621  0.06832  0.15270  Biso   1.000  C
  H727     1.0000 0.41299  0.39179  0.06892  Biso   1.000  H
  H728     1.0000 0.43090  0.45560  0.05531  Biso   1.000  H
  H729     1.0000 0.95591  0.26060  0.24269  Biso   1.000  H
  H730     1.0000 0.06200  0.39111  0.19340  Biso   1.000  H
  H731     1.0000 0.04452  0.33151  0.18409  Biso   1.000  H
  C471     1.0000 0.00968  0.38490  0.13562  Biso   1.000  C
  H732     1.0000 0.91361  0.26162  0.43709  Biso   1.000  H
  H733     1.0000 0.96521  0.30489  0.42670  Biso   1.000  H
  C472     1.0000 0.96572  0.27322  0.49732  Biso   1.000  C
  H734     1.0000 0.92261  0.27628  0.42012  Biso   1.000  H
  H735     1.0000 0.97969  0.30268  0.44230  Biso   1.000  H
  C473     1.0000 0.93050  0.26510  0.49270  Biso   1.000  C
  H736     1.0000 0.95921  0.02589  0.15222  Biso   1.000  H
  C474     1.0000 0.98149  0.09170  0.10430  Biso   1.000  C
  C475     1.0000 0.89459  0.08439  0.16002  Biso   1.000  C
  C476     1.0000 0.04872  0.36262  0.09532  Biso   1.000  C
  C477     1.0000 0.00210  0.44909  0.13199  Biso   1.000  C
  H737     1.0000 0.97120  0.36700  0.13111  Biso   1.000  H
  H738     1.0000 0.00390  0.28921  0.50301  Biso   1.000  H
  H739     1.0000 0.93680  0.29809  0.51229  Biso   1.000  H
  H740     1.0000 0.96332  0.23539  0.51240  Biso   1.000  H
  H741     1.0000 0.95921  0.27722  0.51699  Biso   1.000  H
  H742     1.0000 0.91910  0.22582  0.49961  Biso   1.000  H
  H743     1.0000 0.89690  0.28989  0.49492  Biso   1.000  H
  H744     1.0000 0.02031  0.07571  0.09920  Biso   1.000  H
  H745     1.0000 0.98509  0.13361  0.10670  Biso   1.000  H
  C478     1.0000 0.94301  0.07618  0.06019  Biso   1.000  C
  C479     1.0000 0.85769  0.06632  0.11661  Biso   1.000  C
  H746     1.0000 0.88010  0.06619  0.19052  Biso   1.000  H
  H747     1.0000 0.89172  0.12609  0.16431  Biso   1.000  H
  H748     1.0000 0.08729  0.37942  0.09942  Biso   1.000  H
  H749     1.0000 0.05232  0.32092  0.09861  Biso   1.000  H
  C480     1.0000 0.02631  0.37670  0.04359  Biso   1.000  C
  H750     1.0000 0.03938  0.46822  0.13732  Biso   1.000  H
  C481     1.0000 0.97849  0.46452  0.08030  Biso   1.000  C
  H751     1.0000 0.97510  0.46231  0.15780  Biso   1.000  H
  H752     1.0000 0.94562  0.03482  0.05409  Biso   1.000  H
  H753     1.0000 0.95719  0.09591  0.03032  Biso   1.000  H
  C482     1.0000 0.88139  0.09191  0.06851  Biso   1.000  C
  H754     1.0000 0.85731  0.02440  0.11421  Biso   1.000  H
  H755     1.0000 0.81780  0.07950  0.12190  Biso   1.000  H
  H756     1.0000 0.05429  0.36369  0.01849  Biso   1.000  H
  C483     1.0000 0.01701  0.44102  0.03871  Biso   1.000  C
  H757     1.0000 0.98980  0.35642  0.03779  Biso   1.000  H
  H758     1.0000 0.97600  0.50640  0.07720  Biso   1.000  H
  H759     1.0000 0.93941  0.44879  0.07672  Biso   1.000  H
  H760     1.0000 0.87800  0.13391  0.06980  Biso   1.000  H
  H761     1.0000 0.85821  0.07831  0.04019  Biso   1.000  H
  H762     1.0000 0.05451  0.46049  0.03960  Biso   1.000  H
  H763     1.0000 0.99901  0.44922  0.00629  Biso   1.000  H
