data_image0
_cell_length_a       28.171
_cell_length_b       21.66
_cell_length_c       23.681
_cell_angle_alpha    90
_cell_angle_beta     90
_cell_angle_gamma    90

_symmetry_space_group_name_H-M    "P 1"
_symmetry_int_tables_number       1

loop_
  _symmetry_equiv_pos_as_xyz
  'x, y, z'

loop_
  _atom_site_label
  _atom_site_occupancy
  _atom_site_fract_x
  _atom_site_fract_y
  _atom_site_fract_z
  _atom_site_thermal_displace_type
  _atom_site_B_iso_or_equiv
  _atom_site_type_symbol
  C1       1.0000 0.55799  0.57789  0.52502  Biso   1.000  C
  S1       1.0000 0.59316  0.60411  0.58528  Biso   1.000  S
  F1       1.0000 0.56590  0.51810  0.51662  Biso   1.000  F
  F2       1.0000 0.51429  0.58721  0.53372  Biso   1.000  F
  F3       1.0000 0.57268  0.60951  0.48072  Biso   1.000  F
  O1       1.0000 0.57094  0.55882  0.62996  Biso   1.000  O
  O2       1.0000 0.58109  0.66468  0.59710  Biso   1.000  O
  O3       1.0000 0.63959  0.58620  0.57451  Biso   1.000  O
  C2       1.0000 0.55110  0.58029  0.68131  Biso   1.000  C
  C3       1.0000 0.50850  0.61191  0.67970  Biso   1.000  C
  C4       1.0000 0.57478  0.56671  0.73092  Biso   1.000  C
  C5       1.0000 0.48759  0.63329  0.72961  Biso   1.000  C
  H1       1.0000 0.49359  0.61902  0.64533  Biso   1.000  H
  C6       1.0000 0.55358  0.58638  0.77991  Biso   1.000  C
  C7       1.0000 0.62160  0.53098  0.73202  Biso   1.000  C
  C8       1.0000 0.44340  0.67262  0.72763  Biso   1.000  C
  C9       1.0000 0.51170  0.61902  0.77860  Biso   1.000  C
  H2       1.0000 0.56778  0.57761  0.81441  Biso   1.000  H
  H3       1.0000 0.62919  0.51768  0.69402  Biso   1.000  H
  H4       1.0000 0.61759  0.49441  0.75512  Biso   1.000  H
  C10      1.0000 0.66277  0.56842  0.75512  Biso   1.000  C
  C11      1.0000 0.45568  0.74040  0.72683  Biso   1.000  C
  H5       1.0000 0.42380  0.66371  0.76031  Biso   1.000  H
  H6       1.0000 0.42519  0.66228  0.69410  Biso   1.000  H
  O4       1.0000 0.49416  0.64372  0.83045  Biso   1.000  O
  C12      1.0000 0.67207  0.57521  0.81230  Biso   1.000  C
  C13      1.0000 0.69359  0.59838  0.71851  Biso   1.000  C
  C14      1.0000 0.46079  0.77442  0.67763  Biso   1.000  C
  C15      1.0000 0.46598  0.77091  0.77623  Biso   1.000  C
  S2       1.0000 0.45912  0.60628  0.86926  Biso   1.000  S
  C16      1.0000 0.70810  0.61219  0.83333  Biso   1.000  C
  O5       1.0000 0.64148  0.54520  0.85216  Biso   1.000  O
  C17      1.0000 0.73008  0.63380  0.74021  Biso   1.000  C
  H7       1.0000 0.68979  0.59469  0.67962  Biso   1.000  H
  O6       1.0000 0.45227  0.74441  0.62518  Biso   1.000  O
  C18      1.0000 0.47570  0.83481  0.67649  Biso   1.000  C
  C19      1.0000 0.48138  0.83158  0.77471  Biso   1.000  C
  H8       1.0000 0.46250  0.75088  0.81073  Biso   1.000  H
  C20      1.0000 0.49860  0.58518  0.92711  Biso   1.000  C
  O7       1.0000 0.44411  0.55240  0.84211  Biso   1.000  O
  O8       1.0000 0.42757  0.64940  0.89253  Biso   1.000  O
  H9       1.0000 0.71219  0.61602  0.87213  Biso   1.000  H
  C21      1.0000 0.73778  0.64372  0.79671  Biso   1.000  C
  S3       1.0000 0.64928  0.47493  0.86669  Biso   1.000  S
  O9       1.0000 0.76060  0.66380  0.70060  Biso   1.000  O
  S4       1.0000 0.40080  0.74621  0.59829  Biso   1.000  S
  C22      1.0000 0.48738  0.86551  0.72619  Biso   1.000  C
  H10      1.0000 0.47790  0.85540  0.64220  Biso   1.000  H
  O10      1.0000 0.49544  0.85919  0.82716  Biso   1.000  O
  F4       1.0000 0.52945  0.54381  0.91043  Biso   1.000  F
  F5       1.0000 0.47347  0.56260  0.96829  Biso   1.000  F
  F6       1.0000 0.52075  0.63440  0.94481  Biso   1.000  F
  C23      1.0000 0.77608  0.68652  0.81893  Biso   1.000  C
  C24      1.0000 0.65830  0.48250  0.94312  Biso   1.000  C
  O11      1.0000 0.69160  0.45379  0.84211  Biso   1.000  O
  O12      1.0000 0.60537  0.44478  0.86001  Biso   1.000  O
  S5       1.0000 0.80796  0.62996  0.68173  Biso   1.000  S
  O13      1.0000 0.39289  0.68740  0.57523  Biso   1.000  O
  C25      1.0000 0.41280  0.79589  0.53769  Biso   1.000  C
  O14      1.0000 0.36900  0.77738  0.63422  Biso   1.000  O
  C26      1.0000 0.50658  0.93079  0.72590  Biso   1.000  C
  S6       1.0000 0.45966  0.89958  0.86267  Biso   1.000  S
  C27      1.0000 0.76210  0.75388  0.80930  Biso   1.000  C
  H11      1.0000 0.78070  0.67932  0.85892  Biso   1.000  H
  H12      1.0000 0.80579  0.67798  0.79980  Biso   1.000  H
  F7       1.0000 0.69089  0.52350  0.95372  Biso   1.000  F
  F8       1.0000 0.67190  0.42752  0.96140  Biso   1.000  F
  F9       1.0000 0.61908  0.49838  0.96710  Biso   1.000  F
  C28      1.0000 0.79749  0.62641  0.60580  Biso   1.000  C
  O15      1.0000 0.84537  0.67202  0.69000  Biso   1.000  O
  O16      1.0000 0.80888  0.56930  0.70221  Biso   1.000  O
  F10      1.0000 0.42320  0.85171  0.55462  Biso   1.000  F
  F11      1.0000 0.44890  0.77498  0.50940  Biso   1.000  F
  F12      1.0000 0.37574  0.79681  0.50522  Biso   1.000  F
  C29      1.0000 0.55909  0.93370  0.73861  Biso   1.000  C
  H13      1.0000 0.48958  0.95508  0.75381  Biso   1.000  H
  H14      1.0000 0.50080  0.94922  0.68920  Biso   1.000  H
  C30      1.0000 0.44170  0.84441  0.91753  Biso   1.000  C
  O17      1.0000 0.41908  0.91390  0.83050  Biso   1.000  O
  O18      1.0000 0.48770  0.94441  0.89012  Biso   1.000  O
  C31      1.0000 0.72891  0.78389  0.84253  Biso   1.000  C
  C32      1.0000 0.78098  0.78832  0.76542  Biso   1.000  C
  F13      1.0000 0.79678  0.68139  0.58422  Biso   1.000  F
  F14      1.0000 0.75610  0.59972  0.59558  Biso   1.000  F
  F15      1.0000 0.83110  0.59349  0.58291  Biso   1.000  F
  C33      1.0000 0.57588  0.95439  0.79021  Biso   1.000  C
  C34      1.0000 0.59348  0.91399  0.70111  Biso   1.000  C
  F16      1.0000 0.41919  0.79811  0.89561  Biso   1.000  F
  F17      1.0000 0.41450  0.87341  0.95321  Biso   1.000  F
  F18      1.0000 0.48021  0.82461  0.94303  Biso   1.000  F
  C35      1.0000 0.71258  0.84211  0.83223  Biso   1.000  C
  O19      1.0000 0.70711  0.74931  0.88734  Biso   1.000  O
  C36      1.0000 0.76430  0.84700  0.75491  Biso   1.000  C
  H15      1.0000 0.80498  0.77179  0.74300  Biso   1.000  H
  C37      1.0000 0.62358  0.95582  0.80081  Biso   1.000  C
  H16      1.0000 0.55458  0.96731  0.81783  Biso   1.000  H
  C38      1.0000 0.64140  0.91579  0.71133  Biso   1.000  C
  O20      1.0000 0.57602  0.88832  0.64959  Biso   1.000  O
  C39      1.0000 0.72990  0.87581  0.78692  Biso   1.000  C
  H17      1.0000 0.68979  0.85919  0.85571  Biso   1.000  H
  S7       1.0000 0.73015  0.74589  0.94764  Biso   1.000  S
  O21      1.0000 0.78524  0.88061  0.70880  Biso   1.000  O
  C40      1.0000 0.65788  0.93818  0.76259  Biso   1.000  C
  O22      1.0000 0.63924  0.97308  0.85621  Biso   1.000  O
  H18      1.0000 0.66260  0.90208  0.68401  Biso   1.000  H
  S8       1.0000 0.58589  0.91570  0.58959  Biso   1.000  S
  C41      1.0000 0.71080  0.94012  0.77442  Biso   1.000  C
  C42      1.0000 0.69018  0.79552  0.98623  Biso   1.000  C
  O23      1.0000 0.77480  0.77271  0.94810  Biso   1.000  O
  O24      1.0000 0.72110  0.68532  0.96761  Biso   1.000  O
  S9       1.0000 0.77718  0.85462  0.64731  Biso   1.000  S
  S10      1.0000 0.63100  0.04183  0.87543  Biso   1.000  S
  C43      1.0000 0.60498  0.84381  0.55580  Biso   1.000  C
  O25      1.0000 0.62440  0.95711  0.58992  Biso   1.000  O
  O26      1.0000 0.54198  0.93098  0.56522  Biso   1.000  O
  H19      1.0000 0.72727  0.95711  0.74203  Biso   1.000  H
  H20      1.0000 0.71680  0.96681  0.80651  Biso   1.000  H
  F19      1.0000 0.69540  0.85291  0.97010  Biso   1.000  F
  F20      1.0000 0.64637  0.77959  0.97770  Biso   1.000  F
  F21      1.0000 0.69919  0.79118  0.04058  Biso   1.000  F
  C44      1.0000 0.77580  0.92849  0.61222  Biso   1.000  C
  O27      1.0000 0.73189  0.82770  0.64271  Biso   1.000  O
  O28      1.0000 0.81839  0.82322  0.62882  Biso   1.000  O
  C45      1.0000 0.67229  0.04040  0.93362  Biso   1.000  C
  O29      1.0000 0.58390  0.04820  0.89950  Biso   1.000  O
  O30      1.0000 0.64549  0.08269  0.83472  Biso   1.000  O
  F22      1.0000 0.64268  0.82322  0.58030  Biso   1.000  F
  F23      1.0000 0.61400  0.85711  0.50222  Biso   1.000  F
  F24      1.0000 0.57119  0.80309  0.55830  Biso   1.000  F
  F25      1.0000 0.74069  0.96219  0.63072  Biso   1.000  F
  F26      1.0000 0.76870  0.91930  0.55800  Biso   1.000  F
  F27      1.0000 0.81499  0.95822  0.61872  Biso   1.000  F
  F28      1.0000 0.66430  0.99612  0.96803  Biso   1.000  F
  F29      1.0000 0.67140  0.09252  0.95950  Biso   1.000  F
  F30      1.0000 0.71499  0.03070  0.91322  Biso   1.000  F
  C46      1.0000 0.44198  0.42211  0.47502  Biso   1.000  C
  S11      1.0000 0.40680  0.39589  0.41472  Biso   1.000  S
  F31      1.0000 0.43410  0.48190  0.48343  Biso   1.000  F
  F32      1.0000 0.48568  0.41279  0.46632  Biso   1.000  F
  F33      1.0000 0.42728  0.39049  0.51932  Biso   1.000  F
  O31      1.0000 0.42902  0.44118  0.37004  Biso   1.000  O
  O32      1.0000 0.41891  0.33532  0.40290  Biso   1.000  O
  O33      1.0000 0.36041  0.41380  0.42549  Biso   1.000  O
  C47      1.0000 0.44890  0.41971  0.31869  Biso   1.000  C
  C48      1.0000 0.42519  0.43329  0.26912  Biso   1.000  C
  C49      1.0000 0.49150  0.38809  0.32030  Biso   1.000  C
  C50      1.0000 0.37840  0.46902  0.26802  Biso   1.000  C
  C51      1.0000 0.44638  0.41362  0.22009  Biso   1.000  C
  C52      1.0000 0.51241  0.36671  0.27039  Biso   1.000  C
  H21      1.0000 0.50641  0.38098  0.35471  Biso   1.000  H
  C53      1.0000 0.33719  0.43158  0.24492  Biso   1.000  C
  H22      1.0000 0.37081  0.48232  0.30603  Biso   1.000  H
  H23      1.0000 0.38238  0.50559  0.24492  Biso   1.000  H
  C54      1.0000 0.48830  0.38098  0.22140  Biso   1.000  C
  H24      1.0000 0.43218  0.42239  0.18559  Biso   1.000  H
  C55      1.0000 0.55660  0.32738  0.27241  Biso   1.000  C
  C56      1.0000 0.32789  0.42479  0.18770  Biso   1.000  C
  C57      1.0000 0.30638  0.40162  0.28149  Biso   1.000  C
  O34      1.0000 0.50584  0.35628  0.16959  Biso   1.000  O
  C58      1.0000 0.54428  0.25960  0.27321  Biso   1.000  C
  H25      1.0000 0.57620  0.33629  0.23969  Biso   1.000  H
  H26      1.0000 0.57478  0.33772  0.30590  Biso   1.000  H
  C59      1.0000 0.29190  0.38781  0.16672  Biso   1.000  C
  O35      1.0000 0.35849  0.45480  0.14784  Biso   1.000  O
  C60      1.0000 0.26989  0.36620  0.25979  Biso   1.000  C
  H27      1.0000 0.31021  0.40531  0.32043  Biso   1.000  H
  S12      1.0000 0.54084  0.39372  0.13078  Biso   1.000  S
  C61      1.0000 0.53399  0.22909  0.22381  Biso   1.000  C
  C62      1.0000 0.53921  0.22558  0.32241  Biso   1.000  C
  C63      1.0000 0.26218  0.35628  0.20329  Biso   1.000  C
  H28      1.0000 0.28778  0.38398  0.12791  Biso   1.000  H
  S13      1.0000 0.35072  0.52507  0.13331  Biso   1.000  S
  O36      1.0000 0.23940  0.33620  0.29940  Biso   1.000  O
  C64      1.0000 0.50140  0.41482  0.07289  Biso   1.000  C
  O37      1.0000 0.55589  0.44760  0.15789  Biso   1.000  O
  O38      1.0000 0.57240  0.35060  0.10751  Biso   1.000  O
  C65      1.0000 0.51858  0.16842  0.22529  Biso   1.000  C
  H29      1.0000 0.53750  0.24912  0.18931  Biso   1.000  H
  C66      1.0000 0.52430  0.16519  0.32351  Biso   1.000  C
  O39      1.0000 0.54773  0.25559  0.37486  Biso   1.000  O
  C67      1.0000 0.22388  0.31348  0.18112  Biso   1.000  C
  C68      1.0000 0.34170  0.51750  0.05688  Biso   1.000  C
  O40      1.0000 0.30840  0.54621  0.15789  Biso   1.000  O
  O41      1.0000 0.39459  0.55522  0.13999  Biso   1.000  O
  S14      1.0000 0.19201  0.37004  0.31827  Biso   1.000  S
  F34      1.0000 0.47052  0.45619  0.08961  Biso   1.000  F
  F35      1.0000 0.52653  0.43740  0.03171  Biso   1.000  F
  F36      1.0000 0.47922  0.36560  0.05519  Biso   1.000  F
  C69      1.0000 0.51258  0.13449  0.27381  Biso   1.000  C
  O42      1.0000 0.50456  0.14081  0.17288  Biso   1.000  O
  H30      1.0000 0.52210  0.14460  0.35780  Biso   1.000  H
  S15      1.0000 0.59916  0.25379  0.40176  Biso   1.000  S
  C70      1.0000 0.23790  0.24612  0.19070  Biso   1.000  C
  H31      1.0000 0.21930  0.32068  0.14108  Biso   1.000  H
  H32      1.0000 0.19421  0.32202  0.20020  Biso   1.000  H
  F37      1.0000 0.30911  0.47650  0.04628  Biso   1.000  F
  F38      1.0000 0.32810  0.57248  0.03860  Biso   1.000  F
  F39      1.0000 0.38089  0.50162  0.03290  Biso   1.000  F
  C71      1.0000 0.20251  0.37359  0.39420  Biso   1.000  C
  O43      1.0000 0.15459  0.32798  0.31000  Biso   1.000  O
  O44      1.0000 0.19108  0.43070  0.29779  Biso   1.000  O
  C72      1.0000 0.49338  0.06921  0.27410  Biso   1.000  C
  S16      1.0000 0.54034  0.10042  0.13733  Biso   1.000  S
  C73      1.0000 0.58720  0.20411  0.46231  Biso   1.000  C
  O45      1.0000 0.60708  0.31260  0.42481  Biso   1.000  O
  O46      1.0000 0.63100  0.22262  0.36582  Biso   1.000  O
  C74      1.0000 0.21898  0.21168  0.23462  Biso   1.000  C
  C75      1.0000 0.27109  0.21611  0.15751  Biso   1.000  C
  F40      1.0000 0.20319  0.31861  0.41582  Biso   1.000  F
  F41      1.0000 0.24390  0.40028  0.40442  Biso   1.000  F
  F42      1.0000 0.16890  0.40651  0.41713  Biso   1.000  F
  C76      1.0000 0.44088  0.06630  0.26139  Biso   1.000  C
  H33      1.0000 0.51038  0.04492  0.24619  Biso   1.000  H
  H34      1.0000 0.49920  0.05078  0.31080  Biso   1.000  H
  C77      1.0000 0.55830  0.15559  0.08251  Biso   1.000  C
  O47      1.0000 0.58088  0.08610  0.16950  Biso   1.000  O
  O48      1.0000 0.51230  0.05559  0.10992  Biso   1.000  O
  F43      1.0000 0.57680  0.14829  0.44542  Biso   1.000  F
  F44      1.0000 0.55110  0.22498  0.49060  Biso   1.000  F
  F45      1.0000 0.62422  0.20319  0.49483  Biso   1.000  F
  C78      1.0000 0.23570  0.15300  0.24509  Biso   1.000  C
  H35      1.0000 0.19499  0.22821  0.25700  Biso   1.000  H
  C79      1.0000 0.28739  0.15789  0.16781  Biso   1.000  C
  O49      1.0000 0.29289  0.25069  0.11271  Biso   1.000  O
  C80      1.0000 0.42409  0.04561  0.20979  Biso   1.000  C
  C81      1.0000 0.40648  0.08601  0.29889  Biso   1.000  C
  F46      1.0000 0.58077  0.20189  0.10439  Biso   1.000  F
  F47      1.0000 0.58550  0.12659  0.04679  Biso   1.000  F
  F48      1.0000 0.51979  0.17539  0.05701  Biso   1.000  F
  C82      1.0000 0.27010  0.12419  0.21312  Biso   1.000  C
  O50      1.0000 0.21476  0.11939  0.29120  Biso   1.000  O
  H36      1.0000 0.31021  0.14081  0.14429  Biso   1.000  H
  S17      1.0000 0.26985  0.25411  0.05236  Biso   1.000  S
  C83      1.0000 0.37638  0.04418  0.19919  Biso   1.000  C
  H37      1.0000 0.44539  0.03269  0.18221  Biso   1.000  H
  C84      1.0000 0.35860  0.08421  0.28871  Biso   1.000  C
  O51      1.0000 0.42398  0.11168  0.35041  Biso   1.000  O
  C85      1.0000 0.28920  0.05988  0.22562  Biso   1.000  C
  S18      1.0000 0.22278  0.14538  0.35273  Biso   1.000  S
  C86      1.0000 0.30979  0.20448  0.01381  Biso   1.000  C
  O52      1.0000 0.22520  0.22729  0.05190  Biso   1.000  O
  O53      1.0000 0.27890  0.31468  0.03239  Biso   1.000  O
  C87      1.0000 0.34209  0.06182  0.23741  Biso   1.000  C
  O54      1.0000 0.36076  0.02692  0.14379  Biso   1.000  O
  H38      1.0000 0.33740  0.09792  0.31599  Biso   1.000  H
  S19      1.0000 0.41411  0.08430  0.41041  Biso   1.000  S
  H39      1.0000 0.27269  0.04289  0.25801  Biso   1.000  H
  H40      1.0000 0.28320  0.03319  0.19349  Biso   1.000  H
  C88      1.0000 0.22420  0.07151  0.38782  Biso   1.000  C
  O55      1.0000 0.26811  0.17230  0.35729  Biso   1.000  O
  O56      1.0000 0.18161  0.17678  0.37123  Biso   1.000  O
  F49      1.0000 0.30460  0.14709  0.02990  Biso   1.000  F
  F50      1.0000 0.35359  0.22041  0.02230  Biso   1.000  F
  F51      1.0000 0.30081  0.20882  0.95942  Biso   1.000  F
  S20      1.0000 0.36900  0.95817  0.12457  Biso   1.000  S
  C89      1.0000 0.39498  0.15619  0.44420  Biso   1.000  C
  O57      1.0000 0.37560  0.04289  0.41012  Biso   1.000  O
  O58      1.0000 0.45799  0.06902  0.43482  Biso   1.000  O
  F52      1.0000 0.25931  0.03781  0.36933  Biso   1.000  F
  F53      1.0000 0.23130  0.08070  0.44200  Biso   1.000  F
  F54      1.0000 0.18501  0.04178  0.38132  Biso   1.000  F
  C90      1.0000 0.32771  0.95960  0.06638  Biso   1.000  C
  O59      1.0000 0.41610  0.95180  0.10050  Biso   1.000  O
  O60      1.0000 0.35448  0.91731  0.16532  Biso   1.000  O
  F55      1.0000 0.35728  0.17678  0.41970  Biso   1.000  F
  F56      1.0000 0.38600  0.14289  0.49783  Biso   1.000  F
  F57      1.0000 0.42881  0.19691  0.44170  Biso   1.000  F
  F58      1.0000 0.33570  0.00388  0.03201  Biso   1.000  F
  F59      1.0000 0.32860  0.90748  0.04050  Biso   1.000  F
  F60      1.0000 0.28501  0.96930  0.08682  Biso   1.000  F
  O61      1.0000 0.51230  0.44441  0.60990  Biso   1.000  O
  S21      1.0000 0.54034  0.39958  0.63735  Biso   1.000  S
  O62      1.0000 0.50456  0.35919  0.67286  Biso   1.000  O
  C91      1.0000 0.55830  0.34441  0.58249  Biso   1.000  C
  O63      1.0000 0.58088  0.41390  0.66952  Biso   1.000  O
  C92      1.0000 0.51858  0.33158  0.72531  Biso   1.000  C
  F61      1.0000 0.58077  0.29811  0.60441  Biso   1.000  F
  F62      1.0000 0.58550  0.37341  0.54681  Biso   1.000  F
  F63      1.0000 0.51979  0.32461  0.55703  Biso   1.000  F
  C93      1.0000 0.51258  0.36551  0.77383  Biso   1.000  C
  C94      1.0000 0.53399  0.27091  0.72383  Biso   1.000  C
  C95      1.0000 0.49338  0.43079  0.77412  Biso   1.000  C
  C96      1.0000 0.52430  0.33481  0.82353  Biso   1.000  C
  H41      1.0000 0.53750  0.25088  0.68933  Biso   1.000  H
  C97      1.0000 0.54428  0.24040  0.77319  Biso   1.000  C
  C98      1.0000 0.44088  0.43370  0.76141  Biso   1.000  C
  H42      1.0000 0.51038  0.45508  0.74621  Biso   1.000  H
  H43      1.0000 0.49920  0.44922  0.81082  Biso   1.000  H
  C99      1.0000 0.53921  0.27442  0.82243  Biso   1.000  C
  H44      1.0000 0.52210  0.35540  0.85782  Biso   1.000  H
  C100     1.0000 0.55660  0.17262  0.77243  Biso   1.000  C
  C101     1.0000 0.42409  0.45439  0.70981  Biso   1.000  C
  C102     1.0000 0.40648  0.41399  0.79891  Biso   1.000  C
  O64      1.0000 0.54773  0.24441  0.87484  Biso   1.000  O
  C103     1.0000 0.51241  0.13329  0.77041  Biso   1.000  C
  H45      1.0000 0.57620  0.16371  0.73971  Biso   1.000  H
  H46      1.0000 0.57478  0.16228  0.80592  Biso   1.000  H
  C104     1.0000 0.37638  0.45582  0.69921  Biso   1.000  C
  H47      1.0000 0.44539  0.46731  0.68219  Biso   1.000  H
  C105     1.0000 0.35860  0.41579  0.78873  Biso   1.000  C
  O65      1.0000 0.42398  0.38832  0.85043  Biso   1.000  O
  S22      1.0000 0.59916  0.24621  0.90174  Biso   1.000  S
  C106     1.0000 0.48830  0.11902  0.72142  Biso   1.000  C
  C107     1.0000 0.49150  0.11191  0.82032  Biso   1.000  C
  C108     1.0000 0.34209  0.43818  0.73743  Biso   1.000  C
  O66      1.0000 0.36076  0.47308  0.64381  Biso   1.000  O
  H48      1.0000 0.33740  0.40208  0.81601  Biso   1.000  H
  S23      1.0000 0.41411  0.41570  0.91043  Biso   1.000  S
  C109     1.0000 0.58720  0.29589  0.96233  Biso   1.000  C
  O67      1.0000 0.60708  0.18740  0.92483  Biso   1.000  O
  O68      1.0000 0.63100  0.27738  0.86580  Biso   1.000  O
  C110     1.0000 0.44638  0.08638  0.72011  Biso   1.000  C
  O69      1.0000 0.50584  0.14372  0.66957  Biso   1.000  O
  C111     1.0000 0.44890  0.08029  0.81872  Biso   1.000  C
  H49      1.0000 0.50641  0.11902  0.85469  Biso   1.000  H
  C112     1.0000 0.28920  0.44012  0.72560  Biso   1.000  C
  S24      1.0000 0.36900  0.54183  0.62459  Biso   1.000  S
  C113     1.0000 0.39498  0.34381  0.94422  Biso   1.000  C
  O70      1.0000 0.37560  0.45711  0.91010  Biso   1.000  O
  O71      1.0000 0.45799  0.43098  0.93480  Biso   1.000  O
  F64      1.0000 0.57680  0.35171  0.94540  Biso   1.000  F
  F65      1.0000 0.55110  0.27498  0.99063  Biso   1.000  F
  F66      1.0000 0.62422  0.29681  0.99481  Biso   1.000  F
  C114     1.0000 0.42519  0.06671  0.76910  Biso   1.000  C
  H50      1.0000 0.43218  0.07761  0.68561  Biso   1.000  H
  S25      1.0000 0.54084  0.10628  0.63076  Biso   1.000  S
  O72      1.0000 0.42902  0.05882  0.87006  Biso   1.000  O
  C115     1.0000 0.27010  0.37581  0.71310  Biso   1.000  C
  H51      1.0000 0.27269  0.45711  0.75803  Biso   1.000  H
  H52      1.0000 0.28320  0.46681  0.69351  Biso   1.000  H
  C116     1.0000 0.32771  0.54040  0.56640  Biso   1.000  C
  O73      1.0000 0.41610  0.54820  0.60052  Biso   1.000  O
  O74      1.0000 0.35448  0.58269  0.66530  Biso   1.000  O
  F67      1.0000 0.35728  0.32322  0.91972  Biso   1.000  F
  F68      1.0000 0.38600  0.35711  0.99780  Biso   1.000  F
  F69      1.0000 0.42881  0.30309  0.94173  Biso   1.000  F
  C117     1.0000 0.37840  0.03098  0.76800  Biso   1.000  C
  C118     1.0000 0.50140  0.08518  0.57291  Biso   1.000  C
  O75      1.0000 0.55589  0.05240  0.65791  Biso   1.000  O
  O76      1.0000 0.57240  0.14940  0.60749  Biso   1.000  O
  S26      1.0000 0.40680  0.10411  0.91474  Biso   1.000  S
  C119     1.0000 0.28739  0.34211  0.66779  Biso   1.000  C
  C120     1.0000 0.23570  0.34700  0.74511  Biso   1.000  C
  F70      1.0000 0.32860  0.59252  0.54052  Biso   1.000  F
  F71      1.0000 0.28501  0.53070  0.58680  Biso   1.000  F
  F72      1.0000 0.33570  0.49612  0.53203  Biso   1.000  F
  C121     1.0000 0.33719  0.06842  0.74490  Biso   1.000  C
  H53      1.0000 0.37081  0.01768  0.80600  Biso   1.000  H
  H54      1.0000 0.38238  0.99441  0.74490  Biso   1.000  H
  F73      1.0000 0.47052  0.04381  0.58963  Biso   1.000  F
  F74      1.0000 0.52653  0.06260  0.53173  Biso   1.000  F
  F75      1.0000 0.47922  0.13440  0.55521  Biso   1.000  F
  C122     1.0000 0.44198  0.07789  0.97500  Biso   1.000  C
  O77      1.0000 0.41891  0.16468  0.90292  Biso   1.000  O
  O78      1.0000 0.36041  0.08620  0.92551  Biso   1.000  O
  C123     1.0000 0.27109  0.28389  0.65753  Biso   1.000  C
  H55      1.0000 0.31021  0.35919  0.64431  Biso   1.000  H
  C124     1.0000 0.21898  0.28832  0.73460  Biso   1.000  C
  O79      1.0000 0.21476  0.38061  0.79123  Biso   1.000  O
  C125     1.0000 0.32789  0.07521  0.68772  Biso   1.000  C
  C126     1.0000 0.30638  0.09838  0.78151  Biso   1.000  C
  F76      1.0000 0.43410  0.01810  0.98340  Biso   1.000  F
  F77      1.0000 0.48568  0.08721  0.96630  Biso   1.000  F
  F78      1.0000 0.42728  0.10951  0.01930  Biso   1.000  F
  O80      1.0000 0.29289  0.24931  0.61273  Biso   1.000  O
  C127     1.0000 0.23790  0.25388  0.69072  Biso   1.000  C
  H56      1.0000 0.19499  0.27179  0.75702  Biso   1.000  H
  S27      1.0000 0.22278  0.35462  0.85271  Biso   1.000  S
  C128     1.0000 0.29190  0.11219  0.66669  Biso   1.000  C
  O81      1.0000 0.35849  0.04520  0.64786  Biso   1.000  O
  C129     1.0000 0.26989  0.13380  0.75981  Biso   1.000  C
  H57      1.0000 0.31021  0.09469  0.82040  Biso   1.000  H
  S28      1.0000 0.26985  0.24589  0.55238  Biso   1.000  S
  C130     1.0000 0.22388  0.18652  0.68109  Biso   1.000  C
  C131     1.0000 0.22420  0.42849  0.88780  Biso   1.000  C
  O82      1.0000 0.26811  0.32770  0.85731  Biso   1.000  O
  O83      1.0000 0.18161  0.32322  0.87120  Biso   1.000  O
  C132     1.0000 0.26218  0.14372  0.70331  Biso   1.000  C
  H58      1.0000 0.28778  0.11602  0.62793  Biso   1.000  H
  S29      1.0000 0.35072  0.97493  0.63333  Biso   1.000  S
  O84      1.0000 0.23940  0.16380  0.79942  Biso   1.000  O
  C133     1.0000 0.30979  0.29552  0.51383  Biso   1.000  C
  O85      1.0000 0.22520  0.27271  0.55192  Biso   1.000  O
  O86      1.0000 0.27890  0.18532  0.53241  Biso   1.000  O
  H59      1.0000 0.21930  0.17932  0.64110  Biso   1.000  H
  H60      1.0000 0.19421  0.17798  0.70022  Biso   1.000  H
  F79      1.0000 0.25931  0.46219  0.86930  Biso   1.000  F
  F80      1.0000 0.23130  0.41930  0.94202  Biso   1.000  F
  F81      1.0000 0.18501  0.45822  0.88130  Biso   1.000  F
  C134     1.0000 0.34170  0.98250  0.55690  Biso   1.000  C
  O87      1.0000 0.30840  0.95379  0.65791  Biso   1.000  O
  O88      1.0000 0.39459  0.94478  0.64001  Biso   1.000  O
  S30      1.0000 0.19201  0.12996  0.81829  Biso   1.000  S
  F82      1.0000 0.30460  0.35291  0.52992  Biso   1.000  F
  F83      1.0000 0.30081  0.29118  0.45940  Biso   1.000  F
  F84      1.0000 0.35359  0.27959  0.52232  Biso   1.000  F
  F85      1.0000 0.30911  0.02350  0.54630  Biso   1.000  F
  F86      1.0000 0.32810  0.92752  0.53862  Biso   1.000  F
  F87      1.0000 0.38089  0.99838  0.53292  Biso   1.000  F
  C135     1.0000 0.20251  0.12641  0.89422  Biso   1.000  C
  O89      1.0000 0.15459  0.17202  0.81002  Biso   1.000  O
  O90      1.0000 0.19108  0.06930  0.79781  Biso   1.000  O
  F88      1.0000 0.20319  0.18139  0.91580  Biso   1.000  F
  F89      1.0000 0.24390  0.09972  0.90444  Biso   1.000  F
  F90      1.0000 0.16890  0.09349  0.91711  Biso   1.000  F
  O91      1.0000 0.48770  0.55559  0.39010  Biso   1.000  O
  S31      1.0000 0.45966  0.60042  0.36270  Biso   1.000  S
  O92      1.0000 0.41908  0.58610  0.33052  Biso   1.000  O
  C136     1.0000 0.44170  0.65559  0.41751  Biso   1.000  C
  O93      1.0000 0.49544  0.64081  0.32714  Biso   1.000  O
  F91      1.0000 0.41919  0.70189  0.39559  Biso   1.000  F
  F92      1.0000 0.41450  0.62659  0.45319  Biso   1.000  F
  F93      1.0000 0.48021  0.67539  0.44301  Biso   1.000  F
  C137     1.0000 0.48138  0.66842  0.27469  Biso   1.000  C
  C138     1.0000 0.48738  0.63449  0.22622  Biso   1.000  C
  C139     1.0000 0.46598  0.72909  0.27621  Biso   1.000  C
  C140     1.0000 0.50658  0.56921  0.22592  Biso   1.000  C
  C141     1.0000 0.47570  0.66519  0.17651  Biso   1.000  C
  H61      1.0000 0.46250  0.74912  0.31071  Biso   1.000  H
  C142     1.0000 0.45568  0.75960  0.22681  Biso   1.000  C
  C143     1.0000 0.55909  0.56630  0.23859  Biso   1.000  C
  H62      1.0000 0.48958  0.54492  0.25379  Biso   1.000  H
  H63      1.0000 0.50080  0.55078  0.18922  Biso   1.000  H
  C144     1.0000 0.46079  0.72558  0.17761  Biso   1.000  C
  H64      1.0000 0.47790  0.64460  0.14218  Biso   1.000  H
  C145     1.0000 0.44340  0.82738  0.22761  Biso   1.000  C
  C146     1.0000 0.57588  0.54561  0.29019  Biso   1.000  C
  C147     1.0000 0.59348  0.58601  0.20109  Biso   1.000  C
  O94      1.0000 0.45227  0.75559  0.12516  Biso   1.000  O
  H65      1.0000 0.42380  0.83629  0.26029  Biso   1.000  H
  H66      1.0000 0.42519  0.83772  0.19412  Biso   1.000  H
  C148     1.0000 0.48759  0.86671  0.22959  Biso   1.000  C
  C149     1.0000 0.62358  0.54418  0.30079  Biso   1.000  C
  H67      1.0000 0.55458  0.53269  0.31781  Biso   1.000  H
  C150     1.0000 0.64140  0.58421  0.21131  Biso   1.000  C
  O95      1.0000 0.57602  0.61168  0.14961  Biso   1.000  O
  S32      1.0000 0.40080  0.75379  0.09826  Biso   1.000  S
  C151     1.0000 0.51170  0.88098  0.27862  Biso   1.000  C
  C152     1.0000 0.50850  0.88809  0.17972  Biso   1.000  C
  C153     1.0000 0.65788  0.56182  0.26262  Biso   1.000  C
  O96      1.0000 0.63924  0.52692  0.35619  Biso   1.000  O
  H68      1.0000 0.66260  0.59792  0.18399  Biso   1.000  H
  S33      1.0000 0.58589  0.58430  0.08961  Biso   1.000  S
  C154     1.0000 0.41280  0.70411  0.03771  Biso   1.000  C
  O97      1.0000 0.39289  0.81260  0.07521  Biso   1.000  O
  O98      1.0000 0.36900  0.72262  0.13420  Biso   1.000  O
  C155     1.0000 0.55358  0.91362  0.27989  Biso   1.000  C
  O99      1.0000 0.49416  0.85628  0.33043  Biso   1.000  O
  C156     1.0000 0.55110  0.91971  0.18128  Biso   1.000  C
  H69      1.0000 0.49359  0.88098  0.14531  Biso   1.000  H
  C157     1.0000 0.71080  0.55988  0.27440  Biso   1.000  C
  S34      1.0000 0.63100  0.45817  0.37541  Biso   1.000  S
  C158     1.0000 0.60498  0.65619  0.05578  Biso   1.000  C
  O100     1.0000 0.62440  0.54289  0.08990  Biso   1.000  O
  O101     1.0000 0.54198  0.56902  0.06520  Biso   1.000  O
  F94      1.0000 0.42320  0.64829  0.05460  Biso   1.000  F
  F95      1.0000 0.44890  0.72498  0.00942  Biso   1.000  F
  F96      1.0000 0.37574  0.70319  0.00519  Biso   1.000  F
  H70      1.0000 0.56778  0.92239  0.31439  Biso   1.000  H
  C159     1.0000 0.57478  0.93329  0.23090  Biso   1.000  C
  S35      1.0000 0.45912  0.89372  0.36924  Biso   1.000  S
  O102     1.0000 0.57094  0.94118  0.12994  Biso   1.000  O
  C160     1.0000 0.72990  0.62419  0.28690  Biso   1.000  C
  H71      1.0000 0.72727  0.54289  0.24201  Biso   1.000  H
  H72      1.0000 0.71680  0.53319  0.30649  Biso   1.000  H
  C161     1.0000 0.67229  0.45960  0.43360  Biso   1.000  C
  O103     1.0000 0.58390  0.45180  0.39952  Biso   1.000  O
  O104     1.0000 0.64549  0.41731  0.33470  Biso   1.000  O
  F97      1.0000 0.64268  0.67678  0.08032  Biso   1.000  F
  F98      1.0000 0.61400  0.64289  0.00220  Biso   1.000  F
  F99      1.0000 0.57119  0.69691  0.05832  Biso   1.000  F
  C162     1.0000 0.62160  0.96902  0.23200  Biso   1.000  C
  C163     1.0000 0.49860  0.91482  0.42709  Biso   1.000  C
  O105     1.0000 0.44411  0.94760  0.34209  Biso   1.000  O
  O106     1.0000 0.42757  0.85060  0.39251  Biso   1.000  O
  S36      1.0000 0.59316  0.89589  0.08530  Biso   1.000  S
  C164     1.0000 0.71258  0.65789  0.33221  Biso   1.000  C
  C165     1.0000 0.76430  0.65300  0.25489  Biso   1.000  C
  F100     1.0000 0.67140  0.40748  0.45952  Biso   1.000  F
  F101     1.0000 0.71499  0.46930  0.41320  Biso   1.000  F
  F102     1.0000 0.66430  0.50388  0.46801  Biso   1.000  F
  H73      1.0000 0.62919  0.98232  0.19400  Biso   1.000  H
  C166     1.0000 0.66277  0.93158  0.25510  Biso   1.000  C
  H74      1.0000 0.61759  0.00559  0.25510  Biso   1.000  H
  F103     1.0000 0.52945  0.95619  0.41041  Biso   1.000  F
  F104     1.0000 0.47347  0.93740  0.46831  Biso   1.000  F
  F105     1.0000 0.52075  0.86560  0.44479  Biso   1.000  F
  C167     1.0000 0.55799  0.92211  0.02500  Biso   1.000  C
  O107     1.0000 0.58109  0.83532  0.09708  Biso   1.000  O
  O108     1.0000 0.63959  0.91380  0.07449  Biso   1.000  O
  C168     1.0000 0.72891  0.71611  0.34251  Biso   1.000  C
  H75      1.0000 0.68979  0.64081  0.35569  Biso   1.000  H
  C169     1.0000 0.78098  0.71168  0.26540  Biso   1.000  C
  O109     1.0000 0.78524  0.61939  0.20882  Biso   1.000  O
  C170     1.0000 0.67207  0.92479  0.31232  Biso   1.000  C
  C171     1.0000 0.69359  0.90162  0.21849  Biso   1.000  C
  F106     1.0000 0.56590  0.98190  0.01660  Biso   1.000  F
  F107     1.0000 0.51429  0.91279  0.03370  Biso   1.000  F
  F108     1.0000 0.57268  0.89049  0.98070  Biso   1.000  F
  C172     1.0000 0.76210  0.74612  0.30932  Biso   1.000  C
  O110     1.0000 0.70711  0.75069  0.38731  Biso   1.000  O
  H76      1.0000 0.80498  0.72821  0.24302  Biso   1.000  H
  S37      1.0000 0.77718  0.64538  0.14729  Biso   1.000  S
  C173     1.0000 0.70810  0.88781  0.33331  Biso   1.000  C
  O111     1.0000 0.64148  0.95480  0.35214  Biso   1.000  O
  C174     1.0000 0.73008  0.86620  0.24019  Biso   1.000  C
  H77      1.0000 0.68979  0.90531  0.17960  Biso   1.000  H
  C175     1.0000 0.77608  0.81348  0.31891  Biso   1.000  C
  S38      1.0000 0.73015  0.75411  0.44766  Biso   1.000  S
  C176     1.0000 0.77580  0.57151  0.11220  Biso   1.000  C
  O112     1.0000 0.73189  0.67230  0.14269  Biso   1.000  O
  O113     1.0000 0.81839  0.67678  0.12880  Biso   1.000  O
  H78      1.0000 0.71219  0.88398  0.37211  Biso   1.000  H
  C177     1.0000 0.73778  0.85628  0.29669  Biso   1.000  C
  S39      1.0000 0.64928  0.02507  0.36667  Biso   1.000  S
  O114     1.0000 0.76060  0.83620  0.20058  Biso   1.000  O
  H79      1.0000 0.78070  0.82068  0.35890  Biso   1.000  H
  H80      1.0000 0.80579  0.82202  0.29982  Biso   1.000  H
  C178     1.0000 0.69018  0.70448  0.48621  Biso   1.000  C
  O115     1.0000 0.77480  0.72729  0.44812  Biso   1.000  O
  O116     1.0000 0.72110  0.81468  0.46759  Biso   1.000  O
  F109     1.0000 0.74069  0.53781  0.13070  Biso   1.000  F
  F110     1.0000 0.76870  0.58070  0.05802  Biso   1.000  F
  F111     1.0000 0.81499  0.54178  0.11870  Biso   1.000  F
  C179     1.0000 0.65830  0.01750  0.44310  Biso   1.000  C
  O117     1.0000 0.69160  0.04621  0.34209  Biso   1.000  O
  O118     1.0000 0.60537  0.05522  0.35999  Biso   1.000  O
  S40      1.0000 0.80796  0.87004  0.18175  Biso   1.000  S
  F112     1.0000 0.69540  0.64709  0.47012  Biso   1.000  F
  F113     1.0000 0.69919  0.70882  0.54060  Biso   1.000  F
  F114     1.0000 0.64637  0.72041  0.47772  Biso   1.000  F
  F115     1.0000 0.69089  0.97650  0.45370  Biso   1.000  F
  F116     1.0000 0.67190  0.07248  0.46142  Biso   1.000  F
  F117     1.0000 0.61908  0.00162  0.46713  Biso   1.000  F
  C180     1.0000 0.79749  0.87359  0.10578  Biso   1.000  C
  O119     1.0000 0.84537  0.82798  0.18998  Biso   1.000  O
  O120     1.0000 0.80888  0.93070  0.20219  Biso   1.000  O
  F118     1.0000 0.79678  0.81861  0.08420  Biso   1.000  F
  F119     1.0000 0.75610  0.90028  0.09560  Biso   1.000  F
  F120     1.0000 0.83110  0.90651  0.08289  Biso   1.000  F
  C181     1.0000 0.72418  0.42849  0.61222  Biso   1.000  C
  S41      1.0000 0.72280  0.35462  0.64731  Biso   1.000  S
  F121     1.0000 0.75929  0.46219  0.63072  Biso   1.000  F
  F122     1.0000 0.73128  0.41930  0.55800  Biso   1.000  F
  F123     1.0000 0.68500  0.45822  0.61872  Biso   1.000  F
  O121     1.0000 0.68159  0.32322  0.62882  Biso   1.000  O
  O122     1.0000 0.71474  0.38061  0.70880  Biso   1.000  O
  O123     1.0000 0.76809  0.32770  0.64271  Biso   1.000  O
  C182     1.0000 0.73569  0.34700  0.75491  Biso   1.000  C
  C183     1.0000 0.77008  0.37581  0.78692  Biso   1.000  C
  C184     1.0000 0.71900  0.28832  0.76542  Biso   1.000  C
  C185     1.0000 0.78741  0.34211  0.83223  Biso   1.000  C
  C186     1.0000 0.78918  0.44012  0.77442  Biso   1.000  C
  C187     1.0000 0.73789  0.25388  0.80930  Biso   1.000  C
  H81      1.0000 0.69501  0.27179  0.74300  Biso   1.000  H
  C188     1.0000 0.77108  0.28389  0.84253  Biso   1.000  C
  H82      1.0000 0.81019  0.35919  0.85571  Biso   1.000  H
  H83      1.0000 0.77267  0.45711  0.74203  Biso   1.000  H
  H84      1.0000 0.78318  0.46681  0.80651  Biso   1.000  H
  C189     1.0000 0.84207  0.43818  0.76259  Biso   1.000  C
  C190     1.0000 0.72390  0.18652  0.81893  Biso   1.000  C
  O124     1.0000 0.79287  0.24931  0.88734  Biso   1.000  O
  C191     1.0000 0.87640  0.45582  0.80081  Biso   1.000  C
  C192     1.0000 0.85858  0.41579  0.71133  Biso   1.000  C
  C193     1.0000 0.76220  0.14372  0.79671  Biso   1.000  C
  H85      1.0000 0.71929  0.17932  0.85892  Biso   1.000  H
  H86      1.0000 0.69419  0.17798  0.79980  Biso   1.000  H
  S42      1.0000 0.76983  0.24589  0.94764  Biso   1.000  S
  C194     1.0000 0.92407  0.45439  0.79021  Biso   1.000  C
  O125     1.0000 0.86074  0.47308  0.85621  Biso   1.000  O
  C195     1.0000 0.90650  0.41399  0.70111  Biso   1.000  C
  H87      1.0000 0.83739  0.40208  0.68401  Biso   1.000  H
  C196     1.0000 0.79188  0.11219  0.83333  Biso   1.000  C
  C197     1.0000 0.76991  0.13380  0.74021  Biso   1.000  C
  C198     1.0000 0.80980  0.29552  0.98623  Biso   1.000  C
  O126     1.0000 0.72518  0.27271  0.94810  Biso   1.000  O
  O127     1.0000 0.77889  0.18532  0.96761  Biso   1.000  O
  H88      1.0000 0.94537  0.46731  0.81783  Biso   1.000  H
  C199     1.0000 0.94090  0.43370  0.73861  Biso   1.000  C
  S43      1.0000 0.86898  0.54183  0.87543  Biso   1.000  S
  O128     1.0000 0.92396  0.38832  0.64959  Biso   1.000  O
  C200     1.0000 0.82787  0.07521  0.81230  Biso   1.000  C
  H89      1.0000 0.78780  0.11602  0.87213  Biso   1.000  H
  C201     1.0000 0.80640  0.09838  0.71851  Biso   1.000  C
  O129     1.0000 0.73938  0.16380  0.70060  Biso   1.000  O
  F124     1.0000 0.80459  0.35291  0.97010  Biso   1.000  F
  F125     1.0000 0.85357  0.27959  0.97770  Biso   1.000  F
  F126     1.0000 0.80079  0.29118  0.04058  Biso   1.000  F
  C202     1.0000 0.99340  0.43079  0.72590  Biso   1.000  C
  C203     1.0000 0.82770  0.54040  0.93362  Biso   1.000  C
  O130     1.0000 0.91608  0.54820  0.89950  Biso   1.000  O
  O131     1.0000 0.85450  0.58269  0.83472  Biso   1.000  O
  S44      1.0000 0.91410  0.41570  0.58959  Biso   1.000  S
  C204     1.0000 0.83717  0.06842  0.75512  Biso   1.000  C
  O132     1.0000 0.85847  0.04520  0.85216  Biso   1.000  O
  H90      1.0000 0.81019  0.09469  0.67962  Biso   1.000  H
  S45      1.0000 0.69202  0.12996  0.68173  Biso   1.000  S
  H91      1.0000 0.99918  0.44922  0.68920  Biso   1.000  H
  H92      1.0000 0.01040  0.45508  0.75381  Biso   1.000  H
  C205     1.0000 0.01260  0.36551  0.72619  Biso   1.000  C
  F127     1.0000 0.82858  0.59252  0.95950  Biso   1.000  F
  F128     1.0000 0.78499  0.53070  0.91322  Biso   1.000  F
  F129     1.0000 0.83568  0.49612  0.96803  Biso   1.000  F
  C206     1.0000 0.89500  0.34381  0.55580  Biso   1.000  C
  O133     1.0000 0.87558  0.45711  0.58992  Biso   1.000  O
  O134     1.0000 0.95797  0.43098  0.56522  Biso   1.000  O
  C207     1.0000 0.87839  0.03098  0.73202  Biso   1.000  C
  S46      1.0000 0.85070  0.97493  0.86669  Biso   1.000  S
  C208     1.0000 0.70250  0.12641  0.60580  Biso   1.000  C
  O135     1.0000 0.65457  0.17202  0.69000  Biso   1.000  O
  O136     1.0000 0.69110  0.06930  0.70221  Biso   1.000  O
  C209     1.0000 0.01860  0.33158  0.77471  Biso   1.000  C
  C210     1.0000 0.02432  0.33481  0.67649  Biso   1.000  C
  F130     1.0000 0.85730  0.32322  0.58030  Biso   1.000  F
  F131     1.0000 0.88598  0.35711  0.50222  Biso   1.000  F
  F132     1.0000 0.92879  0.30309  0.55830  Biso   1.000  F
  H93      1.0000 0.87079  0.01768  0.69402  Biso   1.000  H
  C211     1.0000 0.92517  0.06671  0.73092  Biso   1.000  C
  H94      1.0000 0.88240  0.99441  0.75512  Biso   1.000  H
  C212     1.0000 0.84168  0.98250  0.94312  Biso   1.000  C
  O137     1.0000 0.80838  0.95379  0.84211  Biso   1.000  O
  O138     1.0000 0.89457  0.94478  0.86001  Biso   1.000  O
  F133     1.0000 0.70321  0.18139  0.58422  Biso   1.000  F
  F134     1.0000 0.74389  0.09972  0.59558  Biso   1.000  F
  F135     1.0000 0.66888  0.09349  0.58291  Biso   1.000  F
  C213     1.0000 0.03401  0.27091  0.77623  Biso   1.000  C
  O139     1.0000 0.00458  0.35919  0.82716  Biso   1.000  O
  C214     1.0000 0.03919  0.27442  0.67763  Biso   1.000  C
  H95      1.0000 0.02211  0.35540  0.64220  Biso   1.000  H
  C215     1.0000 0.94640  0.08638  0.77991  Biso   1.000  C
  C216     1.0000 0.94888  0.08029  0.68131  Biso   1.000  C
  F136     1.0000 0.80909  0.02350  0.95372  Biso   1.000  F
  F137     1.0000 0.82809  0.92752  0.96140  Biso   1.000  F
  F138     1.0000 0.88087  0.99838  0.96710  Biso   1.000  F
  H96      1.0000 0.03749  0.25088  0.81073  Biso   1.000  H
  C217     1.0000 0.04430  0.24040  0.72683  Biso   1.000  C
  S47      1.0000 0.04033  0.39958  0.86267  Biso   1.000  S
  O140     1.0000 0.04774  0.24441  0.62518  Biso   1.000  O
  C218     1.0000 0.98829  0.11902  0.77860  Biso   1.000  C
  H97      1.0000 0.93220  0.07761  0.81441  Biso   1.000  H
  C219     1.0000 0.99148  0.11191  0.67970  Biso   1.000  C
  O141     1.0000 0.92904  0.05882  0.62996  Biso   1.000  O
  C220     1.0000 0.05658  0.17262  0.72763  Biso   1.000  C
  C221     1.0000 0.05829  0.34441  0.91753  Biso   1.000  C
  O142     1.0000 0.08090  0.41390  0.83050  Biso   1.000  O
  O143     1.0000 0.01228  0.44441  0.89012  Biso   1.000  O
  S48      1.0000 0.09918  0.24621  0.59829  Biso   1.000  S
  C222     1.0000 0.01239  0.13329  0.72961  Biso   1.000  C
  O144     1.0000 0.00586  0.14372  0.83045  Biso   1.000  O
  H98      1.0000 0.00639  0.11902  0.64533  Biso   1.000  H
  S49      1.0000 0.90682  0.10411  0.58528  Biso   1.000  S
  H99      1.0000 0.07621  0.16371  0.76031  Biso   1.000  H
  H100     1.0000 0.07479  0.16228  0.69410  Biso   1.000  H
  F139     1.0000 0.08079  0.29811  0.89561  Biso   1.000  F
  F140     1.0000 0.08551  0.37341  0.95321  Biso   1.000  F
  F141     1.0000 0.01981  0.32461  0.94303  Biso   1.000  F
  C223     1.0000 0.08718  0.29589  0.53769  Biso   1.000  C
  O145     1.0000 0.10710  0.18740  0.57523  Biso   1.000  O
  O146     1.0000 0.13099  0.27738  0.63422  Biso   1.000  O
  S50      1.0000 0.04086  0.10628  0.86926  Biso   1.000  S
  C224     1.0000 0.94200  0.07789  0.52502  Biso   1.000  C
  O147     1.0000 0.91889  0.16468  0.59710  Biso   1.000  O
  O148     1.0000 0.86039  0.08620  0.57451  Biso   1.000  O
  F142     1.0000 0.07682  0.35171  0.55462  Biso   1.000  F
  F143     1.0000 0.05112  0.27498  0.50940  Biso   1.000  F
  F144     1.0000 0.12424  0.29681  0.50522  Biso   1.000  F
  C225     1.0000 0.00138  0.08518  0.92711  Biso   1.000  C
  O149     1.0000 0.05591  0.05240  0.84211  Biso   1.000  O
  O150     1.0000 0.07241  0.14940  0.89253  Biso   1.000  O
  F145     1.0000 0.93408  0.01810  0.51662  Biso   1.000  F
  F146     1.0000 0.98569  0.08721  0.53372  Biso   1.000  F
  F147     1.0000 0.92730  0.10951  0.48072  Biso   1.000  F
  F148     1.0000 0.97054  0.04381  0.91043  Biso   1.000  F
  F149     1.0000 0.97920  0.13440  0.94481  Biso   1.000  F
  F150     1.0000 0.02655  0.06260  0.96829  Biso   1.000  F
  C226     1.0000 0.27578  0.57151  0.38782  Biso   1.000  C
  S51      1.0000 0.27720  0.64538  0.35273  Biso   1.000  S
  F151     1.0000 0.24071  0.53781  0.36933  Biso   1.000  F
  F152     1.0000 0.26868  0.58070  0.44200  Biso   1.000  F
  F153     1.0000 0.31500  0.54178  0.38132  Biso   1.000  F
  O151     1.0000 0.28522  0.61939  0.29120  Biso   1.000  O
  O152     1.0000 0.23191  0.67230  0.35729  Biso   1.000  O
  O153     1.0000 0.31841  0.67678  0.37123  Biso   1.000  O
  C227     1.0000 0.26428  0.65300  0.24509  Biso   1.000  C
  C228     1.0000 0.22988  0.62419  0.21312  Biso   1.000  C
  C229     1.0000 0.28100  0.71168  0.23462  Biso   1.000  C
  C230     1.0000 0.21078  0.55988  0.22562  Biso   1.000  C
  C231     1.0000 0.21259  0.65789  0.16781  Biso   1.000  C
  C232     1.0000 0.26211  0.74612  0.19070  Biso   1.000  C
  H101     1.0000 0.30499  0.72821  0.25700  Biso   1.000  H
  C233     1.0000 0.15789  0.56182  0.23741  Biso   1.000  C
  H102     1.0000 0.22729  0.54289  0.25801  Biso   1.000  H
  H103     1.0000 0.21678  0.53319  0.19349  Biso   1.000  H
  C234     1.0000 0.22889  0.71611  0.15751  Biso   1.000  C
  H104     1.0000 0.18981  0.64081  0.14429  Biso   1.000  H
  C235     1.0000 0.27610  0.81348  0.18112  Biso   1.000  C
  C236     1.0000 0.12360  0.54418  0.19919  Biso   1.000  C
  C237     1.0000 0.14139  0.58421  0.28871  Biso   1.000  C
  O154     1.0000 0.20713  0.75069  0.11271  Biso   1.000  O
  C238     1.0000 0.23780  0.85628  0.20329  Biso   1.000  C
  H105     1.0000 0.28068  0.82068  0.14108  Biso   1.000  H
  H106     1.0000 0.30581  0.82202  0.20020  Biso   1.000  H
  O155     1.0000 0.13922  0.52692  0.14379  Biso   1.000  O
  C239     1.0000 0.07589  0.54561  0.20979  Biso   1.000  C
  C240     1.0000 0.09350  0.58601  0.29889  Biso   1.000  C
  H107     1.0000 0.16261  0.59792  0.31599  Biso   1.000  H
  S52      1.0000 0.23013  0.75411  0.05236  Biso   1.000  S
  C241     1.0000 0.20809  0.88781  0.16672  Biso   1.000  C
  C242     1.0000 0.23009  0.86620  0.25979  Biso   1.000  C
  S53      1.0000 0.13102  0.45817  0.12457  Biso   1.000  S
  H108     1.0000 0.05460  0.53269  0.18221  Biso   1.000  H
  C243     1.0000 0.05910  0.56630  0.26139  Biso   1.000  C
  O156     1.0000 0.07604  0.61168  0.35041  Biso   1.000  O
  C244     1.0000 0.19020  0.70448  0.01381  Biso   1.000  C
  O157     1.0000 0.27479  0.72729  0.05190  Biso   1.000  O
  O158     1.0000 0.22111  0.81468  0.03239  Biso   1.000  O
  C245     1.0000 0.17209  0.92479  0.18770  Biso   1.000  C
  H109     1.0000 0.21220  0.88398  0.12791  Biso   1.000  H
  C246     1.0000 0.19360  0.90162  0.28149  Biso   1.000  C
  O159     1.0000 0.26059  0.83620  0.29940  Biso   1.000  O
  O160     1.0000 0.14550  0.41731  0.16532  Biso   1.000  O
  C247     1.0000 0.17230  0.45960  0.06638  Biso   1.000  C
  O161     1.0000 0.08392  0.45180  0.10050  Biso   1.000  O
  C248     1.0000 0.00660  0.56921  0.27410  Biso   1.000  C
  S54      1.0000 0.08590  0.58430  0.41041  Biso   1.000  S
  F154     1.0000 0.19541  0.64709  0.02990  Biso   1.000  F
  F155     1.0000 0.14639  0.72041  0.02230  Biso   1.000  F
  F156     1.0000 0.19921  0.70882  0.95942  Biso   1.000  F
  C249     1.0000 0.16279  0.93158  0.24492  Biso   1.000  C
  O162     1.0000 0.14149  0.95480  0.14784  Biso   1.000  O
  H110     1.0000 0.18981  0.90531  0.32043  Biso   1.000  H
  S55      1.0000 0.30798  0.87004  0.31827  Biso   1.000  S
  F157     1.0000 0.17138  0.40748  0.04050  Biso   1.000  F
  F158     1.0000 0.21501  0.46930  0.08682  Biso   1.000  F
  F159     1.0000 0.16428  0.50388  0.03201  Biso   1.000  F
  H111     1.0000 0.00082  0.55078  0.31080  Biso   1.000  H
  H112     1.0000 0.98960  0.54492  0.24619  Biso   1.000  H
  C250     1.0000 0.98740  0.63449  0.27381  Biso   1.000  C
  C251     1.0000 0.10500  0.65619  0.44420  Biso   1.000  C
  O163     1.0000 0.12438  0.54289  0.41012  Biso   1.000  O
  O164     1.0000 0.04199  0.56902  0.43482  Biso   1.000  O
  C252     1.0000 0.12161  0.96902  0.26802  Biso   1.000  C
  S56      1.0000 0.14930  0.02507  0.13331  Biso   1.000  S
  C253     1.0000 0.29750  0.87359  0.39420  Biso   1.000  C
  O165     1.0000 0.34539  0.82798  0.31000  Biso   1.000  O
  O166     1.0000 0.30890  0.93070  0.29779  Biso   1.000  O
  C254     1.0000 0.98140  0.66842  0.22529  Biso   1.000  C
  C255     1.0000 0.97568  0.66519  0.32351  Biso   1.000  C
  F160     1.0000 0.14270  0.67678  0.41970  Biso   1.000  F
  F161     1.0000 0.11398  0.64289  0.49783  Biso   1.000  F
  F162     1.0000 0.07121  0.69691  0.44170  Biso   1.000  F
  C256     1.0000 0.07479  0.93329  0.26912  Biso   1.000  C
  H113     1.0000 0.12921  0.98232  0.30603  Biso   1.000  H
  H114     1.0000 0.11760  0.00559  0.24492  Biso   1.000  H
  C257     1.0000 0.15828  0.01750  0.05688  Biso   1.000  C
  O167     1.0000 0.19158  0.04621  0.15789  Biso   1.000  O
  O168     1.0000 0.10539  0.05522  0.13999  Biso   1.000  O
  F163     1.0000 0.29679  0.81861  0.41582  Biso   1.000  F
  F164     1.0000 0.25608  0.90028  0.40442  Biso   1.000  F
  F165     1.0000 0.33109  0.90651  0.41713  Biso   1.000  F
  C258     1.0000 0.96599  0.72909  0.22381  Biso   1.000  C
  O169     1.0000 0.99542  0.64081  0.17288  Biso   1.000  O
  C259     1.0000 0.96078  0.72558  0.32241  Biso   1.000  C
  H115     1.0000 0.97789  0.64460  0.35780  Biso   1.000  H
  C260     1.0000 0.05360  0.91362  0.22009  Biso   1.000  C
  C261     1.0000 0.05112  0.91971  0.31869  Biso   1.000  C
  F166     1.0000 0.19091  0.97650  0.04628  Biso   1.000  F
  F167     1.0000 0.17191  0.07248  0.03860  Biso   1.000  F
  F168     1.0000 0.11909  0.00162  0.03290  Biso   1.000  F
  H116     1.0000 0.96248  0.74912  0.18931  Biso   1.000  H
  C262     1.0000 0.95570  0.75960  0.27321  Biso   1.000  C
  S57      1.0000 0.95964  0.60042  0.13733  Biso   1.000  S
  O170     1.0000 0.95226  0.75559  0.37486  Biso   1.000  O
  C263     1.0000 0.01171  0.88098  0.22140  Biso   1.000  C
  H117     1.0000 0.06780  0.92239  0.18559  Biso   1.000  H
  C264     1.0000 0.00848  0.88809  0.32030  Biso   1.000  C
  O171     1.0000 0.07096  0.94118  0.37004  Biso   1.000  O
  C265     1.0000 0.94338  0.82738  0.27241  Biso   1.000  C
  C266     1.0000 0.94168  0.65559  0.08251  Biso   1.000  C
  O172     1.0000 0.91910  0.58610  0.16950  Biso   1.000  O
  O173     1.0000 0.98768  0.55559  0.10992  Biso   1.000  O
  S58      1.0000 0.90082  0.75379  0.40176  Biso   1.000  S
  C267     1.0000 0.98758  0.86671  0.27039  Biso   1.000  C
  O174     1.0000 0.99414  0.85628  0.16959  Biso   1.000  O
  H118     1.0000 0.99357  0.88098  0.35471  Biso   1.000  H
  S59      1.0000 0.09318  0.89589  0.41472  Biso   1.000  S
  H119     1.0000 0.92379  0.83629  0.23969  Biso   1.000  H
  H120     1.0000 0.92517  0.83772  0.30590  Biso   1.000  H
  F169     1.0000 0.91921  0.70189  0.10439  Biso   1.000  F
  F170     1.0000 0.91449  0.62659  0.04679  Biso   1.000  F
  F171     1.0000 0.98019  0.67539  0.05701  Biso   1.000  F
  C268     1.0000 0.91278  0.70411  0.46231  Biso   1.000  C
  O175     1.0000 0.89290  0.81260  0.42481  Biso   1.000  O
  O176     1.0000 0.86898  0.72262  0.36582  Biso   1.000  O
  S60      1.0000 0.95914  0.89372  0.13078  Biso   1.000  S
  C269     1.0000 0.05800  0.92211  0.47502  Biso   1.000  C
  O177     1.0000 0.08111  0.83532  0.40290  Biso   1.000  O
  O178     1.0000 0.13961  0.91380  0.42549  Biso   1.000  O
  F172     1.0000 0.92318  0.64829  0.44542  Biso   1.000  F
  F173     1.0000 0.94888  0.72498  0.49060  Biso   1.000  F
  F174     1.0000 0.87572  0.70319  0.49483  Biso   1.000  F
  C270     1.0000 0.99858  0.91482  0.07289  Biso   1.000  C
  O179     1.0000 0.94409  0.94760  0.15789  Biso   1.000  O
  O180     1.0000 0.92759  0.85060  0.10751  Biso   1.000  O
  F175     1.0000 0.06588  0.98190  0.48343  Biso   1.000  F
  F176     1.0000 0.01431  0.91279  0.46632  Biso   1.000  F
  F177     1.0000 0.07270  0.89049  0.51932  Biso   1.000  F
  F178     1.0000 0.02946  0.95619  0.08961  Biso   1.000  F
  F179     1.0000 0.02077  0.86560  0.05519  Biso   1.000  F
  F180     1.0000 0.97345  0.93740  0.03171  Biso   1.000  F
  C271     1.0000 0.72390  0.31348  0.31891  Biso   1.000  C
  C272     1.0000 0.76220  0.35628  0.29669  Biso   1.000  C
  H121     1.0000 0.71929  0.32068  0.35890  Biso   1.000  H
  H122     1.0000 0.69419  0.32202  0.29982  Biso   1.000  H
  C273     1.0000 0.73789  0.24612  0.30932  Biso   1.000  C
  C274     1.0000 0.76991  0.36620  0.24019  Biso   1.000  C
  C275     1.0000 0.79188  0.38781  0.33331  Biso   1.000  C
  C276     1.0000 0.77108  0.21611  0.34251  Biso   1.000  C
  C277     1.0000 0.71900  0.21168  0.26540  Biso   1.000  C
  O181     1.0000 0.73938  0.33620  0.20058  Biso   1.000  O
  C278     1.0000 0.80640  0.40162  0.21849  Biso   1.000  C
  C279     1.0000 0.82787  0.42479  0.31232  Biso   1.000  C
  H123     1.0000 0.78780  0.38398  0.37211  Biso   1.000  H
  C280     1.0000 0.78741  0.15789  0.33221  Biso   1.000  C
  O182     1.0000 0.79287  0.25069  0.38731  Biso   1.000  O
  C281     1.0000 0.73569  0.15300  0.25489  Biso   1.000  C
  H124     1.0000 0.69501  0.22821  0.24302  Biso   1.000  H
  S61      1.0000 0.69202  0.37004  0.18175  Biso   1.000  S
  C282     1.0000 0.83717  0.43158  0.25510  Biso   1.000  C
  H125     1.0000 0.81019  0.40531  0.17960  Biso   1.000  H
  O183     1.0000 0.85847  0.45480  0.35214  Biso   1.000  O
  H126     1.0000 0.81019  0.14081  0.35569  Biso   1.000  H
  C283     1.0000 0.77008  0.12419  0.28690  Biso   1.000  C
  S62      1.0000 0.76983  0.25411  0.44766  Biso   1.000  S
  O184     1.0000 0.71474  0.11939  0.20882  Biso   1.000  O
  O185     1.0000 0.65457  0.32798  0.18998  Biso   1.000  O
  C284     1.0000 0.70250  0.37359  0.10578  Biso   1.000  C
  O186     1.0000 0.69110  0.43070  0.20219  Biso   1.000  O
  C285     1.0000 0.87839  0.46902  0.23200  Biso   1.000  C
  S63      1.0000 0.85070  0.52507  0.36667  Biso   1.000  S
  C286     1.0000 0.78918  0.05988  0.27440  Biso   1.000  C
  C287     1.0000 0.80980  0.20448  0.48621  Biso   1.000  C
  O187     1.0000 0.72518  0.22729  0.44812  Biso   1.000  O
  O188     1.0000 0.77889  0.31468  0.46759  Biso   1.000  O
  S64      1.0000 0.72280  0.14538  0.14729  Biso   1.000  S
  F181     1.0000 0.70321  0.31861  0.08420  Biso   1.000  F
  F182     1.0000 0.74389  0.40028  0.09560  Biso   1.000  F
  F183     1.0000 0.66888  0.40651  0.08289  Biso   1.000  F
  H127     1.0000 0.87079  0.48232  0.19400  Biso   1.000  H
  H128     1.0000 0.88240  0.50559  0.25510  Biso   1.000  H
  C288     1.0000 0.92517  0.43329  0.23090  Biso   1.000  C
  C289     1.0000 0.84168  0.51750  0.44310  Biso   1.000  C
  O189     1.0000 0.80838  0.54621  0.34209  Biso   1.000  O
  O190     1.0000 0.89457  0.55522  0.35999  Biso   1.000  O
  H129     1.0000 0.77267  0.04289  0.24201  Biso   1.000  H
  H130     1.0000 0.78318  0.03319  0.30649  Biso   1.000  H
  C290     1.0000 0.84207  0.06182  0.26262  Biso   1.000  C
  F184     1.0000 0.80459  0.14709  0.47012  Biso   1.000  F
  F185     1.0000 0.80079  0.20882  0.54060  Biso   1.000  F
  F186     1.0000 0.85357  0.22041  0.47772  Biso   1.000  F
  C291     1.0000 0.72418  0.07151  0.11220  Biso   1.000  C
  O191     1.0000 0.76809  0.17230  0.14269  Biso   1.000  O
  O192     1.0000 0.68159  0.17678  0.12880  Biso   1.000  O
  C292     1.0000 0.94640  0.41362  0.27989  Biso   1.000  C
  C293     1.0000 0.94888  0.41971  0.18128  Biso   1.000  C
  F187     1.0000 0.80909  0.47650  0.45370  Biso   1.000  F
  F188     1.0000 0.82809  0.57248  0.46142  Biso   1.000  F
  F189     1.0000 0.88087  0.50162  0.46713  Biso   1.000  F
  C294     1.0000 0.87640  0.04418  0.30079  Biso   1.000  C
  C295     1.0000 0.85858  0.08421  0.21131  Biso   1.000  C
  F190     1.0000 0.75929  0.03781  0.13070  Biso   1.000  F
  F191     1.0000 0.73128  0.08070  0.05802  Biso   1.000  F
  F192     1.0000 0.68500  0.04178  0.11870  Biso   1.000  F
  C296     1.0000 0.98829  0.38098  0.27862  Biso   1.000  C
  H131     1.0000 0.93220  0.42239  0.31439  Biso   1.000  H
  C297     1.0000 0.99148  0.38809  0.17972  Biso   1.000  C
  O193     1.0000 0.92904  0.44118  0.12994  Biso   1.000  O
  C298     1.0000 0.92407  0.04561  0.29019  Biso   1.000  C
  O194     1.0000 0.86074  0.02692  0.35619  Biso   1.000  O
  C299     1.0000 0.90650  0.08601  0.20109  Biso   1.000  C
  H132     1.0000 0.83739  0.09792  0.18399  Biso   1.000  H
  C300     1.0000 0.01239  0.36671  0.22959  Biso   1.000  C
  O195     1.0000 0.00586  0.35628  0.33043  Biso   1.000  O
  H133     1.0000 0.00639  0.38098  0.14531  Biso   1.000  H
  S65      1.0000 0.90682  0.39589  0.08530  Biso   1.000  S
  H134     1.0000 0.94537  0.03269  0.31781  Biso   1.000  H
  C301     1.0000 0.94090  0.06630  0.23859  Biso   1.000  C
  S66      1.0000 0.86898  0.95817  0.37541  Biso   1.000  S
  O196     1.0000 0.92396  0.11168  0.14961  Biso   1.000  O
  C302     1.0000 0.05658  0.32738  0.22761  Biso   1.000  C
  S67      1.0000 0.04086  0.39372  0.36924  Biso   1.000  S
  C303     1.0000 0.94200  0.42211  0.02500  Biso   1.000  C
  O197     1.0000 0.91889  0.33532  0.09708  Biso   1.000  O
  O198     1.0000 0.86039  0.41380  0.07449  Biso   1.000  O
  C304     1.0000 0.99340  0.06921  0.22592  Biso   1.000  C
  C305     1.0000 0.82770  0.95960  0.43360  Biso   1.000  C
  O199     1.0000 0.91608  0.95180  0.39952  Biso   1.000  O
  O200     1.0000 0.85450  0.91731  0.33470  Biso   1.000  O
  S68      1.0000 0.91410  0.08430  0.08961  Biso   1.000  S
  C306     1.0000 0.04430  0.25960  0.22681  Biso   1.000  C
  H135     1.0000 0.07621  0.33629  0.26029  Biso   1.000  H
  H136     1.0000 0.07479  0.33772  0.19412  Biso   1.000  H
  C307     1.0000 0.00138  0.41482  0.42709  Biso   1.000  C
  O201     1.0000 0.05591  0.44760  0.34209  Biso   1.000  O
  O202     1.0000 0.07241  0.35060  0.39251  Biso   1.000  O
  F193     1.0000 0.93408  0.48190  0.01660  Biso   1.000  F
  F194     1.0000 0.98569  0.41279  0.03370  Biso   1.000  F
  F195     1.0000 0.92730  0.39049  0.98070  Biso   1.000  F
  C308     1.0000 0.01260  0.13449  0.22622  Biso   1.000  C
  H137     1.0000 0.99918  0.05078  0.18922  Biso   1.000  H
  H138     1.0000 0.01040  0.04492  0.25379  Biso   1.000  H
  F196     1.0000 0.83568  0.00388  0.46801  Biso   1.000  F
  F197     1.0000 0.82858  0.90748  0.45952  Biso   1.000  F
  F198     1.0000 0.78499  0.96930  0.41320  Biso   1.000  F
  C309     1.0000 0.89500  0.15619  0.05578  Biso   1.000  C
  O203     1.0000 0.87558  0.04289  0.08990  Biso   1.000  O
  O204     1.0000 0.95797  0.06902  0.06520  Biso   1.000  O
  C310     1.0000 0.03401  0.22909  0.27621  Biso   1.000  C
  C311     1.0000 0.03919  0.22558  0.17761  Biso   1.000  C
  F199     1.0000 0.97054  0.45619  0.41041  Biso   1.000  F
  F200     1.0000 0.97920  0.36560  0.44479  Biso   1.000  F
  F201     1.0000 0.02655  0.43740  0.46831  Biso   1.000  F
  C312     1.0000 0.01860  0.16842  0.27469  Biso   1.000  C
  C313     1.0000 0.02432  0.16519  0.17651  Biso   1.000  C
  F202     1.0000 0.85730  0.17678  0.08032  Biso   1.000  F
  F203     1.0000 0.88598  0.14289  0.00220  Biso   1.000  F
  F204     1.0000 0.92879  0.19691  0.05832  Biso   1.000  F
  H139     1.0000 0.03749  0.24912  0.31071  Biso   1.000  H
  O205     1.0000 0.04774  0.25559  0.12516  Biso   1.000  O
  O206     1.0000 0.00458  0.14081  0.32714  Biso   1.000  O
  H140     1.0000 0.02211  0.14460  0.14218  Biso   1.000  H
  S69      1.0000 0.09918  0.25379  0.09826  Biso   1.000  S
  S70      1.0000 0.04033  0.10042  0.36270  Biso   1.000  S
  C314     1.0000 0.08718  0.20411  0.03771  Biso   1.000  C
  O207     1.0000 0.10710  0.31260  0.07521  Biso   1.000  O
  O208     1.0000 0.13099  0.22262  0.13420  Biso   1.000  O
  C315     1.0000 0.05829  0.15559  0.41751  Biso   1.000  C
  O209     1.0000 0.08090  0.08610  0.33052  Biso   1.000  O
  O210     1.0000 0.01228  0.05559  0.39010  Biso   1.000  O
  F205     1.0000 0.07682  0.14829  0.05460  Biso   1.000  F
  F206     1.0000 0.05112  0.22498  0.00942  Biso   1.000  F
  F207     1.0000 0.12424  0.20319  0.00519  Biso   1.000  F
  F208     1.0000 0.08079  0.20189  0.39559  Biso   1.000  F
  F209     1.0000 0.08551  0.12659  0.45319  Biso   1.000  F
  F210     1.0000 0.01981  0.17539  0.44301  Biso   1.000  F
  C316     1.0000 0.27610  0.68652  0.68109  Biso   1.000  C
  C317     1.0000 0.23780  0.64372  0.70331  Biso   1.000  C
  H141     1.0000 0.28068  0.67932  0.64110  Biso   1.000  H
  H142     1.0000 0.30581  0.67798  0.70022  Biso   1.000  H
  C318     1.0000 0.26211  0.75388  0.69072  Biso   1.000  C
  C319     1.0000 0.20809  0.61219  0.66669  Biso   1.000  C
  C320     1.0000 0.23009  0.63380  0.75981  Biso   1.000  C
  C321     1.0000 0.22889  0.78389  0.65753  Biso   1.000  C
  C322     1.0000 0.28100  0.78832  0.73460  Biso   1.000  C
  C323     1.0000 0.17209  0.57521  0.68772  Biso   1.000  C
  H143     1.0000 0.21220  0.61602  0.62793  Biso   1.000  H
  C324     1.0000 0.19360  0.59838  0.78151  Biso   1.000  C
  O211     1.0000 0.26059  0.66380  0.79942  Biso   1.000  O
  C325     1.0000 0.21259  0.84211  0.66779  Biso   1.000  C
  O212     1.0000 0.20713  0.74931  0.61273  Biso   1.000  O
  C326     1.0000 0.26428  0.84700  0.74511  Biso   1.000  C
  H144     1.0000 0.30499  0.77179  0.75702  Biso   1.000  H
  O213     1.0000 0.14149  0.54520  0.64786  Biso   1.000  O
  C327     1.0000 0.16279  0.56842  0.74490  Biso   1.000  C
  H145     1.0000 0.18981  0.59469  0.82040  Biso   1.000  H
  S71      1.0000 0.30798  0.62996  0.81829  Biso   1.000  S
  H146     1.0000 0.18981  0.85919  0.64431  Biso   1.000  H
  C328     1.0000 0.22988  0.87581  0.71310  Biso   1.000  C
  S72      1.0000 0.23013  0.74589  0.55238  Biso   1.000  S
  O214     1.0000 0.28522  0.88061  0.79123  Biso   1.000  O
  S73      1.0000 0.14930  0.47493  0.63333  Biso   1.000  S
  C329     1.0000 0.12161  0.53098  0.76800  Biso   1.000  C
  C330     1.0000 0.29750  0.62641  0.89422  Biso   1.000  C
  O215     1.0000 0.34539  0.67202  0.81002  Biso   1.000  O
  O216     1.0000 0.30890  0.56930  0.79781  Biso   1.000  O
  C331     1.0000 0.21078  0.94012  0.72560  Biso   1.000  C
  C332     1.0000 0.19020  0.79552  0.51383  Biso   1.000  C
  O217     1.0000 0.27479  0.77271  0.55192  Biso   1.000  O
  O218     1.0000 0.22111  0.68532  0.53241  Biso   1.000  O
  S74      1.0000 0.27720  0.85462  0.85271  Biso   1.000  S
  C333     1.0000 0.15828  0.48250  0.55690  Biso   1.000  C
  O219     1.0000 0.19158  0.45379  0.65791  Biso   1.000  O
  O220     1.0000 0.10539  0.44478  0.64001  Biso   1.000  O
  H147     1.0000 0.12921  0.51768  0.80600  Biso   1.000  H
  H148     1.0000 0.11760  0.49441  0.74490  Biso   1.000  H
  C334     1.0000 0.07479  0.56671  0.76910  Biso   1.000  C
  F211     1.0000 0.29679  0.68139  0.91580  Biso   1.000  F
  F212     1.0000 0.25608  0.59972  0.90444  Biso   1.000  F
  F213     1.0000 0.33109  0.59349  0.91711  Biso   1.000  F
  H149     1.0000 0.22729  0.95711  0.75803  Biso   1.000  H
  H150     1.0000 0.21678  0.96681  0.69351  Biso   1.000  H
  C335     1.0000 0.15789  0.93818  0.73743  Biso   1.000  C
  F214     1.0000 0.19541  0.85291  0.52992  Biso   1.000  F
  F215     1.0000 0.19921  0.79118  0.45940  Biso   1.000  F
  F216     1.0000 0.14639  0.77959  0.52232  Biso   1.000  F
  C336     1.0000 0.27578  0.92849  0.88780  Biso   1.000  C
  O221     1.0000 0.23191  0.82770  0.85731  Biso   1.000  O
  O222     1.0000 0.31841  0.82322  0.87120  Biso   1.000  O
  F217     1.0000 0.19091  0.52350  0.54630  Biso   1.000  F
  F218     1.0000 0.17191  0.42752  0.53862  Biso   1.000  F
  F219     1.0000 0.11909  0.49838  0.53292  Biso   1.000  F
  C337     1.0000 0.05360  0.58638  0.72011  Biso   1.000  C
  C338     1.0000 0.05112  0.58029  0.81872  Biso   1.000  C
  C339     1.0000 0.12360  0.95582  0.69921  Biso   1.000  C
  C340     1.0000 0.14139  0.91579  0.78873  Biso   1.000  C
  F220     1.0000 0.24071  0.96219  0.86930  Biso   1.000  F
  F221     1.0000 0.26868  0.91930  0.94202  Biso   1.000  F
  F222     1.0000 0.31500  0.95822  0.88130  Biso   1.000  F
  C341     1.0000 0.01171  0.61902  0.72142  Biso   1.000  C
  H151     1.0000 0.06780  0.57761  0.68561  Biso   1.000  H
  C342     1.0000 0.00848  0.61191  0.82032  Biso   1.000  C
  O223     1.0000 0.07096  0.55882  0.87006  Biso   1.000  O
  C343     1.0000 0.07589  0.95439  0.70981  Biso   1.000  C
  O224     1.0000 0.13922  0.97308  0.64381  Biso   1.000  O
  C344     1.0000 0.09350  0.91399  0.79891  Biso   1.000  C
  H152     1.0000 0.16261  0.90208  0.81601  Biso   1.000  H
  C345     1.0000 0.98758  0.63329  0.77041  Biso   1.000  C
  O225     1.0000 0.99414  0.64372  0.66957  Biso   1.000  O
  H153     1.0000 0.99357  0.61902  0.85469  Biso   1.000  H
  S75      1.0000 0.09318  0.60411  0.91474  Biso   1.000  S
  H154     1.0000 0.05460  0.96731  0.68219  Biso   1.000  H
  C346     1.0000 0.05910  0.93370  0.76141  Biso   1.000  C
  S76      1.0000 0.13102  0.04183  0.62459  Biso   1.000  S
  O226     1.0000 0.07604  0.88832  0.85043  Biso   1.000  O
  C347     1.0000 0.94338  0.67262  0.77243  Biso   1.000  C
  S77      1.0000 0.95914  0.60628  0.63076  Biso   1.000  S
  C348     1.0000 0.05800  0.57789  0.97500  Biso   1.000  C
  O227     1.0000 0.08111  0.66468  0.90292  Biso   1.000  O
  O228     1.0000 0.13961  0.58620  0.92551  Biso   1.000  O
  C349     1.0000 0.00660  0.93079  0.77412  Biso   1.000  C
  C350     1.0000 0.17230  0.04040  0.56640  Biso   1.000  C
  O229     1.0000 0.08392  0.04820  0.60052  Biso   1.000  O
  O230     1.0000 0.14550  0.08269  0.66530  Biso   1.000  O
  S78      1.0000 0.08590  0.91570  0.91043  Biso   1.000  S
  C351     1.0000 0.95570  0.74040  0.77319  Biso   1.000  C
  H155     1.0000 0.92379  0.66371  0.73971  Biso   1.000  H
  H156     1.0000 0.92517  0.66228  0.80592  Biso   1.000  H
  C352     1.0000 0.99858  0.58518  0.57291  Biso   1.000  C
  O231     1.0000 0.94409  0.55240  0.65791  Biso   1.000  O
  O232     1.0000 0.92759  0.64940  0.60749  Biso   1.000  O
  F223     1.0000 0.06588  0.51810  0.98340  Biso   1.000  F
  F224     1.0000 0.01431  0.58721  0.96630  Biso   1.000  F
  F225     1.0000 0.07270  0.60951  0.01930  Biso   1.000  F
  C353     1.0000 0.98740  0.86551  0.77383  Biso   1.000  C
  H157     1.0000 0.00082  0.94922  0.81082  Biso   1.000  H
  H158     1.0000 0.98960  0.95508  0.74621  Biso   1.000  H
  F226     1.0000 0.16428  0.99612  0.53203  Biso   1.000  F
  F227     1.0000 0.17138  0.09252  0.54052  Biso   1.000  F
  F228     1.0000 0.21501  0.03070  0.58680  Biso   1.000  F
  C354     1.0000 0.10500  0.84381  0.94422  Biso   1.000  C
  O233     1.0000 0.12438  0.95711  0.91010  Biso   1.000  O
  O234     1.0000 0.04199  0.93098  0.93480  Biso   1.000  O
  C355     1.0000 0.96599  0.77091  0.72383  Biso   1.000  C
  C356     1.0000 0.96078  0.77442  0.82243  Biso   1.000  C
  F229     1.0000 0.02946  0.54381  0.58963  Biso   1.000  F
  F230     1.0000 0.02077  0.63440  0.55521  Biso   1.000  F
  F231     1.0000 0.97345  0.56260  0.53173  Biso   1.000  F
  C357     1.0000 0.98140  0.83158  0.72531  Biso   1.000  C
  C358     1.0000 0.97568  0.83481  0.82353  Biso   1.000  C
  F232     1.0000 0.14270  0.82322  0.91972  Biso   1.000  F
  F233     1.0000 0.11398  0.85711  0.99780  Biso   1.000  F
  F234     1.0000 0.07121  0.80309  0.94173  Biso   1.000  F
  H159     1.0000 0.96248  0.75088  0.68933  Biso   1.000  H
  O235     1.0000 0.95226  0.74441  0.87484  Biso   1.000  O
  O236     1.0000 0.99542  0.85919  0.67286  Biso   1.000  O
  H160     1.0000 0.97789  0.85540  0.85782  Biso   1.000  H
  S79      1.0000 0.90082  0.74621  0.90174  Biso   1.000  S
  S80      1.0000 0.95964  0.89958  0.63735  Biso   1.000  S
  C359     1.0000 0.91278  0.79589  0.96233  Biso   1.000  C
  O237     1.0000 0.89290  0.68740  0.92483  Biso   1.000  O
  O238     1.0000 0.86898  0.77738  0.86580  Biso   1.000  O
  C360     1.0000 0.94168  0.84441  0.58249  Biso   1.000  C
  O239     1.0000 0.91910  0.91390  0.66952  Biso   1.000  O
  O240     1.0000 0.98768  0.94441  0.60990  Biso   1.000  O
  F235     1.0000 0.92318  0.85171  0.94540  Biso   1.000  F
  F236     1.0000 0.94888  0.77498  0.99063  Biso   1.000  F
  F237     1.0000 0.87572  0.79681  0.99481  Biso   1.000  F
  F238     1.0000 0.91921  0.79811  0.60441  Biso   1.000  F
  F239     1.0000 0.91449  0.87341  0.54681  Biso   1.000  F
  F240     1.0000 0.98019  0.82461  0.55703  Biso   1.000  F
  Ne1      1.0000 0.38937  0.24810  0.24594  Biso   1.000  Ne
  He1      1.0000 0.32484  0.28781  0.36137  Biso   1.000  He
  He2      1.0000 0.49694  0.32448  0.40841  Biso   1.000  He
  He3      1.0000 0.41920  0.13177  0.08640  Biso   1.000  He
  Ar1      1.0000 0.38639  0.25330  0.24287  Biso   1.000  Ar
  Ne2      1.0000 0.11062  0.74810  0.24594  Biso   1.000  Ne
  He4      1.0000 0.18365  0.79610  0.38074  Biso   1.000  He
  He5      1.0000 0.09679  0.66991  0.12776  Biso   1.000  He
  Ar2      1.0000 0.11375  0.75346  0.24322  Biso   1.000  Ar
  Ne3      1.0000 0.38937  0.25190  0.74595  Biso   1.000  Ne
  He6      1.0000 0.32600  0.21341  0.85911  Biso   1.000  He
  He7      1.0000 0.37546  0.13633  0.55615  Biso   1.000  He
  Ar3      1.0000 0.38624  0.24655  0.74323  Biso   1.000  Ar
  Ne4      1.0000 0.61062  0.74810  0.25406  Biso   1.000  Ne
  He8      1.0000 0.59627  0.66814  0.37380  Biso   1.000  He
  He9      1.0000 0.67537  0.78802  0.13821  Biso   1.000  He
  Ar4      1.0000 0.61359  0.75324  0.25717  Biso   1.000  Ar
  Ne5      1.0000 0.11062  0.75190  0.74595  Biso   1.000  Ne
  He10     1.0000 0.18178  0.70431  0.87771  Biso   1.000  He
  He11     1.0000 0.08077  0.86846  0.58610  Biso   1.000  He
  Ar5      1.0000 0.11344  0.74679  0.74272  Biso   1.000  Ar
  Ne6      1.0000 0.88936  0.24810  0.25406  Biso   1.000  Ne
  He12     1.0000 0.91918  0.13245  0.41270  Biso   1.000  He
  He13     1.0000 0.81611  0.29610  0.11895  Biso   1.000  He
  Ar6      1.0000 0.88626  0.25345  0.25678  Biso   1.000  Ar
  Ne7      1.0000 0.61062  0.75190  0.75407  Biso   1.000  Ne
  He14     1.0000 0.58081  0.86759  0.91272  Biso   1.000  He
  He15     1.0000 0.67506  0.71228  0.63880  Biso   1.000  He
  Ar7      1.0000 0.61357  0.74660  0.75674  Biso   1.000  Ar
  Ne8      1.0000 0.88936  0.25190  0.75407  Biso   1.000  Ne
  He16     1.0000 0.91916  0.36693  0.91187  Biso   1.000  He
  He17     1.0000 0.80426  0.20639  0.52801  Biso   1.000  He
  He18     1.0000 0.97662  0.23261  0.58795  Biso   1.000  He
  Ar8      1.0000 0.88641  0.24671  0.75722  Biso   1.000  Ar
