data_image0
_cell_length_a       14.105
_cell_length_b       18.436
_cell_length_c       22.291
_cell_angle_alpha    70.38
_cell_angle_beta     88.36
_cell_angle_gamma    89.41

_symmetry_space_group_name_H-M    "P 1"
_symmetry_int_tables_number       1

loop_
  _symmetry_equiv_pos_as_xyz
  'x, y, z'

loop_
  _atom_site_label
  _atom_site_occupancy
  _atom_site_fract_x
  _atom_site_fract_y
  _atom_site_fract_z
  _atom_site_thermal_displace_type
  _atom_site_B_iso_or_equiv
  _atom_site_type_symbol
  N1       1.0000 0.22592  0.55109  0.83981  Biso   1.000  N
  C1       1.0000 0.27071  0.60063  0.78950  Biso   1.000  C
  H1       1.0000 0.16627  0.56101  0.84691  Biso   1.000  H
  C2       1.0000 0.26649  0.48394  0.88297  Biso   1.000  C
  C3       1.0000 0.26649  0.48387  0.88302  Biso   1.000  C
  C4       1.0000 0.21558  0.67121  0.75057  Biso   1.000  C
  C5       1.0000 0.21558  0.67119  0.75062  Biso   1.000  C
  O1       1.0000 0.35092  0.59015  0.77468  Biso   1.000  O
  O2       1.0000 0.35092  0.59009  0.77468  Biso   1.000  O
  C6       1.0000 0.23951  0.41132  0.88188  Biso   1.000  C
  C7       1.0000 0.33044  0.49003  0.92666  Biso   1.000  C
  C8       1.0000 0.33043  0.49001  0.92671  Biso   1.000  C
  C9       1.0000 0.25292  0.71792  0.69478  Biso   1.000  C
  C10      1.0000 0.12817  0.69063  0.77130  Biso   1.000  C
  C11      1.0000 0.27562  0.34664  0.92566  Biso   1.000  C
  C12      1.0000 0.17070  0.40500  0.83300  Biso   1.000  C
  C13      1.0000 0.27562  0.34662  0.92571  Biso   1.000  C
  C14      1.0000 0.36511  0.42175  0.97197  Biso   1.000  C
  C15      1.0000 0.35619  0.56670  0.93009  Biso   1.000  C
  C16      1.0000 0.36511  0.42167  0.97202  Biso   1.000  C
  N2       1.0000 0.21901  0.78900  0.66320  Biso   1.000  N
  C17      1.0000 0.20399  0.77699  0.65081  Biso   1.000  C
  H2       1.0000 0.30588  0.69992  0.67658  Biso   1.000  H
  C18      1.0000 0.08053  0.75564  0.73299  Biso   1.000  C
  C19      1.0000 0.08053  0.75558  0.73299  Biso   1.000  C
  H3       1.0000 0.10112  0.65980  0.81118  Biso   1.000  H
  H4       1.0000 0.10111  0.65978  0.81122  Biso   1.000  H
  H5       1.0000 0.25748  0.29765  0.92447  Biso   1.000  H
  C20      1.0000 0.33930  0.34981  0.97307  Biso   1.000  C
  H6       1.0000 0.25748  0.29757  0.92452  Biso   1.000  H
  C21      1.0000 0.33930  0.34979  0.97311  Biso   1.000  C
  H7       1.0000 0.15259  0.45682  0.80570  Biso   1.000  H
  H8       1.0000 0.20089  0.37732  0.80698  Biso   1.000  H
  H9       1.0000 0.11401  0.37702  0.85477  Biso   1.000  H
  H10      1.0000 0.11401  0.37700  0.85482  Biso   1.000  H
  H11      1.0000 0.40789  0.42591  0.00289  Biso   1.000  H
  H12      1.0000 0.32529  0.60732  0.89589  Biso   1.000  H
  H13      1.0000 0.33521  0.56990  0.97140  Biso   1.000  H
  H14      1.0000 0.42524  0.57350  0.92509  Biso   1.000  H
  H15      1.0000 0.42517  0.57350  0.92509  Biso   1.000  H
  C22      1.0000 0.23999  0.82268  0.58430  Biso   1.000  C
  C23      1.0000 0.12430  0.79985  0.67696  Biso   1.000  C
  C24      1.0000 0.12430  0.79977  0.67701  Biso   1.000  C
  C25      1.0000 0.98783  0.77871  0.75367  Biso   1.000  C
  C26      1.0000 0.98783  0.77869  0.75372  Biso   1.000  C
  C27      1.0000 0.37072  0.27715  0.02729  Biso   1.000  C
  C28      1.0000 0.37072  0.27709  0.02729  Biso   1.000  C
  C29      1.0000 0.24823  0.76819  0.54680  Biso   1.000  C
  C30      1.0000 0.34748  0.85950  0.58420  Biso   1.000  C
  C31      1.0000 0.17098  0.89009  0.54771  Biso   1.000  C
  H16      1.0000 0.08870  0.83862  0.64690  Biso   1.000  H
  N3       1.0000 0.93700  0.72303  0.79679  Biso   1.000  N
  O3       1.0000 0.95929  0.84685  0.73118  Biso   1.000  O
  O4       1.0000 0.95929  0.84680  0.73118  Biso   1.000  O
  C32      1.0000 0.46997  0.28671  0.04958  Biso   1.000  C
  C33      1.0000 0.37241  0.20271  0.00899  Biso   1.000  C
  C34      1.0000 0.29138  0.26846  0.08026  Biso   1.000  C
  C35      1.0000 0.29138  0.26838  0.08031  Biso   1.000  C
  C36      1.0000 0.20600  0.82050  0.48539  Biso   1.000  C
  H17      1.0000 0.27447  0.79571  0.50411  Biso   1.000  H
  H18      1.0000 0.29021  0.72540  0.56872  Biso   1.000  H
  H19      1.0000 0.18528  0.74819  0.54328  Biso   1.000  H
  H20      1.0000 0.37250  0.88067  0.54032  Biso   1.000  H
  H21      1.0000 0.34317  0.90047  0.60302  Biso   1.000  H
  H22      1.0000 0.38992  0.81888  0.60931  Biso   1.000  H
  Cl1      1.0000 0.10761  0.86531  0.51078  Biso   1.000  Cl
  H23      1.0000 0.18762  0.90787  0.50202  Biso   1.000  H
  H24      1.0000 0.10543  0.87141  0.55419  Biso   1.000  H
  H25      1.0000 0.17711  0.93301  0.56400  Biso   1.000  H
  C37      1.0000 0.85720  0.73310  0.83400  Biso   1.000  C
  H26      1.0000 0.95489  0.67530  0.80279  Biso   1.000  H
  H27      1.0000 0.48251  0.24365  0.08927  Biso   1.000  H
  H28      1.0000 0.47199  0.33514  0.05949  Biso   1.000  H
  C38      1.0000 0.54840  0.28874  0.00018  Biso   1.000  C
  H29      1.0000 0.48251  0.24358  0.08932  Biso   1.000  H
  H30      1.0000 0.47199  0.33509  0.05949  Biso   1.000  H
  C39      1.0000 0.54840  0.28869  0.00018  Biso   1.000  C
  C40      1.0000 0.45131  0.20233  0.96220  Biso   1.000  C
  H31      1.0000 0.31100  0.19761  0.99041  Biso   1.000  H
  C41      1.0000 0.45131  0.20228  0.96220  Biso   1.000  C
  H32      1.0000 0.37961  0.15750  0.04811  Biso   1.000  H
  C42      1.0000 0.20377  0.23722  0.07650  Biso   1.000  C
  C43      1.0000 0.30459  0.29605  0.12939  Biso   1.000  C
  C44      1.0000 0.30459  0.29599  0.12939  Biso   1.000  C
  H33      1.0000 0.19997  0.82688  0.43970  Biso   1.000  H
  Cl2      1.0000 0.21077  0.72299  0.52960  Biso   1.000  Cl
  H34      1.0000 0.26527  0.84568  0.49030  Biso   1.000  H
  C45      1.0000 0.76962  0.70322  0.82756  Biso   1.000  C
  C46      1.0000 0.87067  0.76463  0.88250  Biso   1.000  C
  C47      1.0000 0.76962  0.70320  0.82761  Biso   1.000  C
  C48      1.0000 0.87067  0.76458  0.88250  Biso   1.000  C
  H35      1.0000 0.53809  0.33311  0.96087  Biso   1.000  H
  C49      1.0000 0.54871  0.21642  0.98498  Biso   1.000  C
  H36      1.0000 0.53809  0.33309  0.96092  Biso   1.000  H
  H37      1.0000 0.61071  0.29554  0.01699  Biso   1.000  H
  H38      1.0000 0.61071  0.29548  0.01699  Biso   1.000  H
  H39      1.0000 0.45202  0.15203  0.95530  Biso   1.000  H
  H40      1.0000 0.43888  0.24279  0.92090  Biso   1.000  H
  H41      1.0000 0.19498  0.21593  0.04367  Biso   1.000  H
  C50      1.0000 0.12927  0.23541  0.11747  Biso   1.000  C
  H42      1.0000 0.19498  0.21591  0.04372  Biso   1.000  H
  C51      1.0000 0.12927  0.23539  0.11752  Biso   1.000  C
  H43      1.0000 0.36523  0.31500  0.13429  Biso   1.000  H
  C52      1.0000 0.23039  0.29682  0.17241  Biso   1.000  C
  C53      1.0000 0.69542  0.70405  0.87059  Biso   1.000  C
  C54      1.0000 0.75701  0.66644  0.77730  Biso   1.000  C
  C55      1.0000 0.69542  0.70399  0.87059  Biso   1.000  C
  C56      1.0000 0.75701  0.66638  0.77730  Biso   1.000  C
  C57      1.0000 0.79618  0.76282  0.92347  Biso   1.000  C
  C58      1.0000 0.96453  0.79884  0.88817  Biso   1.000  C
  C59      1.0000 0.79617  0.76280  0.92352  Biso   1.000  C
  C60      1.0000 0.96453  0.79877  0.88821  Biso   1.000  C
  H44      1.0000 0.59741  0.21972  0.95129  Biso   1.000  H
  H45      1.0000 0.56521  0.17274  0.02338  Biso   1.000  H
  H46      1.0000 0.56521  0.17268  0.02338  Biso   1.000  H
  C61      1.0000 0.14282  0.26694  0.16598  Biso   1.000  C
  C62      1.0000 0.03549  0.20120  0.11180  Biso   1.000  C
  C63      1.0000 0.14282  0.26686  0.16602  Biso   1.000  C
  C64      1.0000 0.24301  0.33360  0.22267  Biso   1.000  C
  C65      1.0000 0.24301  0.33358  0.22272  Biso   1.000  C
  C66      1.0000 0.70857  0.73164  0.91971  Biso   1.000  C
  H47      1.0000 0.63479  0.68505  0.86568  Biso   1.000  H
  C67      1.0000 0.70857  0.73158  0.91971  Biso   1.000  C
  H48      1.0000 0.63479  0.68499  0.86568  Biso   1.000  H
  H49      1.0000 0.81560  0.67202  0.75138  Biso   1.000  H
  H50      1.0000 0.74250  0.61164  0.79779  Biso   1.000  H
  H51      1.0000 0.70481  0.69171  0.74991  Biso   1.000  H
  H52      1.0000 0.74250  0.61158  0.79779  Biso   1.000  H
  H53      1.0000 0.80504  0.78411  0.95630  Biso   1.000  H
  H54      1.0000 0.80497  0.78411  0.95630  Biso   1.000  H
  H55      1.0000 0.00787  0.79574  0.85410  Biso   1.000  H
  H56      1.0000 0.00787  0.79568  0.85410  Biso   1.000  H
  H57      1.0000 0.95567  0.85282  0.88469  Biso   1.000  H
  H58      1.0000 0.99119  0.77022  0.92957  Biso   1.000  H
  H59      1.0000 0.99119  0.77020  0.92962  Biso   1.000  H
  N4       1.0000 0.06302  0.27701  0.20318  Biso   1.000  N
  H60      1.0000 0.99207  0.20431  0.14587  Biso   1.000  H
  H61      1.0000 0.99207  0.20429  0.14592  Biso   1.000  H
  H62      1.0000 0.04428  0.14723  0.11528  Biso   1.000  H
  H63      1.0000 0.00883  0.22982  0.07040  Biso   1.000  H
  H64      1.0000 0.18442  0.32803  0.24859  Biso   1.000  H
  H65      1.0000 0.25752  0.38840  0.20218  Biso   1.000  H
  H66      1.0000 0.29521  0.30833  0.25007  Biso   1.000  H
  H67      1.0000 0.29521  0.30831  0.25011  Biso   1.000  H
  C68      1.0000 0.62930  0.72295  0.97269  Biso   1.000  C
  C69      1.0000 0.62930  0.72289  0.97269  Biso   1.000  C
  C70      1.0000 0.01219  0.22133  0.24630  Biso   1.000  C
  H68      1.0000 0.04513  0.32474  0.19718  Biso   1.000  H
  C71      1.0000 0.01219  0.22128  0.24630  Biso   1.000  C
  H69      1.0000 0.04513  0.32469  0.19718  Biso   1.000  H
  C72      1.0000 0.52997  0.71333  0.95039  Biso   1.000  C
  C73      1.0000 0.62761  0.79733  0.99098  Biso   1.000  C
  C74      1.0000 0.52997  0.71328  0.95039  Biso   1.000  C
  C75      1.0000 0.66072  0.65023  0.02690  Biso   1.000  C
  C76      1.0000 0.66072  0.65018  0.02690  Biso   1.000  C
  C77      1.0000 0.91948  0.24441  0.26698  Biso   1.000  C
  O5       1.0000 0.04073  0.15325  0.26879  Biso   1.000  O
  O6       1.0000 0.04073  0.15319  0.26879  Biso   1.000  O
  H70      1.0000 0.51751  0.75639  0.91070  Biso   1.000  H
  H71      1.0000 0.52802  0.66490  0.94048  Biso   1.000  H
  C78      1.0000 0.45162  0.71130  0.99980  Biso   1.000  C
  H72      1.0000 0.62040  0.84254  0.95187  Biso   1.000  H
  H73      1.0000 0.62040  0.84247  0.95191  Biso   1.000  H
  C79      1.0000 0.54871  0.79771  0.03777  Biso   1.000  C
  H74      1.0000 0.68902  0.80243  0.00956  Biso   1.000  H
  C80      1.0000 0.54871  0.79769  0.03781  Biso   1.000  C
  H75      1.0000 0.68902  0.80241  0.00961  Biso   1.000  H
  C81      1.0000 0.72440  0.65341  0.07431  Biso   1.000  C
  C82      1.0000 0.63491  0.57830  0.02800  Biso   1.000  C
  C83      1.0000 0.87178  0.30942  0.22867  Biso   1.000  C
  C84      1.0000 0.87572  0.20020  0.32301  Biso   1.000  C
  C85      1.0000 0.87178  0.30940  0.22872  Biso   1.000  C
  H76      1.0000 0.38931  0.70451  0.98298  Biso   1.000  H
  H77      1.0000 0.46193  0.66693  0.03910  Biso   1.000  H
  C86      1.0000 0.45131  0.78363  0.01499  Biso   1.000  C
  H78      1.0000 0.46193  0.66688  0.03910  Biso   1.000  H
  H79      1.0000 0.54800  0.84802  0.04468  Biso   1.000  H
  H80      1.0000 0.56114  0.75725  0.07907  Biso   1.000  H
  H81      1.0000 0.54800  0.84800  0.04472  Biso   1.000  H
  H82      1.0000 0.56107  0.75718  0.07912  Biso   1.000  H
  C87      1.0000 0.76051  0.58872  0.11809  Biso   1.000  C
  H83      1.0000 0.74247  0.70239  0.07550  Biso   1.000  H
  H84      1.0000 0.59212  0.57413  0.99708  Biso   1.000  H
  C88      1.0000 0.66958  0.51001  0.07331  Biso   1.000  C
  C89      1.0000 0.78437  0.32884  0.24940  Biso   1.000  C
  C90      1.0000 0.78437  0.32878  0.24940  Biso   1.000  C
  H85      1.0000 0.89890  0.34024  0.18880  Biso   1.000  H
  H86      1.0000 0.89890  0.34019  0.18880  Biso   1.000  H
  N5       1.0000 0.78101  0.21105  0.33678  Biso   1.000  N
  H87      1.0000 0.91132  0.16142  0.35307  Biso   1.000  H
  N6       1.0000 0.78101  0.21099  0.33678  Biso   1.000  N
  H88      1.0000 0.91132  0.16140  0.35312  Biso   1.000  H
  C91      1.0000 0.79603  0.22305  0.34916  Biso   1.000  C
  H89      1.0000 0.43480  0.82730  0.97659  Biso   1.000  H
  H90      1.0000 0.40261  0.78032  0.04868  Biso   1.000  H
  C92      1.0000 0.73353  0.51610  0.11700  Biso   1.000  C
  C93      1.0000 0.82932  0.59504  0.16698  Biso   1.000  C
  C94      1.0000 0.82932  0.59496  0.16702  Biso   1.000  C
  C95      1.0000 0.64383  0.43334  0.06988  Biso   1.000  C
  C96      1.0000 0.64383  0.43329  0.06988  Biso   1.000  C
  C97      1.0000 0.72931  0.39941  0.21047  Biso   1.000  C
  C98      1.0000 0.72931  0.39940  0.21052  Biso   1.000  C
  C99      1.0000 0.74710  0.28212  0.30519  Biso   1.000  C
  C100     1.0000 0.76003  0.17730  0.41567  Biso   1.000  C
  N7       1.0000 0.77410  0.44895  0.16016  Biso   1.000  N
  N8       1.0000 0.77410  0.44888  0.16021  Biso   1.000  N
  H91      1.0000 0.84743  0.54322  0.19428  Biso   1.000  H
  H92      1.0000 0.79913  0.62273  0.19299  Biso   1.000  H
  H93      1.0000 0.88601  0.62302  0.14520  Biso   1.000  H
  H94      1.0000 0.84743  0.54321  0.19432  Biso   1.000  H
  H95      1.0000 0.67473  0.39272  0.10409  Biso   1.000  H
  H96      1.0000 0.66481  0.43014  0.02857  Biso   1.000  H
  H97      1.0000 0.57478  0.42654  0.07488  Biso   1.000  H
  H98      1.0000 0.66481  0.43012  0.02862  Biso   1.000  H
  H99      1.0000 0.57478  0.42649  0.07488  Biso   1.000  H
  O7       1.0000 0.64910  0.40989  0.22529  Biso   1.000  O
  H100     1.0000 0.69413  0.30012  0.32339  Biso   1.000  H
  C101     1.0000 0.65247  0.14054  0.41577  Biso   1.000  C
  C102     1.0000 0.82897  0.10995  0.45226  Biso   1.000  C
  C103     1.0000 0.75178  0.23185  0.45317  Biso   1.000  C
  H101     1.0000 0.83368  0.43903  0.15306  Biso   1.000  H
  H102     1.0000 0.83368  0.43901  0.15311  Biso   1.000  H
  H103     1.0000 0.62752  0.11930  0.45970  Biso   1.000  H
  H104     1.0000 0.65678  0.09950  0.39700  Biso   1.000  H
  H105     1.0000 0.61010  0.18114  0.39071  Biso   1.000  H
  Cl3      1.0000 0.89241  0.13473  0.48919  Biso   1.000  Cl
  H106     1.0000 0.81240  0.09210  0.49800  Biso   1.000  H
  H107     1.0000 0.89459  0.12864  0.44578  Biso   1.000  H
  H108     1.0000 0.82291  0.06704  0.43597  Biso   1.000  H
  C104     1.0000 0.79402  0.17954  0.51458  Biso   1.000  C
  H109     1.0000 0.72548  0.20432  0.49591  Biso   1.000  H
  H110     1.0000 0.70980  0.27463  0.43130  Biso   1.000  H
  H111     1.0000 0.81474  0.25179  0.45669  Biso   1.000  H
  H112     1.0000 0.79998  0.17310  0.56027  Biso   1.000  H
  Cl4      1.0000 0.78918  0.27700  0.47037  Biso   1.000  Cl
  H113     1.0000 0.73468  0.15430  0.50967  Biso   1.000  H
  N9       1.0000 0.22592  0.55109  0.83981  Biso   1.000  N
  C105     1.0000 0.26649  0.48394  0.88297  Biso   1.000  C
  C106     1.0000 0.26649  0.48387  0.88302  Biso   1.000  C
  C107     1.0000 0.27071  0.60063  0.78950  Biso   1.000  C
  H114     1.0000 0.16627  0.56101  0.84691  Biso   1.000  H
  C108     1.0000 0.23951  0.41132  0.88188  Biso   1.000  C
  C109     1.0000 0.33044  0.49003  0.92666  Biso   1.000  C
  C110     1.0000 0.33043  0.49001  0.92671  Biso   1.000  C
  C111     1.0000 0.21558  0.67121  0.75057  Biso   1.000  C
  O8       1.0000 0.35092  0.59015  0.77468  Biso   1.000  O
  C112     1.0000 0.21558  0.67119  0.75062  Biso   1.000  C
  O9       1.0000 0.35092  0.59009  0.77468  Biso   1.000  O
  C113     1.0000 0.17070  0.40500  0.83300  Biso   1.000  C
  C114     1.0000 0.27562  0.34664  0.92566  Biso   1.000  C
  C115     1.0000 0.27562  0.34662  0.92571  Biso   1.000  C
  C116     1.0000 0.35619  0.56670  0.93009  Biso   1.000  C
  C117     1.0000 0.36511  0.42175  0.97197  Biso   1.000  C
  C118     1.0000 0.36511  0.42167  0.97202  Biso   1.000  C
  C119     1.0000 0.25292  0.71792  0.69478  Biso   1.000  C
  C120     1.0000 0.12817  0.69063  0.77130  Biso   1.000  C
  H115     1.0000 0.15259  0.45682  0.80570  Biso   1.000  H
  H116     1.0000 0.20089  0.37732  0.80698  Biso   1.000  H
  H117     1.0000 0.11401  0.37702  0.85477  Biso   1.000  H
  H118     1.0000 0.11401  0.37700  0.85482  Biso   1.000  H
  H119     1.0000 0.25748  0.29765  0.92447  Biso   1.000  H
  C121     1.0000 0.33930  0.34981  0.97307  Biso   1.000  C
  H120     1.0000 0.25748  0.29757  0.92452  Biso   1.000  H
  C122     1.0000 0.33930  0.34979  0.97311  Biso   1.000  C
  H121     1.0000 0.32529  0.60732  0.89589  Biso   1.000  H
  H122     1.0000 0.33521  0.56990  0.97140  Biso   1.000  H
  H123     1.0000 0.42524  0.57350  0.92509  Biso   1.000  H
  H124     1.0000 0.42517  0.57350  0.92509  Biso   1.000  H
  H125     1.0000 0.40789  0.42591  0.00289  Biso   1.000  H
  N10      1.0000 0.21901  0.78900  0.66320  Biso   1.000  N
  H126     1.0000 0.30588  0.69992  0.67658  Biso   1.000  H
  C123     1.0000 0.20399  0.77699  0.65081  Biso   1.000  C
  H127     1.0000 0.10112  0.65980  0.81118  Biso   1.000  H
  C124     1.0000 0.08053  0.75564  0.73299  Biso   1.000  C
  H128     1.0000 0.10111  0.65978  0.81122  Biso   1.000  H
  C125     1.0000 0.08053  0.75558  0.73299  Biso   1.000  C
  C126     1.0000 0.37072  0.27715  0.02729  Biso   1.000  C
  C127     1.0000 0.37072  0.27709  0.02729  Biso   1.000  C
  C128     1.0000 0.12430  0.79985  0.67696  Biso   1.000  C
  C129     1.0000 0.12430  0.79977  0.67701  Biso   1.000  C
  C130     1.0000 0.23999  0.82268  0.58430  Biso   1.000  C
  C131     1.0000 0.98783  0.77871  0.75367  Biso   1.000  C
  C132     1.0000 0.98783  0.77869  0.75372  Biso   1.000  C
  C133     1.0000 0.46997  0.28671  0.04958  Biso   1.000  C
  C134     1.0000 0.37241  0.20271  0.00899  Biso   1.000  C
  C135     1.0000 0.29138  0.26846  0.08026  Biso   1.000  C
  C136     1.0000 0.29138  0.26838  0.08031  Biso   1.000  C
  H129     1.0000 0.08870  0.83862  0.64690  Biso   1.000  H
  C137     1.0000 0.34748  0.85950  0.58420  Biso   1.000  C
  C138     1.0000 0.17098  0.89009  0.54771  Biso   1.000  C
  C139     1.0000 0.24823  0.76819  0.54680  Biso   1.000  C
  N11      1.0000 0.93700  0.72303  0.79679  Biso   1.000  N
  O10      1.0000 0.95929  0.84685  0.73118  Biso   1.000  O
  O11      1.0000 0.95929  0.84680  0.73118  Biso   1.000  O
  H130     1.0000 0.48251  0.24365  0.08927  Biso   1.000  H
  H131     1.0000 0.47199  0.33514  0.05949  Biso   1.000  H
  C140     1.0000 0.54840  0.28874  0.00018  Biso   1.000  C
  H132     1.0000 0.48251  0.24358  0.08932  Biso   1.000  H
  H133     1.0000 0.47199  0.33509  0.05949  Biso   1.000  H
  C141     1.0000 0.54840  0.28869  0.00018  Biso   1.000  C
  H134     1.0000 0.31100  0.19761  0.99041  Biso   1.000  H
  C142     1.0000 0.45131  0.20233  0.96220  Biso   1.000  C
  C143     1.0000 0.45131  0.20228  0.96220  Biso   1.000  C
  H135     1.0000 0.37961  0.15750  0.04811  Biso   1.000  H
  C144     1.0000 0.20377  0.23722  0.07650  Biso   1.000  C
  C145     1.0000 0.30459  0.29605  0.12939  Biso   1.000  C
  C146     1.0000 0.30459  0.29599  0.12939  Biso   1.000  C
  H136     1.0000 0.37250  0.88067  0.54032  Biso   1.000  H
  H137     1.0000 0.34317  0.90047  0.60302  Biso   1.000  H
  H138     1.0000 0.38992  0.81888  0.60931  Biso   1.000  H
  Cl5      1.0000 0.10761  0.86531  0.51078  Biso   1.000  Cl
  H139     1.0000 0.18762  0.90787  0.50202  Biso   1.000  H
  H140     1.0000 0.10543  0.87141  0.55419  Biso   1.000  H
  H141     1.0000 0.17711  0.93301  0.56400  Biso   1.000  H
  C147     1.0000 0.20600  0.82050  0.48539  Biso   1.000  C
  H142     1.0000 0.27447  0.79571  0.50411  Biso   1.000  H
  H143     1.0000 0.29021  0.72540  0.56872  Biso   1.000  H
  H144     1.0000 0.18528  0.74819  0.54328  Biso   1.000  H
  C148     1.0000 0.85720  0.73310  0.83400  Biso   1.000  C
  H145     1.0000 0.95489  0.67530  0.80279  Biso   1.000  H
  C149     1.0000 0.54871  0.21642  0.98498  Biso   1.000  C
  H146     1.0000 0.53809  0.33311  0.96087  Biso   1.000  H
  H147     1.0000 0.53809  0.33309  0.96092  Biso   1.000  H
  H148     1.0000 0.61071  0.29554  0.01699  Biso   1.000  H
  H149     1.0000 0.61071  0.29548  0.01699  Biso   1.000  H
  H150     1.0000 0.45202  0.15203  0.95530  Biso   1.000  H
  H151     1.0000 0.43888  0.24279  0.92090  Biso   1.000  H
  H152     1.0000 0.19498  0.21593  0.04367  Biso   1.000  H
  C150     1.0000 0.12927  0.23541  0.11747  Biso   1.000  C
  H153     1.0000 0.19498  0.21591  0.04372  Biso   1.000  H
  C151     1.0000 0.12927  0.23539  0.11752  Biso   1.000  C
  H154     1.0000 0.36523  0.31500  0.13429  Biso   1.000  H
  C152     1.0000 0.23039  0.29682  0.17241  Biso   1.000  C
  H155     1.0000 0.19997  0.82688  0.43970  Biso   1.000  H
  Cl6      1.0000 0.21077  0.72299  0.52960  Biso   1.000  Cl
  H156     1.0000 0.26527  0.84568  0.49030  Biso   1.000  H
  C153     1.0000 0.76962  0.70322  0.82756  Biso   1.000  C
  C154     1.0000 0.87067  0.76463  0.88250  Biso   1.000  C
  C155     1.0000 0.76962  0.70320  0.82761  Biso   1.000  C
  C156     1.0000 0.87067  0.76458  0.88250  Biso   1.000  C
  H157     1.0000 0.59741  0.21972  0.95129  Biso   1.000  H
  H158     1.0000 0.56521  0.17274  0.02338  Biso   1.000  H
  H159     1.0000 0.56521  0.17268  0.02338  Biso   1.000  H
  C157     1.0000 0.14282  0.26694  0.16598  Biso   1.000  C
  C158     1.0000 0.03549  0.20120  0.11180  Biso   1.000  C
  C159     1.0000 0.14282  0.26686  0.16602  Biso   1.000  C
  C160     1.0000 0.24301  0.33360  0.22267  Biso   1.000  C
  C161     1.0000 0.24301  0.33358  0.22272  Biso   1.000  C
  C162     1.0000 0.69542  0.70405  0.87059  Biso   1.000  C
  C163     1.0000 0.75701  0.66644  0.77730  Biso   1.000  C
  C164     1.0000 0.69542  0.70399  0.87059  Biso   1.000  C
  C165     1.0000 0.75701  0.66638  0.77730  Biso   1.000  C
  C166     1.0000 0.79618  0.76282  0.92347  Biso   1.000  C
  C167     1.0000 0.96453  0.79884  0.88817  Biso   1.000  C
  C168     1.0000 0.79617  0.76280  0.92352  Biso   1.000  C
  C169     1.0000 0.96453  0.79877  0.88821  Biso   1.000  C
  N12      1.0000 0.06302  0.27701  0.20318  Biso   1.000  N
  H160     1.0000 0.99207  0.20431  0.14587  Biso   1.000  H
  H161     1.0000 0.99207  0.20429  0.14592  Biso   1.000  H
  H162     1.0000 0.04428  0.14723  0.11528  Biso   1.000  H
  H163     1.0000 0.00883  0.22982  0.07040  Biso   1.000  H
  H164     1.0000 0.18442  0.32803  0.24859  Biso   1.000  H
  H165     1.0000 0.25752  0.38840  0.20218  Biso   1.000  H
  H166     1.0000 0.29521  0.30833  0.25007  Biso   1.000  H
  H167     1.0000 0.29521  0.30831  0.25011  Biso   1.000  H
  C170     1.0000 0.70857  0.73164  0.91971  Biso   1.000  C
  H168     1.0000 0.63479  0.68505  0.86568  Biso   1.000  H
  C171     1.0000 0.70857  0.73158  0.91971  Biso   1.000  C
  H169     1.0000 0.63479  0.68499  0.86568  Biso   1.000  H
  H170     1.0000 0.81560  0.67202  0.75138  Biso   1.000  H
  H171     1.0000 0.74250  0.61164  0.79779  Biso   1.000  H
  H172     1.0000 0.70481  0.69171  0.74991  Biso   1.000  H
  H173     1.0000 0.74250  0.61158  0.79779  Biso   1.000  H
  H174     1.0000 0.80504  0.78411  0.95630  Biso   1.000  H
  H175     1.0000 0.80497  0.78411  0.95630  Biso   1.000  H
  H176     1.0000 0.00787  0.79574  0.85410  Biso   1.000  H
  H177     1.0000 0.00787  0.79568  0.85410  Biso   1.000  H
  H178     1.0000 0.95567  0.85282  0.88469  Biso   1.000  H
  H179     1.0000 0.99119  0.77022  0.92957  Biso   1.000  H
  H180     1.0000 0.99119  0.77020  0.92962  Biso   1.000  H
  C172     1.0000 0.01219  0.22133  0.24630  Biso   1.000  C
  H181     1.0000 0.04513  0.32474  0.19718  Biso   1.000  H
  C173     1.0000 0.01219  0.22128  0.24630  Biso   1.000  C
  H182     1.0000 0.04513  0.32469  0.19718  Biso   1.000  H
  C174     1.0000 0.62930  0.72295  0.97269  Biso   1.000  C
  C175     1.0000 0.62930  0.72289  0.97269  Biso   1.000  C
  C176     1.0000 0.91948  0.24441  0.26698  Biso   1.000  C
  O12      1.0000 0.04073  0.15325  0.26879  Biso   1.000  O
  O13      1.0000 0.04073  0.15319  0.26879  Biso   1.000  O
  C177     1.0000 0.52997  0.71333  0.95039  Biso   1.000  C
  C178     1.0000 0.62761  0.79733  0.99098  Biso   1.000  C
  C179     1.0000 0.52997  0.71328  0.95039  Biso   1.000  C
  C180     1.0000 0.66072  0.65023  0.02690  Biso   1.000  C
  C181     1.0000 0.66072  0.65018  0.02690  Biso   1.000  C
  C182     1.0000 0.87178  0.30942  0.22867  Biso   1.000  C
  C183     1.0000 0.87572  0.20020  0.32301  Biso   1.000  C
  C184     1.0000 0.87178  0.30940  0.22872  Biso   1.000  C
  H183     1.0000 0.51751  0.75639  0.91070  Biso   1.000  H
  H184     1.0000 0.52802  0.66490  0.94048  Biso   1.000  H
  C185     1.0000 0.45162  0.71130  0.99980  Biso   1.000  C
  H185     1.0000 0.62040  0.84254  0.95187  Biso   1.000  H
  H186     1.0000 0.62040  0.84247  0.95191  Biso   1.000  H
  C186     1.0000 0.54871  0.79771  0.03777  Biso   1.000  C
  H187     1.0000 0.68902  0.80243  0.00956  Biso   1.000  H
  C187     1.0000 0.54871  0.79769  0.03781  Biso   1.000  C
  H188     1.0000 0.68902  0.80241  0.00961  Biso   1.000  H
  C188     1.0000 0.72440  0.65341  0.07431  Biso   1.000  C
  C189     1.0000 0.63491  0.57830  0.02800  Biso   1.000  C
  C190     1.0000 0.78437  0.32884  0.24940  Biso   1.000  C
  H189     1.0000 0.89890  0.34024  0.18880  Biso   1.000  H
  C191     1.0000 0.78437  0.32878  0.24940  Biso   1.000  C
  H190     1.0000 0.89890  0.34019  0.18880  Biso   1.000  H
  N13      1.0000 0.78101  0.21105  0.33678  Biso   1.000  N
  H191     1.0000 0.91132  0.16142  0.35307  Biso   1.000  H
  N14      1.0000 0.78101  0.21099  0.33678  Biso   1.000  N
  H192     1.0000 0.91132  0.16140  0.35312  Biso   1.000  H
  C192     1.0000 0.79603  0.22305  0.34916  Biso   1.000  C
  H193     1.0000 0.38931  0.70451  0.98298  Biso   1.000  H
  H194     1.0000 0.46193  0.66693  0.03910  Biso   1.000  H
  C193     1.0000 0.45131  0.78363  0.01499  Biso   1.000  C
  H195     1.0000 0.46193  0.66688  0.03910  Biso   1.000  H
  H196     1.0000 0.54800  0.84802  0.04468  Biso   1.000  H
  H197     1.0000 0.56114  0.75725  0.07907  Biso   1.000  H
  H198     1.0000 0.54800  0.84800  0.04472  Biso   1.000  H
  H199     1.0000 0.56107  0.75718  0.07912  Biso   1.000  H
  C194     1.0000 0.76051  0.58872  0.11809  Biso   1.000  C
  H200     1.0000 0.74247  0.70239  0.07550  Biso   1.000  H
  H201     1.0000 0.59212  0.57413  0.99708  Biso   1.000  H
  C195     1.0000 0.66958  0.51001  0.07331  Biso   1.000  C
  C196     1.0000 0.74710  0.28212  0.30519  Biso   1.000  C
  C197     1.0000 0.72931  0.39941  0.21047  Biso   1.000  C
  C198     1.0000 0.72931  0.39940  0.21052  Biso   1.000  C
  C199     1.0000 0.76003  0.17730  0.41567  Biso   1.000  C
  H202     1.0000 0.43480  0.82730  0.97659  Biso   1.000  H
  H203     1.0000 0.40261  0.78032  0.04868  Biso   1.000  H
  C200     1.0000 0.73353  0.51610  0.11700  Biso   1.000  C
  C201     1.0000 0.82932  0.59504  0.16698  Biso   1.000  C
  C202     1.0000 0.82932  0.59496  0.16702  Biso   1.000  C
  C203     1.0000 0.64383  0.43334  0.06988  Biso   1.000  C
  C204     1.0000 0.64383  0.43329  0.06988  Biso   1.000  C
  H204     1.0000 0.69413  0.30012  0.32339  Biso   1.000  H
  N15      1.0000 0.77410  0.44895  0.16016  Biso   1.000  N
  O14      1.0000 0.64910  0.40989  0.22529  Biso   1.000  O
  N16      1.0000 0.77410  0.44888  0.16021  Biso   1.000  N
  C205     1.0000 0.65247  0.14054  0.41577  Biso   1.000  C
  C206     1.0000 0.82897  0.10995  0.45226  Biso   1.000  C
  C207     1.0000 0.75178  0.23185  0.45317  Biso   1.000  C
  H205     1.0000 0.84743  0.54322  0.19428  Biso   1.000  H
  H206     1.0000 0.79913  0.62273  0.19299  Biso   1.000  H
  H207     1.0000 0.88601  0.62302  0.14520  Biso   1.000  H
  H208     1.0000 0.84743  0.54321  0.19432  Biso   1.000  H
  H209     1.0000 0.67473  0.39272  0.10409  Biso   1.000  H
  H210     1.0000 0.66481  0.43014  0.02857  Biso   1.000  H
  H211     1.0000 0.57478  0.42654  0.07488  Biso   1.000  H
  H212     1.0000 0.66481  0.43012  0.02862  Biso   1.000  H
  H213     1.0000 0.57478  0.42649  0.07488  Biso   1.000  H
  H214     1.0000 0.83368  0.43903  0.15306  Biso   1.000  H
  H215     1.0000 0.83368  0.43901  0.15311  Biso   1.000  H
  H216     1.0000 0.62752  0.11930  0.45970  Biso   1.000  H
  H217     1.0000 0.65678  0.09950  0.39700  Biso   1.000  H
  H218     1.0000 0.61010  0.18114  0.39071  Biso   1.000  H
  Cl7      1.0000 0.89241  0.13473  0.48919  Biso   1.000  Cl
  H219     1.0000 0.81240  0.09210  0.49800  Biso   1.000  H
  H220     1.0000 0.89459  0.12864  0.44578  Biso   1.000  H
  H221     1.0000 0.82291  0.06704  0.43597  Biso   1.000  H
  C208     1.0000 0.79402  0.17954  0.51458  Biso   1.000  C
  H222     1.0000 0.72548  0.20432  0.49591  Biso   1.000  H
  H223     1.0000 0.70980  0.27463  0.43130  Biso   1.000  H
  H224     1.0000 0.81474  0.25179  0.45669  Biso   1.000  H
  H225     1.0000 0.79998  0.17310  0.56027  Biso   1.000  H
  Cl8      1.0000 0.78918  0.27700  0.47037  Biso   1.000  Cl
  H226     1.0000 0.73468  0.15430  0.50967  Biso   1.000  H
  N17      1.0000 0.22592  0.55109  0.83981  Biso   1.000  N
  C209     1.0000 0.26649  0.48394  0.88297  Biso   1.000  C
  C210     1.0000 0.26649  0.48387  0.88302  Biso   1.000  C
  C211     1.0000 0.27071  0.60063  0.78950  Biso   1.000  C
  H227     1.0000 0.16627  0.56101  0.84691  Biso   1.000  H
  C212     1.0000 0.23951  0.41132  0.88188  Biso   1.000  C
  C213     1.0000 0.33044  0.49003  0.92666  Biso   1.000  C
  C214     1.0000 0.33043  0.49001  0.92671  Biso   1.000  C
  C215     1.0000 0.21558  0.67121  0.75057  Biso   1.000  C
  O15      1.0000 0.35092  0.59015  0.77468  Biso   1.000  O
  C216     1.0000 0.21558  0.67119  0.75062  Biso   1.000  C
  O16      1.0000 0.35092  0.59009  0.77468  Biso   1.000  O
  C217     1.0000 0.17070  0.40500  0.83300  Biso   1.000  C
  C218     1.0000 0.27562  0.34664  0.92566  Biso   1.000  C
  C219     1.0000 0.27562  0.34662  0.92571  Biso   1.000  C
  C220     1.0000 0.35619  0.56670  0.93009  Biso   1.000  C
  C221     1.0000 0.36511  0.42175  0.97197  Biso   1.000  C
  C222     1.0000 0.36511  0.42167  0.97202  Biso   1.000  C
  C223     1.0000 0.25292  0.71792  0.69478  Biso   1.000  C
  C224     1.0000 0.12817  0.69063  0.77130  Biso   1.000  C
  H228     1.0000 0.15259  0.45682  0.80570  Biso   1.000  H
  H229     1.0000 0.20089  0.37732  0.80698  Biso   1.000  H
  H230     1.0000 0.11401  0.37702  0.85477  Biso   1.000  H
  H231     1.0000 0.11401  0.37700  0.85482  Biso   1.000  H
  H232     1.0000 0.25748  0.29765  0.92447  Biso   1.000  H
  C225     1.0000 0.33930  0.34981  0.97307  Biso   1.000  C
  H233     1.0000 0.25748  0.29757  0.92452  Biso   1.000  H
  C226     1.0000 0.33930  0.34979  0.97311  Biso   1.000  C
  H234     1.0000 0.32529  0.60732  0.89589  Biso   1.000  H
  H235     1.0000 0.33521  0.56990  0.97140  Biso   1.000  H
  H236     1.0000 0.42524  0.57350  0.92509  Biso   1.000  H
  H237     1.0000 0.42517  0.57350  0.92509  Biso   1.000  H
  H238     1.0000 0.40789  0.42591  0.00289  Biso   1.000  H
  N18      1.0000 0.21901  0.78900  0.66320  Biso   1.000  N
  H239     1.0000 0.30588  0.69992  0.67658  Biso   1.000  H
  C227     1.0000 0.20399  0.77699  0.65081  Biso   1.000  C
  H240     1.0000 0.10112  0.65980  0.81118  Biso   1.000  H
  C228     1.0000 0.08053  0.75564  0.73299  Biso   1.000  C
  H241     1.0000 0.10111  0.65978  0.81122  Biso   1.000  H
  C229     1.0000 0.08053  0.75558  0.73299  Biso   1.000  C
  C230     1.0000 0.37072  0.27715  0.02729  Biso   1.000  C
  C231     1.0000 0.37072  0.27709  0.02729  Biso   1.000  C
  C232     1.0000 0.12430  0.79985  0.67696  Biso   1.000  C
  C233     1.0000 0.12430  0.79977  0.67701  Biso   1.000  C
  C234     1.0000 0.23999  0.82268  0.58430  Biso   1.000  C
  C235     1.0000 0.98783  0.77871  0.75367  Biso   1.000  C
  C236     1.0000 0.98783  0.77869  0.75372  Biso   1.000  C
  C237     1.0000 0.46997  0.28671  0.04958  Biso   1.000  C
  C238     1.0000 0.37241  0.20271  0.00899  Biso   1.000  C
  C239     1.0000 0.29138  0.26846  0.08026  Biso   1.000  C
  C240     1.0000 0.29138  0.26838  0.08031  Biso   1.000  C
  H242     1.0000 0.08870  0.83862  0.64690  Biso   1.000  H
  C241     1.0000 0.34748  0.85950  0.58420  Biso   1.000  C
  C242     1.0000 0.17098  0.89009  0.54771  Biso   1.000  C
  C243     1.0000 0.24823  0.76819  0.54680  Biso   1.000  C
  N19      1.0000 0.93700  0.72303  0.79679  Biso   1.000  N
  O17      1.0000 0.95929  0.84685  0.73118  Biso   1.000  O
  O18      1.0000 0.95929  0.84680  0.73118  Biso   1.000  O
  H243     1.0000 0.48251  0.24365  0.08927  Biso   1.000  H
  H244     1.0000 0.47199  0.33514  0.05949  Biso   1.000  H
  C244     1.0000 0.54840  0.28874  0.00018  Biso   1.000  C
  H245     1.0000 0.48251  0.24358  0.08932  Biso   1.000  H
  H246     1.0000 0.47199  0.33509  0.05949  Biso   1.000  H
  C245     1.0000 0.54840  0.28869  0.00018  Biso   1.000  C
  H247     1.0000 0.31100  0.19761  0.99041  Biso   1.000  H
  C246     1.0000 0.45131  0.20233  0.96220  Biso   1.000  C
  C247     1.0000 0.45131  0.20228  0.96220  Biso   1.000  C
  H248     1.0000 0.37961  0.15750  0.04811  Biso   1.000  H
  C248     1.0000 0.20377  0.23722  0.07650  Biso   1.000  C
  C249     1.0000 0.30459  0.29605  0.12939  Biso   1.000  C
  C250     1.0000 0.30459  0.29599  0.12939  Biso   1.000  C
  H249     1.0000 0.37250  0.88067  0.54032  Biso   1.000  H
  H250     1.0000 0.34317  0.90047  0.60302  Biso   1.000  H
  H251     1.0000 0.38992  0.81888  0.60931  Biso   1.000  H
  Cl9      1.0000 0.10761  0.86531  0.51078  Biso   1.000  Cl
  H252     1.0000 0.18762  0.90787  0.50202  Biso   1.000  H
  H253     1.0000 0.10543  0.87141  0.55419  Biso   1.000  H
  H254     1.0000 0.17711  0.93301  0.56400  Biso   1.000  H
  C251     1.0000 0.20600  0.82050  0.48539  Biso   1.000  C
  H255     1.0000 0.27447  0.79571  0.50411  Biso   1.000  H
  H256     1.0000 0.29021  0.72540  0.56872  Biso   1.000  H
  H257     1.0000 0.18528  0.74819  0.54328  Biso   1.000  H
  C252     1.0000 0.85720  0.73310  0.83400  Biso   1.000  C
  H258     1.0000 0.95489  0.67530  0.80279  Biso   1.000  H
  C253     1.0000 0.54871  0.21642  0.98498  Biso   1.000  C
  H259     1.0000 0.53809  0.33311  0.96087  Biso   1.000  H
  H260     1.0000 0.53809  0.33309  0.96092  Biso   1.000  H
  H261     1.0000 0.61071  0.29554  0.01699  Biso   1.000  H
  H262     1.0000 0.61071  0.29548  0.01699  Biso   1.000  H
  H263     1.0000 0.45202  0.15203  0.95530  Biso   1.000  H
  H264     1.0000 0.43888  0.24279  0.92090  Biso   1.000  H
  H265     1.0000 0.19498  0.21593  0.04367  Biso   1.000  H
  C254     1.0000 0.12927  0.23541  0.11747  Biso   1.000  C
  H266     1.0000 0.19498  0.21591  0.04372  Biso   1.000  H
  C255     1.0000 0.12927  0.23539  0.11752  Biso   1.000  C
  H267     1.0000 0.36523  0.31500  0.13429  Biso   1.000  H
  C256     1.0000 0.23039  0.29682  0.17241  Biso   1.000  C
  H268     1.0000 0.19997  0.82688  0.43970  Biso   1.000  H
  Cl10     1.0000 0.21077  0.72299  0.52960  Biso   1.000  Cl
  H269     1.0000 0.26527  0.84568  0.49030  Biso   1.000  H
  C257     1.0000 0.76962  0.70322  0.82756  Biso   1.000  C
  C258     1.0000 0.87067  0.76463  0.88250  Biso   1.000  C
  C259     1.0000 0.76962  0.70320  0.82761  Biso   1.000  C
  C260     1.0000 0.87067  0.76458  0.88250  Biso   1.000  C
  H270     1.0000 0.59741  0.21972  0.95129  Biso   1.000  H
  H271     1.0000 0.56521  0.17274  0.02338  Biso   1.000  H
  H272     1.0000 0.56521  0.17268  0.02338  Biso   1.000  H
  C261     1.0000 0.14282  0.26694  0.16598  Biso   1.000  C
  C262     1.0000 0.03549  0.20120  0.11180  Biso   1.000  C
  C263     1.0000 0.14282  0.26686  0.16602  Biso   1.000  C
  C264     1.0000 0.24301  0.33360  0.22267  Biso   1.000  C
  C265     1.0000 0.24301  0.33358  0.22272  Biso   1.000  C
  C266     1.0000 0.69542  0.70405  0.87059  Biso   1.000  C
  C267     1.0000 0.75701  0.66644  0.77730  Biso   1.000  C
  C268     1.0000 0.69542  0.70399  0.87059  Biso   1.000  C
  C269     1.0000 0.75701  0.66638  0.77730  Biso   1.000  C
  C270     1.0000 0.79618  0.76282  0.92347  Biso   1.000  C
  C271     1.0000 0.96453  0.79884  0.88817  Biso   1.000  C
  C272     1.0000 0.79617  0.76280  0.92352  Biso   1.000  C
  C273     1.0000 0.96453  0.79877  0.88821  Biso   1.000  C
  N20      1.0000 0.06302  0.27701  0.20318  Biso   1.000  N
  H273     1.0000 0.99207  0.20431  0.14587  Biso   1.000  H
  H274     1.0000 0.99207  0.20429  0.14592  Biso   1.000  H
  H275     1.0000 0.04428  0.14723  0.11528  Biso   1.000  H
  H276     1.0000 0.00883  0.22982  0.07040  Biso   1.000  H
  H277     1.0000 0.18442  0.32803  0.24859  Biso   1.000  H
  H278     1.0000 0.25752  0.38840  0.20218  Biso   1.000  H
  H279     1.0000 0.29521  0.30833  0.25007  Biso   1.000  H
  H280     1.0000 0.29521  0.30831  0.25011  Biso   1.000  H
  C274     1.0000 0.70857  0.73164  0.91971  Biso   1.000  C
  H281     1.0000 0.63479  0.68505  0.86568  Biso   1.000  H
  C275     1.0000 0.70857  0.73158  0.91971  Biso   1.000  C
  H282     1.0000 0.63479  0.68499  0.86568  Biso   1.000  H
  H283     1.0000 0.81560  0.67202  0.75138  Biso   1.000  H
  H284     1.0000 0.74250  0.61164  0.79779  Biso   1.000  H
  H285     1.0000 0.70481  0.69171  0.74991  Biso   1.000  H
  H286     1.0000 0.74250  0.61158  0.79779  Biso   1.000  H
  H287     1.0000 0.80504  0.78411  0.95630  Biso   1.000  H
  H288     1.0000 0.80497  0.78411  0.95630  Biso   1.000  H
  H289     1.0000 0.95567  0.85282  0.88469  Biso   1.000  H
  H290     1.0000 0.99119  0.77022  0.92957  Biso   1.000  H
  H291     1.0000 0.99119  0.77020  0.92962  Biso   1.000  H
  H292     1.0000 0.00787  0.79574  0.85410  Biso   1.000  H
  H293     1.0000 0.00787  0.79568  0.85410  Biso   1.000  H
  C276     1.0000 0.01219  0.22133  0.24630  Biso   1.000  C
  H294     1.0000 0.04513  0.32474  0.19718  Biso   1.000  H
  C277     1.0000 0.01219  0.22128  0.24630  Biso   1.000  C
  H295     1.0000 0.04513  0.32469  0.19718  Biso   1.000  H
  C278     1.0000 0.62930  0.72295  0.97269  Biso   1.000  C
  C279     1.0000 0.62930  0.72289  0.97269  Biso   1.000  C
  C280     1.0000 0.91948  0.24441  0.26698  Biso   1.000  C
  O19      1.0000 0.04073  0.15325  0.26879  Biso   1.000  O
  O20      1.0000 0.04073  0.15319  0.26879  Biso   1.000  O
  C281     1.0000 0.52997  0.71333  0.95039  Biso   1.000  C
  C282     1.0000 0.62761  0.79733  0.99098  Biso   1.000  C
  C283     1.0000 0.52997  0.71328  0.95039  Biso   1.000  C
  C284     1.0000 0.66072  0.65023  0.02690  Biso   1.000  C
  C285     1.0000 0.66072  0.65018  0.02690  Biso   1.000  C
  C286     1.0000 0.87178  0.30942  0.22867  Biso   1.000  C
  C287     1.0000 0.87572  0.20020  0.32301  Biso   1.000  C
  C288     1.0000 0.87178  0.30940  0.22872  Biso   1.000  C
  H296     1.0000 0.51751  0.75639  0.91070  Biso   1.000  H
  H297     1.0000 0.52802  0.66490  0.94048  Biso   1.000  H
  C289     1.0000 0.45162  0.71130  0.99980  Biso   1.000  C
  H298     1.0000 0.62040  0.84254  0.95187  Biso   1.000  H
  H299     1.0000 0.62040  0.84247  0.95191  Biso   1.000  H
  C290     1.0000 0.54871  0.79771  0.03777  Biso   1.000  C
  H300     1.0000 0.68902  0.80243  0.00956  Biso   1.000  H
  C291     1.0000 0.54871  0.79769  0.03781  Biso   1.000  C
  H301     1.0000 0.68902  0.80241  0.00961  Biso   1.000  H
  C292     1.0000 0.72440  0.65341  0.07431  Biso   1.000  C
  C293     1.0000 0.63491  0.57830  0.02800  Biso   1.000  C
  C294     1.0000 0.78437  0.32884  0.24940  Biso   1.000  C
  H302     1.0000 0.89890  0.34024  0.18880  Biso   1.000  H
  C295     1.0000 0.78437  0.32878  0.24940  Biso   1.000  C
  H303     1.0000 0.89890  0.34019  0.18880  Biso   1.000  H
  N21      1.0000 0.78101  0.21105  0.33678  Biso   1.000  N
  H304     1.0000 0.91132  0.16142  0.35307  Biso   1.000  H
  N22      1.0000 0.78101  0.21099  0.33678  Biso   1.000  N
  H305     1.0000 0.91132  0.16140  0.35312  Biso   1.000  H
  C296     1.0000 0.79603  0.22305  0.34916  Biso   1.000  C
  H306     1.0000 0.38931  0.70451  0.98298  Biso   1.000  H
  H307     1.0000 0.46193  0.66693  0.03910  Biso   1.000  H
  C297     1.0000 0.45131  0.78363  0.01499  Biso   1.000  C
  H308     1.0000 0.46193  0.66688  0.03910  Biso   1.000  H
  H309     1.0000 0.54800  0.84802  0.04468  Biso   1.000  H
  H310     1.0000 0.56114  0.75725  0.07907  Biso   1.000  H
  H311     1.0000 0.54800  0.84800  0.04472  Biso   1.000  H
  H312     1.0000 0.56107  0.75718  0.07912  Biso   1.000  H
  C298     1.0000 0.76051  0.58872  0.11809  Biso   1.000  C
  H313     1.0000 0.74247  0.70239  0.07550  Biso   1.000  H
  H314     1.0000 0.59212  0.57413  0.99708  Biso   1.000  H
  C299     1.0000 0.66958  0.51001  0.07331  Biso   1.000  C
  C300     1.0000 0.74710  0.28212  0.30519  Biso   1.000  C
  C301     1.0000 0.72931  0.39941  0.21047  Biso   1.000  C
  C302     1.0000 0.72931  0.39940  0.21052  Biso   1.000  C
  C303     1.0000 0.76003  0.17730  0.41567  Biso   1.000  C
  H315     1.0000 0.43480  0.82730  0.97659  Biso   1.000  H
  H316     1.0000 0.40261  0.78032  0.04868  Biso   1.000  H
  C304     1.0000 0.73353  0.51610  0.11700  Biso   1.000  C
  C305     1.0000 0.82932  0.59504  0.16698  Biso   1.000  C
  C306     1.0000 0.82932  0.59496  0.16702  Biso   1.000  C
  C307     1.0000 0.64383  0.43334  0.06988  Biso   1.000  C
  C308     1.0000 0.64383  0.43329  0.06988  Biso   1.000  C
  H317     1.0000 0.69413  0.30012  0.32339  Biso   1.000  H
  N23      1.0000 0.77410  0.44895  0.16016  Biso   1.000  N
  O21      1.0000 0.64910  0.40989  0.22529  Biso   1.000  O
  N24      1.0000 0.77410  0.44888  0.16021  Biso   1.000  N
  C309     1.0000 0.65247  0.14054  0.41577  Biso   1.000  C
  C310     1.0000 0.82897  0.10995  0.45226  Biso   1.000  C
  C311     1.0000 0.75178  0.23185  0.45317  Biso   1.000  C
  H318     1.0000 0.84743  0.54322  0.19428  Biso   1.000  H
  H319     1.0000 0.79913  0.62273  0.19299  Biso   1.000  H
  H320     1.0000 0.88601  0.62302  0.14520  Biso   1.000  H
  H321     1.0000 0.84743  0.54321  0.19432  Biso   1.000  H
  H322     1.0000 0.67473  0.39272  0.10409  Biso   1.000  H
  H323     1.0000 0.66481  0.43014  0.02857  Biso   1.000  H
  H324     1.0000 0.57478  0.42654  0.07488  Biso   1.000  H
  H325     1.0000 0.66481  0.43012  0.02862  Biso   1.000  H
  H326     1.0000 0.57478  0.42649  0.07488  Biso   1.000  H
  H327     1.0000 0.83368  0.43903  0.15306  Biso   1.000  H
  H328     1.0000 0.83368  0.43901  0.15311  Biso   1.000  H
  H329     1.0000 0.62752  0.11930  0.45970  Biso   1.000  H
  H330     1.0000 0.65678  0.09950  0.39700  Biso   1.000  H
  H331     1.0000 0.61010  0.18114  0.39071  Biso   1.000  H
  Cl11     1.0000 0.89241  0.13473  0.48919  Biso   1.000  Cl
  H332     1.0000 0.81240  0.09210  0.49800  Biso   1.000  H
  H333     1.0000 0.89459  0.12864  0.44578  Biso   1.000  H
  H334     1.0000 0.82291  0.06704  0.43597  Biso   1.000  H
  C312     1.0000 0.79402  0.17954  0.51458  Biso   1.000  C
  H335     1.0000 0.72548  0.20432  0.49591  Biso   1.000  H
  H336     1.0000 0.70980  0.27463  0.43130  Biso   1.000  H
  H337     1.0000 0.81474  0.25179  0.45669  Biso   1.000  H
  H338     1.0000 0.79998  0.17310  0.56027  Biso   1.000  H
  Cl12     1.0000 0.78918  0.27700  0.47037  Biso   1.000  Cl
  H339     1.0000 0.73468  0.15430  0.50967  Biso   1.000  H
  N25      1.0000 0.22592  0.55109  0.83981  Biso   1.000  N
  C313     1.0000 0.26649  0.48394  0.88297  Biso   1.000  C
  C314     1.0000 0.26649  0.48387  0.88302  Biso   1.000  C
  C315     1.0000 0.27071  0.60063  0.78950  Biso   1.000  C
  H340     1.0000 0.16627  0.56101  0.84691  Biso   1.000  H
  C316     1.0000 0.23951  0.41132  0.88188  Biso   1.000  C
  C317     1.0000 0.33044  0.49003  0.92666  Biso   1.000  C
  C318     1.0000 0.33043  0.49001  0.92671  Biso   1.000  C
  C319     1.0000 0.21558  0.67121  0.75057  Biso   1.000  C
  O22      1.0000 0.35092  0.59015  0.77468  Biso   1.000  O
  C320     1.0000 0.21558  0.67119  0.75062  Biso   1.000  C
  O23      1.0000 0.35092  0.59009  0.77468  Biso   1.000  O
  C321     1.0000 0.17070  0.40500  0.83300  Biso   1.000  C
  C322     1.0000 0.27562  0.34664  0.92566  Biso   1.000  C
  C323     1.0000 0.27562  0.34662  0.92571  Biso   1.000  C
  C324     1.0000 0.35619  0.56670  0.93009  Biso   1.000  C
  C325     1.0000 0.36511  0.42175  0.97197  Biso   1.000  C
  C326     1.0000 0.36511  0.42167  0.97202  Biso   1.000  C
  C327     1.0000 0.25292  0.71792  0.69478  Biso   1.000  C
  C328     1.0000 0.12817  0.69063  0.77130  Biso   1.000  C
  H341     1.0000 0.15259  0.45682  0.80570  Biso   1.000  H
  H342     1.0000 0.20089  0.37732  0.80698  Biso   1.000  H
  H343     1.0000 0.11401  0.37702  0.85477  Biso   1.000  H
  H344     1.0000 0.11401  0.37700  0.85482  Biso   1.000  H
  H345     1.0000 0.25748  0.29765  0.92447  Biso   1.000  H
  C329     1.0000 0.33930  0.34981  0.97307  Biso   1.000  C
  H346     1.0000 0.25748  0.29757  0.92452  Biso   1.000  H
  C330     1.0000 0.33930  0.34979  0.97311  Biso   1.000  C
  H347     1.0000 0.32529  0.60732  0.89589  Biso   1.000  H
  H348     1.0000 0.33521  0.56990  0.97140  Biso   1.000  H
  H349     1.0000 0.42524  0.57350  0.92509  Biso   1.000  H
  H350     1.0000 0.42517  0.57350  0.92509  Biso   1.000  H
  H351     1.0000 0.40789  0.42591  0.00289  Biso   1.000  H
  N26      1.0000 0.21901  0.78900  0.66320  Biso   1.000  N
  H352     1.0000 0.30588  0.69992  0.67658  Biso   1.000  H
  C331     1.0000 0.20399  0.77699  0.65081  Biso   1.000  C
  H353     1.0000 0.10112  0.65980  0.81118  Biso   1.000  H
  C332     1.0000 0.08053  0.75564  0.73299  Biso   1.000  C
  H354     1.0000 0.10111  0.65978  0.81122  Biso   1.000  H
  C333     1.0000 0.08053  0.75558  0.73299  Biso   1.000  C
  C334     1.0000 0.37072  0.27715  0.02729  Biso   1.000  C
  C335     1.0000 0.37072  0.27709  0.02729  Biso   1.000  C
  C336     1.0000 0.12430  0.79985  0.67696  Biso   1.000  C
  C337     1.0000 0.12430  0.79977  0.67701  Biso   1.000  C
  C338     1.0000 0.23999  0.82268  0.58430  Biso   1.000  C
  C339     1.0000 0.98783  0.77871  0.75367  Biso   1.000  C
  C340     1.0000 0.98783  0.77869  0.75372  Biso   1.000  C
  C341     1.0000 0.46997  0.28671  0.04958  Biso   1.000  C
  C342     1.0000 0.37241  0.20271  0.00899  Biso   1.000  C
  C343     1.0000 0.29138  0.26846  0.08026  Biso   1.000  C
  C344     1.0000 0.29138  0.26838  0.08031  Biso   1.000  C
  H355     1.0000 0.08870  0.83862  0.64690  Biso   1.000  H
  C345     1.0000 0.34748  0.85950  0.58420  Biso   1.000  C
  C346     1.0000 0.17098  0.89009  0.54771  Biso   1.000  C
  C347     1.0000 0.24823  0.76819  0.54680  Biso   1.000  C
  N27      1.0000 0.93700  0.72303  0.79679  Biso   1.000  N
  O24      1.0000 0.95929  0.84685  0.73118  Biso   1.000  O
  O25      1.0000 0.95929  0.84680  0.73118  Biso   1.000  O
  H356     1.0000 0.48251  0.24365  0.08927  Biso   1.000  H
  H357     1.0000 0.47199  0.33514  0.05949  Biso   1.000  H
  C348     1.0000 0.54840  0.28874  0.00018  Biso   1.000  C
  H358     1.0000 0.48251  0.24358  0.08932  Biso   1.000  H
  H359     1.0000 0.47199  0.33509  0.05949  Biso   1.000  H
  C349     1.0000 0.54840  0.28869  0.00018  Biso   1.000  C
  H360     1.0000 0.31100  0.19761  0.99041  Biso   1.000  H
  C350     1.0000 0.45131  0.20233  0.96220  Biso   1.000  C
  C351     1.0000 0.45131  0.20228  0.96220  Biso   1.000  C
  H361     1.0000 0.37961  0.15750  0.04811  Biso   1.000  H
  C352     1.0000 0.20377  0.23722  0.07650  Biso   1.000  C
  C353     1.0000 0.30459  0.29605  0.12939  Biso   1.000  C
  C354     1.0000 0.30459  0.29599  0.12939  Biso   1.000  C
  H362     1.0000 0.37250  0.88067  0.54032  Biso   1.000  H
  H363     1.0000 0.34317  0.90047  0.60302  Biso   1.000  H
  H364     1.0000 0.38992  0.81888  0.60931  Biso   1.000  H
  Cl13     1.0000 0.10761  0.86531  0.51078  Biso   1.000  Cl
  H365     1.0000 0.18762  0.90787  0.50202  Biso   1.000  H
  H366     1.0000 0.10543  0.87141  0.55419  Biso   1.000  H
  H367     1.0000 0.17711  0.93301  0.56400  Biso   1.000  H
  C355     1.0000 0.20600  0.82050  0.48539  Biso   1.000  C
  H368     1.0000 0.27447  0.79571  0.50411  Biso   1.000  H
  H369     1.0000 0.29021  0.72540  0.56872  Biso   1.000  H
  H370     1.0000 0.18528  0.74819  0.54328  Biso   1.000  H
  C356     1.0000 0.85720  0.73310  0.83400  Biso   1.000  C
  H371     1.0000 0.95489  0.67530  0.80279  Biso   1.000  H
  C357     1.0000 0.54871  0.21642  0.98498  Biso   1.000  C
  H372     1.0000 0.53809  0.33311  0.96087  Biso   1.000  H
  H373     1.0000 0.53809  0.33309  0.96092  Biso   1.000  H
  H374     1.0000 0.61071  0.29554  0.01699  Biso   1.000  H
  H375     1.0000 0.61071  0.29548  0.01699  Biso   1.000  H
  H376     1.0000 0.45202  0.15203  0.95530  Biso   1.000  H
  H377     1.0000 0.43888  0.24279  0.92090  Biso   1.000  H
  H378     1.0000 0.19498  0.21593  0.04367  Biso   1.000  H
  C358     1.0000 0.12927  0.23541  0.11747  Biso   1.000  C
  H379     1.0000 0.19498  0.21591  0.04372  Biso   1.000  H
  C359     1.0000 0.12927  0.23539  0.11752  Biso   1.000  C
  H380     1.0000 0.36523  0.31500  0.13429  Biso   1.000  H
  C360     1.0000 0.23039  0.29682  0.17241  Biso   1.000  C
  H381     1.0000 0.19997  0.82688  0.43970  Biso   1.000  H
  Cl14     1.0000 0.21077  0.72299  0.52960  Biso   1.000  Cl
  H382     1.0000 0.26527  0.84568  0.49030  Biso   1.000  H
  C361     1.0000 0.76962  0.70322  0.82756  Biso   1.000  C
  C362     1.0000 0.87067  0.76463  0.88250  Biso   1.000  C
  C363     1.0000 0.76962  0.70320  0.82761  Biso   1.000  C
  C364     1.0000 0.87067  0.76458  0.88250  Biso   1.000  C
  H383     1.0000 0.59741  0.21972  0.95129  Biso   1.000  H
  H384     1.0000 0.56521  0.17274  0.02338  Biso   1.000  H
  H385     1.0000 0.56521  0.17268  0.02338  Biso   1.000  H
  C365     1.0000 0.14282  0.26694  0.16598  Biso   1.000  C
  C366     1.0000 0.03549  0.20120  0.11180  Biso   1.000  C
  C367     1.0000 0.14282  0.26686  0.16602  Biso   1.000  C
  C368     1.0000 0.24301  0.33360  0.22267  Biso   1.000  C
  C369     1.0000 0.24301  0.33358  0.22272  Biso   1.000  C
  C370     1.0000 0.69542  0.70405  0.87059  Biso   1.000  C
  C371     1.0000 0.75701  0.66644  0.77730  Biso   1.000  C
  C372     1.0000 0.69542  0.70399  0.87059  Biso   1.000  C
  C373     1.0000 0.75701  0.66638  0.77730  Biso   1.000  C
  C374     1.0000 0.79618  0.76282  0.92347  Biso   1.000  C
  C375     1.0000 0.96453  0.79884  0.88817  Biso   1.000  C
  C376     1.0000 0.79617  0.76280  0.92352  Biso   1.000  C
  C377     1.0000 0.96453  0.79877  0.88821  Biso   1.000  C
  N28      1.0000 0.06302  0.27701  0.20318  Biso   1.000  N
  H386     1.0000 0.99207  0.20431  0.14587  Biso   1.000  H
  H387     1.0000 0.99207  0.20429  0.14592  Biso   1.000  H
  H388     1.0000 0.04428  0.14723  0.11528  Biso   1.000  H
  H389     1.0000 0.00883  0.22982  0.07040  Biso   1.000  H
  H390     1.0000 0.18442  0.32803  0.24859  Biso   1.000  H
  H391     1.0000 0.25752  0.38840  0.20218  Biso   1.000  H
  H392     1.0000 0.29521  0.30833  0.25007  Biso   1.000  H
  H393     1.0000 0.29521  0.30831  0.25011  Biso   1.000  H
  C378     1.0000 0.70857  0.73164  0.91971  Biso   1.000  C
  H394     1.0000 0.63479  0.68505  0.86568  Biso   1.000  H
  C379     1.0000 0.70857  0.73158  0.91971  Biso   1.000  C
  H395     1.0000 0.63479  0.68499  0.86568  Biso   1.000  H
  H396     1.0000 0.81560  0.67202  0.75138  Biso   1.000  H
  H397     1.0000 0.74250  0.61164  0.79779  Biso   1.000  H
  H398     1.0000 0.70481  0.69171  0.74991  Biso   1.000  H
  H399     1.0000 0.74250  0.61158  0.79779  Biso   1.000  H
  H400     1.0000 0.80504  0.78411  0.95630  Biso   1.000  H
  H401     1.0000 0.80497  0.78411  0.95630  Biso   1.000  H
  H402     1.0000 0.95567  0.85282  0.88469  Biso   1.000  H
  H403     1.0000 0.99119  0.77022  0.92957  Biso   1.000  H
  H404     1.0000 0.99119  0.77020  0.92962  Biso   1.000  H
  H405     1.0000 0.00787  0.79574  0.85410  Biso   1.000  H
  H406     1.0000 0.00787  0.79568  0.85410  Biso   1.000  H
  C380     1.0000 0.01219  0.22133  0.24630  Biso   1.000  C
  H407     1.0000 0.04513  0.32474  0.19718  Biso   1.000  H
  C381     1.0000 0.01219  0.22128  0.24630  Biso   1.000  C
  H408     1.0000 0.04513  0.32469  0.19718  Biso   1.000  H
  C382     1.0000 0.62930  0.72295  0.97269  Biso   1.000  C
  C383     1.0000 0.62930  0.72289  0.97269  Biso   1.000  C
  C384     1.0000 0.91948  0.24441  0.26698  Biso   1.000  C
  O26      1.0000 0.04073  0.15325  0.26879  Biso   1.000  O
  O27      1.0000 0.04073  0.15319  0.26879  Biso   1.000  O
  C385     1.0000 0.52997  0.71333  0.95039  Biso   1.000  C
  C386     1.0000 0.62761  0.79733  0.99098  Biso   1.000  C
  C387     1.0000 0.52997  0.71328  0.95039  Biso   1.000  C
  C388     1.0000 0.66072  0.65023  0.02690  Biso   1.000  C
  C389     1.0000 0.66072  0.65018  0.02690  Biso   1.000  C
  C390     1.0000 0.87178  0.30942  0.22867  Biso   1.000  C
  C391     1.0000 0.87572  0.20020  0.32301  Biso   1.000  C
  C392     1.0000 0.87178  0.30940  0.22872  Biso   1.000  C
  H409     1.0000 0.51751  0.75639  0.91070  Biso   1.000  H
  H410     1.0000 0.52802  0.66490  0.94048  Biso   1.000  H
  C393     1.0000 0.45162  0.71130  0.99980  Biso   1.000  C
  H411     1.0000 0.62040  0.84254  0.95187  Biso   1.000  H
  H412     1.0000 0.62040  0.84247  0.95191  Biso   1.000  H
  C394     1.0000 0.54871  0.79771  0.03777  Biso   1.000  C
  H413     1.0000 0.68902  0.80243  0.00956  Biso   1.000  H
  C395     1.0000 0.54871  0.79769  0.03781  Biso   1.000  C
  H414     1.0000 0.68902  0.80241  0.00961  Biso   1.000  H
  C396     1.0000 0.72440  0.65341  0.07431  Biso   1.000  C
  C397     1.0000 0.63491  0.57830  0.02800  Biso   1.000  C
  C398     1.0000 0.78437  0.32884  0.24940  Biso   1.000  C
  H415     1.0000 0.89890  0.34024  0.18880  Biso   1.000  H
  C399     1.0000 0.78437  0.32878  0.24940  Biso   1.000  C
  H416     1.0000 0.89890  0.34019  0.18880  Biso   1.000  H
  N29      1.0000 0.78101  0.21105  0.33678  Biso   1.000  N
  H417     1.0000 0.91132  0.16142  0.35307  Biso   1.000  H
  N30      1.0000 0.78101  0.21099  0.33678  Biso   1.000  N
  H418     1.0000 0.91132  0.16140  0.35312  Biso   1.000  H
  C400     1.0000 0.79603  0.22305  0.34916  Biso   1.000  C
  H419     1.0000 0.38931  0.70451  0.98298  Biso   1.000  H
  H420     1.0000 0.46193  0.66693  0.03910  Biso   1.000  H
  C401     1.0000 0.45131  0.78363  0.01499  Biso   1.000  C
  H421     1.0000 0.46193  0.66688  0.03910  Biso   1.000  H
  H422     1.0000 0.54800  0.84802  0.04468  Biso   1.000  H
  H423     1.0000 0.56114  0.75725  0.07907  Biso   1.000  H
  H424     1.0000 0.54800  0.84800  0.04472  Biso   1.000  H
  H425     1.0000 0.56107  0.75718  0.07912  Biso   1.000  H
  C402     1.0000 0.76051  0.58872  0.11809  Biso   1.000  C
  H426     1.0000 0.74247  0.70239  0.07550  Biso   1.000  H
  H427     1.0000 0.59212  0.57413  0.99708  Biso   1.000  H
  C403     1.0000 0.66958  0.51001  0.07331  Biso   1.000  C
  C404     1.0000 0.74710  0.28212  0.30519  Biso   1.000  C
  C405     1.0000 0.72931  0.39941  0.21047  Biso   1.000  C
  C406     1.0000 0.72931  0.39940  0.21052  Biso   1.000  C
  C407     1.0000 0.76003  0.17730  0.41567  Biso   1.000  C
  H428     1.0000 0.43480  0.82730  0.97659  Biso   1.000  H
  H429     1.0000 0.40261  0.78032  0.04868  Biso   1.000  H
  C408     1.0000 0.73353  0.51610  0.11700  Biso   1.000  C
  C409     1.0000 0.82932  0.59504  0.16698  Biso   1.000  C
  C410     1.0000 0.82932  0.59496  0.16702  Biso   1.000  C
  C411     1.0000 0.64383  0.43334  0.06988  Biso   1.000  C
  C412     1.0000 0.64383  0.43329  0.06988  Biso   1.000  C
  H430     1.0000 0.69413  0.30012  0.32339  Biso   1.000  H
  N31      1.0000 0.77410  0.44895  0.16016  Biso   1.000  N
  O28      1.0000 0.64910  0.40989  0.22529  Biso   1.000  O
  N32      1.0000 0.77410  0.44888  0.16021  Biso   1.000  N
  C413     1.0000 0.65247  0.14054  0.41577  Biso   1.000  C
  C414     1.0000 0.82897  0.10995  0.45226  Biso   1.000  C
  C415     1.0000 0.75178  0.23185  0.45317  Biso   1.000  C
  H431     1.0000 0.84743  0.54322  0.19428  Biso   1.000  H
  H432     1.0000 0.79913  0.62273  0.19299  Biso   1.000  H
  H433     1.0000 0.88601  0.62302  0.14520  Biso   1.000  H
  H434     1.0000 0.84743  0.54321  0.19432  Biso   1.000  H
  H435     1.0000 0.67473  0.39272  0.10409  Biso   1.000  H
  H436     1.0000 0.66481  0.43014  0.02857  Biso   1.000  H
  H437     1.0000 0.57478  0.42654  0.07488  Biso   1.000  H
  H438     1.0000 0.66481  0.43012  0.02862  Biso   1.000  H
  H439     1.0000 0.57478  0.42649  0.07488  Biso   1.000  H
  H440     1.0000 0.83368  0.43903  0.15306  Biso   1.000  H
  H441     1.0000 0.83368  0.43901  0.15311  Biso   1.000  H
  H442     1.0000 0.62752  0.11930  0.45970  Biso   1.000  H
  H443     1.0000 0.65678  0.09950  0.39700  Biso   1.000  H
  H444     1.0000 0.61010  0.18114  0.39071  Biso   1.000  H
  Cl15     1.0000 0.89241  0.13473  0.48919  Biso   1.000  Cl
  H445     1.0000 0.81240  0.09210  0.49800  Biso   1.000  H
  H446     1.0000 0.89459  0.12864  0.44578  Biso   1.000  H
  H447     1.0000 0.82291  0.06704  0.43597  Biso   1.000  H
  C416     1.0000 0.79402  0.17954  0.51458  Biso   1.000  C
  H448     1.0000 0.72548  0.20432  0.49591  Biso   1.000  H
  H449     1.0000 0.70980  0.27463  0.43130  Biso   1.000  H
  H450     1.0000 0.81474  0.25179  0.45669  Biso   1.000  H
  H451     1.0000 0.79998  0.17310  0.56027  Biso   1.000  H
  Cl16     1.0000 0.78918  0.27700  0.47037  Biso   1.000  Cl
  H452     1.0000 0.73468  0.15430  0.50967  Biso   1.000  H
  N33      1.0000 0.44463  0.46768  0.74562  Biso   1.000  N
  C417     1.0000 0.38478  0.43570  0.71012  Biso   1.000  C
  C418     1.0000 0.53238  0.44371  0.75791  Biso   1.000  C
  H453     1.0000 0.42232  0.50421  0.75948  Biso   1.000  H
  C419     1.0000 0.35873  0.35670  0.73571  Biso   1.000  C
  C420     1.0000 0.35303  0.48052  0.65100  Biso   1.000  C
  C421     1.0000 0.58601  0.46861  0.80470  Biso   1.000  C
  O29      1.0000 0.57270  0.39898  0.73418  Biso   1.000  O
  C422     1.0000 0.30461  0.32732  0.70131  Biso   1.000  C
  C423     1.0000 0.39578  0.30522  0.80031  Biso   1.000  C
  C424     1.0000 0.29661  0.44738  0.61822  Biso   1.000  C
  C425     1.0000 0.38001  0.56437  0.62360  Biso   1.000  C
  C426     1.0000 0.55201  0.51103  0.84148  Biso   1.000  C
  C427     1.0000 0.68047  0.43999  0.81589  Biso   1.000  C
  C428     1.0000 0.26930  0.37009  0.64161  Biso   1.000  C
  H454     1.0000 0.28902  0.27411  0.71841  Biso   1.000  H
  H455     1.0000 0.37043  0.25301  0.81041  Biso   1.000  H
  H456     1.0000 0.46532  0.30340  0.79798  Biso   1.000  H
  H457     1.0000 0.37542  0.32630  0.83352  Biso   1.000  H
  H458     1.0000 0.27513  0.47862  0.57758  Biso   1.000  H
  H459     1.0000 0.35023  0.58759  0.58230  Biso   1.000  H
  H460     1.0000 0.35826  0.59109  0.65281  Biso   1.000  H
  H461     1.0000 0.44912  0.56890  0.61779  Biso   1.000  H
  N34      1.0000 0.60111  0.52440  0.88688  Biso   1.000  N
  H462     1.0000 0.48983  0.53169  0.83400  Biso   1.000  H
  H463     1.0000 0.70901  0.41380  0.78978  Biso   1.000  H
  C429     1.0000 0.72969  0.45032  0.86411  Biso   1.000  C
  C430     1.0000 0.21068  0.33009  0.60450  Biso   1.000  C
  C431     1.0000 0.68777  0.49368  0.89870  Biso   1.000  C
  C432     1.0000 0.82270  0.40929  0.88259  Biso   1.000  C
  C433     1.0000 0.27997  0.26899  0.59249  Biso   1.000  C
  C434     1.0000 0.17717  0.38821  0.53970  Biso   1.000  C
  C435     1.0000 0.12307  0.29419  0.64471  Biso   1.000  C
  H464     1.0000 0.72238  0.50159  0.93200  Biso   1.000  H
  N35      1.0000 0.82708  0.34133  0.87349  Biso   1.000  N
  O30      1.0000 0.88719  0.43537  0.90522  Biso   1.000  O
  C436     1.0000 0.35092  0.29162  0.54542  Biso   1.000  C
  C437     1.0000 0.28212  0.19299  0.63342  Biso   1.000  C
  H465     1.0000 0.23343  0.40982  0.51212  Biso   1.000  H
  H466     1.0000 0.14297  0.43141  0.54780  Biso   1.000  H
  C438     1.0000 0.11390  0.35122  0.50588  Biso   1.000  C
  C439     1.0000 0.05469  0.25661  0.61112  Biso   1.000  C
  H467     1.0000 0.14378  0.25473  0.68449  Biso   1.000  H
  H468     1.0000 0.08853  0.33460  0.65648  Biso   1.000  H
  C440     1.0000 0.90729  0.29138  0.88002  Biso   1.000  C
  H469     1.0000 0.77421  0.32519  0.86220  Biso   1.000  H
  C441     1.0000 0.42453  0.24389  0.54032  Biso   1.000  C
  H470     1.0000 0.34869  0.34218  0.51531  Biso   1.000  H
  C442     1.0000 0.35501  0.14099  0.63151  Biso   1.000  C
  H471     1.0000 0.23198  0.17539  0.66410  Biso   1.000  H
  H472     1.0000 0.09269  0.39048  0.46619  Biso   1.000  H
  H473     1.0000 0.15013  0.31147  0.49420  Biso   1.000  H
  C443     1.0000 0.02488  0.31319  0.54799  Biso   1.000  C
  H474     1.0000 0.08617  0.21192  0.60402  Biso   1.000  H
  H475     1.0000 0.99783  0.23768  0.63880  Biso   1.000  H
  C444     1.0000 0.91792  0.23321  0.93810  Biso   1.000  C
  C445     1.0000 0.96412  0.29551  0.82771  Biso   1.000  C
  C446     1.0000 0.50083  0.27292  0.48749  Biso   1.000  C
  C447     1.0000 0.42723  0.16830  0.58611  Biso   1.000  C
  C448     1.0000 0.35423  0.06141  0.67858  Biso   1.000  C
  H476     1.0000 0.98728  0.28609  0.52522  Biso   1.000  H
  H477     1.0000 0.98437  0.35359  0.55552  Biso   1.000  H
  C449     1.0000 0.98849  0.17679  0.94172  Biso   1.000  C
  C450     1.0000 0.85463  0.22592  0.99632  Biso   1.000  C
  C451     1.0000 0.03017  0.23963  0.83228  Biso   1.000  C
  C452     1.0000 0.95182  0.36059  0.76358  Biso   1.000  C
  H478     1.0000 0.48594  0.32580  0.46090  Biso   1.000  H
  H479     1.0000 0.56272  0.27189  0.50659  Biso   1.000  H
  H480     1.0000 0.50261  0.23970  0.46119  Biso   1.000  H
  N36      1.0000 0.51170  0.12540  0.58582  Biso   1.000  N
  H481     1.0000 0.40964  0.03309  0.67058  Biso   1.000  H
  H482     1.0000 0.35629  0.06379  0.72180  Biso   1.000  H
  H483     1.0000 0.29623  0.03493  0.67420  Biso   1.000  H
  C453     1.0000 0.04299  0.17800  0.88860  Biso   1.000  C
  H484     1.0000 0.99858  0.13730  0.98131  Biso   1.000  H
  H485     1.0000 0.81053  0.26948  0.98641  Biso   1.000  H
  H486     1.0000 0.81859  0.17768  0.00799  Biso   1.000  H
  H487     1.0000 0.89379  0.22569  0.03191  Biso   1.000  H
  H488     1.0000 0.06893  0.24263  0.79588  Biso   1.000  H
  H489     1.0000 0.99799  0.35401  0.73218  Biso   1.000  H
  H490     1.0000 0.88750  0.35881  0.74871  Biso   1.000  H
  H491     1.0000 0.96210  0.41038  0.76920  Biso   1.000  H
  C454     1.0000 0.51889  0.05313  0.58158  Biso   1.000  C
  H492     1.0000 0.56529  0.14793  0.58859  Biso   1.000  H
  C455     1.0000 0.10813  0.11040  0.88702  Biso   1.000  C
  O31      1.0000 0.45288  0.02007  0.56800  Biso   1.000  O
  C456     1.0000 0.61451  0.01830  0.59859  Biso   1.000  C
  C457     1.0000 0.05477  0.07068  0.84800  Biso   1.000  C
  C458     1.0000 0.12440  0.05431  0.95468  Biso   1.000  C
  C459     1.0000 0.20823  0.14182  0.85891  Biso   1.000  C
  C460     1.0000 0.66780  0.03537  0.64261  Biso   1.000  C
  C461     1.0000 0.64973  0.96248  0.57320  Biso   1.000  C
  C462     1.0000 0.96500  0.03730  0.87092  Biso   1.000  C
  C463     1.0000 0.08278  0.07240  0.78788  Biso   1.000  C
  C464     1.0000 0.19449  0.98971  0.95720  Biso   1.000  C
  H493     1.0000 0.06288  0.03120  0.97369  Biso   1.000  H
  H494     1.0000 0.14819  0.08367  0.98112  Biso   1.000  H
  C465     1.0000 0.28082  0.07958  0.86192  Biso   1.000  C
  H495     1.0000 0.23197  0.17449  0.88240  Biso   1.000  H
  H496     1.0000 0.20161  0.17471  0.81380  Biso   1.000  H
  C466     1.0000 0.75587  0.00212  0.66000  Biso   1.000  C
  H497     1.0000 0.64370  0.07102  0.66172  Biso   1.000  H
  H498     1.0000 0.61232  0.94891  0.54380  Biso   1.000  H
  C467     1.0000 0.73583  0.92729  0.58921  Biso   1.000  C
  C468     1.0000 0.90750  0.00729  0.83752  Biso   1.000  C
  H499     1.0000 0.94380  0.03601  0.91208  Biso   1.000  H
  C469     1.0000 0.02858  0.04191  0.75072  Biso   1.000  C
  H500     1.0000 0.14187  0.09559  0.77082  Biso   1.000  H
  H501     1.0000 0.17052  0.95869  0.93219  Biso   1.000  H
  H502     1.0000 0.20088  0.95529  0.00180  Biso   1.000  H
  C470     1.0000 0.29183  0.02368  0.92990  Biso   1.000  C
  H503     1.0000 0.26120  0.05063  0.83419  Biso   1.000  H
  H504     1.0000 0.34278  0.10398  0.84548  Biso   1.000  H
  C471     1.0000 0.80910  0.02992  0.70379  Biso   1.000  C
  C472     1.0000 0.79040  0.94807  0.63370  Biso   1.000  C
  C473     1.0000 0.77030  0.86909  0.56071  Biso   1.000  C
  C474     1.0000 0.93928  0.01053  0.77659  Biso   1.000  C
  C475     1.0000 0.81184  0.97499  0.86339  Biso   1.000  C
  C476     1.0000 0.06019  0.04391  0.68602  Biso   1.000  C
  H505     1.0000 0.33607  0.98188  0.92971  Biso   1.000  H
  H506     1.0000 0.31817  0.05118  0.95692  Biso   1.000  H
  O32      1.0000 0.79053  0.09206  0.71012  Biso   1.000  O
  N37      1.0000 0.87922  0.98410  0.73771  Biso   1.000  N
  H507     1.0000 0.85058  0.92489  0.64552  Biso   1.000  H
  C477     1.0000 0.69203  0.79810  0.58192  Biso   1.000  C
  C478     1.0000 0.86908  0.83218  0.58711  Biso   1.000  C
  C479     1.0000 0.77819  0.90220  0.48939  Biso   1.000  C
  H508     1.0000 0.76263  0.00519  0.83562  Biso   1.000  H
  H509     1.0000 0.80213  0.97750  0.90641  Biso   1.000  H
  H510     1.0000 0.80830  0.92130  0.86511  Biso   1.000  H
  H511     1.0000 0.06379  0.99130  0.68492  Biso   1.000  H
  H512     1.0000 0.12287  0.06801  0.67568  Biso   1.000  H
  H513     1.0000 0.01477  0.07380  0.65471  Biso   1.000  H
  H514     1.0000 0.88760  0.93769  0.73552  Biso   1.000  H
  H515     1.0000 0.68817  0.77578  0.62851  Biso   1.000  H
  H516     1.0000 0.62967  0.81820  0.56581  Biso   1.000  H
  H517     1.0000 0.71181  0.75838  0.56391  Biso   1.000  H
  H518     1.0000 0.91773  0.87240  0.57620  Biso   1.000  H
  H519     1.0000 0.86383  0.80820  0.63351  Biso   1.000  H
  H520     1.0000 0.88677  0.79311  0.56800  Biso   1.000  H
  H521     1.0000 0.82498  0.94378  0.47701  Biso   1.000  H
  H522     1.0000 0.79829  0.86178  0.47229  Biso   1.000  H
  H523     1.0000 0.71637  0.92239  0.47238  Biso   1.000  H
  C480     1.0000 0.49919  0.72710  0.51250  Biso   1.000  C
  C481     1.0000 0.57548  0.75611  0.45971  Biso   1.000  C
  H524     1.0000 0.51408  0.67422  0.53908  Biso   1.000  H
  H525     1.0000 0.43729  0.72813  0.49339  Biso   1.000  H
  H526     1.0000 0.49741  0.76032  0.53880  Biso   1.000  H
  C482     1.0000 0.64910  0.70838  0.45461  Biso   1.000  C
  C483     1.0000 0.57278  0.83172  0.41388  Biso   1.000  C
  C484     1.0000 0.71998  0.73103  0.40749  Biso   1.000  C
  H527     1.0000 0.65132  0.65776  0.48472  Biso   1.000  H
  C485     1.0000 0.64501  0.85901  0.36852  Biso   1.000  C
  N38      1.0000 0.48832  0.87460  0.41421  Biso   1.000  N
  C486     1.0000 0.78933  0.66988  0.39549  Biso   1.000  C
  C487     1.0000 0.71790  0.80701  0.36662  Biso   1.000  C
  C488     1.0000 0.64578  0.93861  0.32140  Biso   1.000  C
  C489     1.0000 0.48113  0.94689  0.41840  Biso   1.000  C
  H528     1.0000 0.43472  0.85209  0.41140  Biso   1.000  H
  C490     1.0000 0.73072  0.62991  0.35842  Biso   1.000  C
  C491     1.0000 0.82277  0.61181  0.46028  Biso   1.000  C
  C492     1.0000 0.87688  0.70583  0.35528  Biso   1.000  C
  H529     1.0000 0.76797  0.82463  0.33589  Biso   1.000  H
  H530     1.0000 0.59038  0.96688  0.32941  Biso   1.000  H
  H531     1.0000 0.64373  0.93618  0.27819  Biso   1.000  H
  H532     1.0000 0.70379  0.96510  0.32579  Biso   1.000  H
  O33      1.0000 0.54707  0.97989  0.43198  Biso   1.000  O
  C493     1.0000 0.38551  0.98172  0.40140  Biso   1.000  C
  C494     1.0000 0.69541  0.67268  0.29872  Biso   1.000  C
  C495     1.0000 0.70340  0.55262  0.38181  Biso   1.000  C
  H533     1.0000 0.76659  0.59018  0.48792  Biso   1.000  H
  H534     1.0000 0.85697  0.56861  0.45218  Biso   1.000  H
  C496     1.0000 0.88611  0.64880  0.49411  Biso   1.000  C
  C497     1.0000 0.94532  0.74339  0.38891  Biso   1.000  C
  H535     1.0000 0.85617  0.74529  0.31549  Biso   1.000  H
  H536     1.0000 0.91149  0.66542  0.34351  Biso   1.000  H
  C498     1.0000 0.33221  0.96457  0.35742  Biso   1.000  C
  C499     1.0000 0.35028  0.03749  0.42679  Biso   1.000  C
  C500     1.0000 0.64128  0.64332  0.26428  Biso   1.000  C
  H537     1.0000 0.71099  0.72589  0.28162  Biso   1.000  H
  C501     1.0000 0.64699  0.51950  0.34899  Biso   1.000  C
  H538     1.0000 0.72489  0.52140  0.42241  Biso   1.000  H
  H539     1.0000 0.90732  0.60949  0.53380  Biso   1.000  H
  H540     1.0000 0.84989  0.68849  0.50578  Biso   1.000  H
  C502     1.0000 0.97513  0.68683  0.45199  Biso   1.000  C
  H541     1.0000 0.91377  0.78808  0.39601  Biso   1.000  H
  H542     1.0000 0.00219  0.76229  0.36118  Biso   1.000  H
  C503     1.0000 0.24407  0.99790  0.33998  Biso   1.000  C
  H543     1.0000 0.35631  0.92898  0.33832  Biso   1.000  H
  H544     1.0000 0.38769  0.05111  0.45618  Biso   1.000  H
  C504     1.0000 0.26418  0.07273  0.41078  Biso   1.000  C
  C505     1.0000 0.61517  0.56430  0.28991  Biso   1.000  C
  C506     1.0000 0.60423  0.69478  0.19972  Biso   1.000  C
  C507     1.0000 0.62001  0.43559  0.37638  Biso   1.000  C
  H545     1.0000 0.01273  0.71391  0.47481  Biso   1.000  H
  H546     1.0000 0.01558  0.64641  0.44451  Biso   1.000  H
  C508     1.0000 0.19092  0.97010  0.29620  Biso   1.000  C
  C509     1.0000 0.20962  0.05189  0.36628  Biso   1.000  C
  C510     1.0000 0.22971  0.13092  0.43932  Biso   1.000  C
  N39      1.0000 0.55538  0.53232  0.25442  Biso   1.000  N
  H547     1.0000 0.62958  0.74700  0.18962  Biso   1.000  H
  H548     1.0000 0.53470  0.69662  0.20201  Biso   1.000  H
  H549     1.0000 0.62459  0.67370  0.16651  Biso   1.000  H
  H550     1.0000 0.64979  0.41238  0.41769  Biso   1.000  H
  H551     1.0000 0.64168  0.40893  0.34718  Biso   1.000  H
  H552     1.0000 0.55089  0.43112  0.38219  Biso   1.000  H
  N40      1.0000 0.12080  0.01592  0.26228  Biso   1.000  N
  O34      1.0000 0.20948  0.90788  0.28991  Biso   1.000  O
  H553     1.0000 0.14943  0.07511  0.35451  Biso   1.000  H
  C511     1.0000 0.30798  0.20190  0.41812  Biso   1.000  C
  C512     1.0000 0.13087  0.16779  0.41288  Biso   1.000  C
  C513     1.0000 0.22183  0.09782  0.51059  Biso   1.000  C
  C514     1.0000 0.46763  0.55629  0.24212  Biso   1.000  C
  H554     1.0000 0.57770  0.49581  0.24050  Biso   1.000  H
  C515     1.0000 0.06073  0.98949  0.22340  Biso   1.000  C
  H555     1.0000 0.11241  0.06231  0.26452  Biso   1.000  H
  H556     1.0000 0.31178  0.22416  0.37152  Biso   1.000  H
  H557     1.0000 0.37027  0.18180  0.43422  Biso   1.000  H
  H558     1.0000 0.28820  0.24159  0.43608  Biso   1.000  H
  H559     1.0000 0.08228  0.12762  0.42379  Biso   1.000  H
  H560     1.0000 0.13619  0.19180  0.36652  Biso   1.000  H
  H561     1.0000 0.11317  0.20691  0.43198  Biso   1.000  H
  H562     1.0000 0.17503  0.05618  0.52298  Biso   1.000  H
  H563     1.0000 0.20172  0.13819  0.52770  Biso   1.000  H
  H564     1.0000 0.28358  0.07758  0.52760  Biso   1.000  H
  C516     1.0000 0.41400  0.53141  0.19529  Biso   1.000  C
  O35      1.0000 0.42732  0.60098  0.26580  Biso   1.000  O
  C517     1.0000 0.09251  0.99271  0.16251  Biso   1.000  C
  C518     1.0000 0.97143  0.95809  0.24932  Biso   1.000  C
  C519     1.0000 0.44800  0.48899  0.15851  Biso   1.000  C
  C520     1.0000 0.31948  0.55998  0.18409  Biso   1.000  C
  C521     1.0000 0.03501  0.96270  0.12911  Biso   1.000  C
  C522     1.0000 0.18818  0.02498  0.13659  Biso   1.000  C
  C523     1.0000 0.91723  0.92762  0.21211  Biso   1.000  C
  C524     1.0000 0.93982  0.95609  0.31402  Biso   1.000  C
  N41      1.0000 0.39890  0.47562  0.11311  Biso   1.000  N
  H565     1.0000 0.51019  0.46833  0.16599  Biso   1.000  H
  C525     1.0000 0.27033  0.54970  0.13588  Biso   1.000  C
  H566     1.0000 0.29100  0.58622  0.21020  Biso   1.000  H
  C526     1.0000 0.94517  0.92928  0.15198  Biso   1.000  C
  H567     1.0000 0.05622  0.96401  0.08790  Biso   1.000  H
  H568     1.0000 0.23738  0.99481  0.16442  Biso   1.000  H
  H569     1.0000 0.19788  0.02250  0.09362  Biso   1.000  H
  H570     1.0000 0.19172  0.07872  0.13488  Biso   1.000  H
  H571     1.0000 0.85807  0.90441  0.22921  Biso   1.000  H
  H572     1.0000 0.87708  0.93201  0.32431  Biso   1.000  H
  H573     1.0000 0.98517  0.92620  0.34532  Biso   1.000  H
  H574     1.0000 0.93623  0.00870  0.31511  Biso   1.000  H
  C527     1.0000 0.31218  0.50629  0.10129  Biso   1.000  C
  C528     1.0000 0.17731  0.59073  0.11739  Biso   1.000  C
  C529     1.0000 0.89188  0.88960  0.11301  Biso   1.000  C
  H575     1.0000 0.27763  0.49843  0.06799  Biso   1.000  H
  N42      1.0000 0.17294  0.65869  0.12649  Biso   1.000  N
  O36      1.0000 0.11282  0.56457  0.09481  Biso   1.000  O
  C530     1.0000 0.95703  0.82202  0.11139  Biso   1.000  C
  C531     1.0000 0.87562  0.94571  0.04531  Biso   1.000  C
  C532     1.0000 0.79178  0.85818  0.14112  Biso   1.000  C
  C533     1.0000 0.09273  0.70862  0.12001  Biso   1.000  C
  H576     1.0000 0.22581  0.67483  0.13778  Biso   1.000  H
  C534     1.0000 0.96977  0.76039  0.16770  Biso   1.000  C
  C535     1.0000 0.01152  0.82321  0.05832  Biso   1.000  C
  H577     1.0000 0.93706  0.96883  0.02630  Biso   1.000  H
  H578     1.0000 0.85182  0.91627  0.01891  Biso   1.000  H
  C536     1.0000 0.80552  0.01031  0.04278  Biso   1.000  C
  C537     1.0000 0.71919  0.92037  0.13812  Biso   1.000  C
  H579     1.0000 0.76797  0.82553  0.11758  Biso   1.000  H
  H580     1.0000 0.79841  0.82531  0.18619  Biso   1.000  H
  C538     1.0000 0.03590  0.70451  0.17228  Biso   1.000  C
  C539     1.0000 0.08209  0.76681  0.06189  Biso   1.000  C
  H581     1.0000 0.93109  0.75739  0.20410  Biso   1.000  H
  H582     1.0000 0.00137  0.86272  0.01868  Biso   1.000  H
  C540     1.0000 0.70819  0.97629  0.07008  Biso   1.000  C
  H583     1.0000 0.79907  0.04473  0.99819  Biso   1.000  H
  H584     1.0000 0.82950  0.04128  0.06780  Biso   1.000  H
  H585     1.0000 0.73882  0.94939  0.16580  Biso   1.000  H
  H586     1.0000 0.65717  0.89598  0.15451  Biso   1.000  H
  C541     1.0000 0.04820  0.63938  0.23641  Biso   1.000  C
  C542     1.0000 0.14539  0.77408  0.00372  Biso   1.000  C
  H587     1.0000 0.68177  0.94877  0.04312  Biso   1.000  H
  H588     1.0000 0.66387  0.01807  0.07032  Biso   1.000  H
  H589     1.0000 0.00202  0.64601  0.26780  Biso   1.000  H
  H590     1.0000 0.11251  0.64120  0.25132  Biso   1.000  H
  H591     1.0000 0.03792  0.58959  0.23078  Biso   1.000  H
  H592     1.0000 0.18948  0.73048  0.01358  Biso   1.000  H
  H593     1.0000 0.18143  0.82229  0.99200  Biso   1.000  H
  H594     1.0000 0.10623  0.77433  0.96808  Biso   1.000  H
  Ne1      1.0000 0.32817  0.79960  0.27294  Biso   1.000  Ne
  He1      1.0000 0.39156  0.76487  0.31563  Biso   1.000  He
  He2      1.0000 0.33749  0.80889  0.18447  Biso   1.000  He
  Ar1      1.0000 0.40575  0.79641  0.26265  Biso   1.000  Ar
  Ne2      1.0000 0.67183  0.20040  0.72706  Biso   1.000  Ne
  He3      1.0000 0.56791  0.17935  0.74098  Biso   1.000  He
  He4      1.0000 0.60627  0.23336  0.68615  Biso   1.000  He
  Ar2      1.0000 0.59640  0.20340  0.73944  Biso   1.000  Ar
  Ne3      1.0000 0.00144  0.50189  0.99928  Biso   1.000  Ne
  He5      1.0000 0.11317  0.60793  0.05558  Biso   1.000  He
  He6      1.0000 0.88243  0.44571  0.91568  Biso   1.000  He
  Ar3      1.0000 0.00043  0.50156  0.00021  Biso   1.000  Ar
  Ne4      1.0000 0.00144  0.50189  0.99928  Biso   1.000  Ne
  He7      1.0000 0.11317  0.60793  0.05558  Biso   1.000  He
  He8      1.0000 0.88243  0.44571  0.91568  Biso   1.000  He
  Ar4      1.0000 0.00043  0.50156  0.00021  Biso   1.000  Ar
  Ne5      1.0000 0.00144  0.50189  0.99928  Biso   1.000  Ne
  He9      1.0000 0.11317  0.60793  0.05558  Biso   1.000  He
  He10     1.0000 0.88243  0.44571  0.91568  Biso   1.000  He
  Ar5      1.0000 0.00043  0.50156  0.00021  Biso   1.000  Ar
  Ne6      1.0000 0.00144  0.50189  0.99928  Biso   1.000  Ne
  He11     1.0000 0.11317  0.60793  0.05558  Biso   1.000  He
  He12     1.0000 0.88243  0.44571  0.91568  Biso   1.000  He
  Ar6      1.0000 0.00043  0.50156  0.00021  Biso   1.000  Ar
