data_image0
_cell_length_a       26.127
_cell_length_b       26.127
_cell_length_c       43.923
_cell_angle_alpha    90
_cell_angle_beta     90
_cell_angle_gamma    90

_symmetry_space_group_name_H-M    "P 1"
_symmetry_int_tables_number       1

loop_
  _symmetry_equiv_pos_as_xyz
  'x, y, z'

loop_
  _atom_site_label
  _atom_site_occupancy
  _atom_site_fract_x
  _atom_site_fract_y
  _atom_site_fract_z
  _atom_site_thermal_displace_type
  _atom_site_B_iso_or_equiv
  _atom_site_type_symbol
  O1       1.0000 0.83117  0.89019  0.25538  Biso   1.000  O
  S1       1.0000 0.87278  0.91737  0.26824  Biso   1.000  S
  O2       1.0000 0.87469  0.91848  0.30032  Biso   1.000  O
  C1       1.0000 0.92950  0.88988  0.25481  Biso   1.000  C
  C2       1.0000 0.87040  0.97987  0.25561  Biso   1.000  C
  Mg1      1.0000 0.93126  0.95556  0.32511  Biso   1.000  Mg
  C3       1.0000 0.97899  0.89398  0.26990  Biso   1.000  C
  C4       1.0000 0.92318  0.85659  0.23011  Biso   1.000  C
  C5       1.0000 0.89398  0.02101  0.26990  Biso   1.000  C
  C6       1.0000 0.83860  0.98836  0.22931  Biso   1.000  C
  O3       1.0000 0.93428  0.89589  0.35487  Biso   1.000  O
  O4       1.0000 0.87959  0.98167  0.35446  Biso   1.000  O
  Mg2      1.0000 0.04444  0.93126  0.32511  Biso   1.000  Mg
  Mg3      1.0000 0.95556  0.06874  0.32511  Biso   1.000  Mg
  O5       1.0000 0.98320  0.92169  0.29497  Biso   1.000  O
  O6       1.0000 0.92169  0.01680  0.29497  Biso   1.000  O
  O7       1.0000 1.00000  1.00000  0.33850  Biso   1.000  O
  C7       1.0000 0.02009  0.87040  0.25561  Biso   1.000  C
  H1       1.0000 0.89019  0.85149  0.22159  Biso   1.000  H
  C8       1.0000 0.96337  0.83197  0.21820  Biso   1.000  C
  C9       1.0000 0.88988  0.07050  0.25481  Biso   1.000  C
  H2       1.0000 0.82229  0.96027  0.21970  Biso   1.000  H
  C10      1.0000 0.83197  0.03659  0.21820  Biso   1.000  C
  C11      1.0000 0.97570  0.87457  0.36400  Biso   1.000  C
  C12      1.0000 0.87457  0.02430  0.36400  Biso   1.000  C
  O8       1.0000 0.01830  0.87959  0.35446  Biso   1.000  O
  O9       1.0000 0.08149  0.87469  0.30032  Biso   1.000  O
  O10      1.0000 0.07831  0.98320  0.29497  Biso   1.000  O
  O11      1.0000 0.10411  0.93428  0.35487  Biso   1.000  O
  Mg4      1.0000 0.06874  0.04444  0.32511  Biso   1.000  Mg
  O12      1.0000 0.89589  0.06572  0.35487  Biso   1.000  O
  O13      1.0000 0.91848  0.12531  0.30032  Biso   1.000  O
  O14      1.0000 0.98167  0.12041  0.35446  Biso   1.000  O
  O15      1.0000 0.01680  0.07831  0.29497  Biso   1.000  O
  S2       1.0000 0.08263  0.87278  0.26824  Biso   1.000  S
  C13      1.0000 0.01160  0.83860  0.22931  Biso   1.000  C
  C14      1.0000 0.95388  0.80220  0.18601  Biso   1.000  C
  S3       1.0000 0.91737  0.12722  0.26824  Biso   1.000  S
  C15      1.0000 0.85659  0.07682  0.23011  Biso   1.000  C
  C16      1.0000 0.80220  0.04608  0.18601  Biso   1.000  C
  C17      1.0000 0.96528  0.83909  0.39196  Biso   1.000  C
  C18      1.0000 0.83909  0.03472  0.39196  Biso   1.000  C
  C19      1.0000 0.10598  0.97899  0.26990  Biso   1.000  C
  C20      1.0000 0.12539  0.97570  0.36400  Biso   1.000  C
  O16      1.0000 0.12531  0.08149  0.30032  Biso   1.000  O
  O17      1.0000 0.06572  0.10411  0.35487  Biso   1.000  O
  O18      1.0000 0.12041  0.01830  0.35446  Biso   1.000  O
  C21      1.0000 0.02430  0.12539  0.36400  Biso   1.000  C
  C22      1.0000 0.02101  0.10598  0.26990  Biso   1.000  C
  O19      1.0000 0.10981  0.83117  0.25538  Biso   1.000  O
  C23      1.0000 0.11012  0.92950  0.25481  Biso   1.000  C
  H3       1.0000 0.03969  0.82229  0.21970  Biso   1.000  H
  C24      1.0000 0.89987  0.80197  0.17560  Biso   1.000  C
  C25      1.0000 0.98607  0.83090  0.16269  Biso   1.000  C
  C26      1.0000 0.97700  0.75167  0.19420  Biso   1.000  C
  O20      1.0000 0.89019  0.16879  0.25538  Biso   1.000  O
  C27      1.0000 0.97987  0.12960  0.25561  Biso   1.000  C
  H4       1.0000 0.85149  0.10981  0.22159  Biso   1.000  H
  C28      1.0000 0.80197  0.10009  0.17560  Biso   1.000  C
  C29      1.0000 0.83090  0.01389  0.16269  Biso   1.000  C
  C30      1.0000 0.75167  0.02300  0.19420  Biso   1.000  C
  C31      1.0000 0.91717  0.83389  0.40521  Biso   1.000  C
  C32      1.0000 0.00739  0.81479  0.40480  Biso   1.000  C
  C33      1.0000 0.81479  0.99261  0.40480  Biso   1.000  C
  C34      1.0000 0.83389  0.08279  0.40521  Biso   1.000  C
  C35      1.0000 0.12960  0.02009  0.25561  Biso   1.000  C
  C36      1.0000 0.16091  0.96528  0.39196  Biso   1.000  C
  S4       1.0000 0.12722  0.08263  0.26824  Biso   1.000  S
  C37      1.0000 0.03472  0.16091  0.39196  Biso   1.000  C
  C38      1.0000 0.07050  0.11012  0.25481  Biso   1.000  C
  C39      1.0000 0.14341  0.92318  0.23011  Biso   1.000  C
  H5       1.0000 0.89800  0.78830  0.15491  Biso   1.000  H
  H6       1.0000 0.87940  0.78038  0.18931  Biso   1.000  H
  H7       1.0000 0.88640  0.83699  0.17590  Biso   1.000  H
  H8       1.0000 0.98098  0.86780  0.16520  Biso   1.000  H
  H9       1.0000 0.97558  0.82080  0.14209  Biso   1.000  H
  H10      1.0000 0.02231  0.82260  0.16570  Biso   1.000  H
  H11      1.0000 0.98549  0.75137  0.21590  Biso   1.000  H
  H12      1.0000 0.95246  0.72427  0.18981  Biso   1.000  H
  H13      1.0000 0.00819  0.74628  0.18221  Biso   1.000  H
  C40      1.0000 0.98836  0.16140  0.22931  Biso   1.000  C
  H14      1.0000 0.78830  0.10200  0.15491  Biso   1.000  H
  H15      1.0000 0.78038  0.12060  0.18931  Biso   1.000  H
  H16      1.0000 0.83699  0.11360  0.17590  Biso   1.000  H
  H17      1.0000 0.82260  0.97769  0.16570  Biso   1.000  H
  H18      1.0000 0.86780  0.01898  0.16520  Biso   1.000  H
  H19      1.0000 0.82080  0.02438  0.14209  Biso   1.000  H
  H20      1.0000 0.74628  0.99177  0.18221  Biso   1.000  H
  H21      1.0000 0.75137  0.01451  0.21590  Biso   1.000  H
  H22      1.0000 0.72427  0.04750  0.18981  Biso   1.000  H
  C41      1.0000 0.91132  0.80438  0.43130  Biso   1.000  C
  H23      1.0000 0.88839  0.85050  0.39640  Biso   1.000  H
  C42      1.0000 0.00149  0.78528  0.43089  Biso   1.000  C
  H24      1.0000 0.04019  0.81839  0.39569  Biso   1.000  H
  C43      1.0000 0.78528  0.99847  0.43089  Biso   1.000  C
  H25      1.0000 0.81839  0.95977  0.39569  Biso   1.000  H
  C44      1.0000 0.80438  0.08868  0.43130  Biso   1.000  C
  H26      1.0000 0.85050  0.11161  0.39640  Biso   1.000  H
  C45      1.0000 0.16140  0.01160  0.22931  Biso   1.000  C
  C46      1.0000 0.16611  0.91717  0.40521  Biso   1.000  C
  C47      1.0000 0.18521  0.00739  0.40480  Biso   1.000  C
  O21      1.0000 0.16879  0.10981  0.25538  Biso   1.000  O
  C48      1.0000 0.99261  0.18521  0.40480  Biso   1.000  C
  C49      1.0000 0.08279  0.16611  0.40521  Biso   1.000  C
  C50      1.0000 0.07682  0.14341  0.23011  Biso   1.000  C
  H27      1.0000 0.14851  0.89019  0.22159  Biso   1.000  H
  C51      1.0000 0.16799  0.96337  0.21820  Biso   1.000  C
  H28      1.0000 0.96027  0.17771  0.21970  Biso   1.000  H
  C52      1.0000 0.03659  0.16799  0.21820  Biso   1.000  C
  C53      1.0000 0.85988  0.80047  0.44530  Biso   1.000  C
  C54      1.0000 0.95338  0.78007  0.44414  Biso   1.000  C
  C55      1.0000 0.04800  0.76197  0.44501  Biso   1.000  C
  C56      1.0000 0.76197  0.95197  0.44501  Biso   1.000  C
  C57      1.0000 0.78007  0.04658  0.44414  Biso   1.000  C
  C58      1.0000 0.80047  0.14008  0.44530  Biso   1.000  C
  H29      1.0000 0.17771  0.03969  0.21970  Biso   1.000  H
  C59      1.0000 0.19558  0.91132  0.43130  Biso   1.000  C
  H30      1.0000 0.14950  0.88839  0.39640  Biso   1.000  H
  H31      1.0000 0.18161  0.04019  0.39569  Biso   1.000  H
  C60      1.0000 0.21468  0.00149  0.43089  Biso   1.000  C
  C61      1.0000 0.99847  0.21468  0.43089  Biso   1.000  C
  H32      1.0000 0.95977  0.18161  0.39569  Biso   1.000  H
  C62      1.0000 0.08868  0.19558  0.43130  Biso   1.000  C
  H33      1.0000 0.11161  0.14950  0.39640  Biso   1.000  H
  H34      1.0000 0.10981  0.14851  0.22159  Biso   1.000  H
  C63      1.0000 0.19780  0.95388  0.18601  Biso   1.000  C
  C64      1.0000 0.04608  0.19780  0.18601  Biso   1.000  C
  O22      1.0000 0.82267  0.82570  0.43328  Biso   1.000  O
  O23      1.0000 0.85590  0.77437  0.47046  Biso   1.000  O
  H35      1.0000 0.94936  0.75990  0.46199  Biso   1.000  H
  O24      1.0000 0.04011  0.73709  0.46932  Biso   1.000  O
  O25      1.0000 0.08991  0.76878  0.43342  Biso   1.000  O
  O26      1.0000 0.76878  0.91009  0.43342  Biso   1.000  O
  O27      1.0000 0.73709  0.95989  0.46932  Biso   1.000  O
  H36      1.0000 0.75990  0.05060  0.46199  Biso   1.000  H
  O28      1.0000 0.82570  0.17729  0.43328  Biso   1.000  O
  O29      1.0000 0.77437  0.14410  0.47046  Biso   1.000  O
  C65      1.0000 0.19949  0.85988  0.44530  Biso   1.000  C
  C66      1.0000 0.21989  0.95338  0.44414  Biso   1.000  C
  C67      1.0000 0.23799  0.04800  0.44501  Biso   1.000  C
  C68      1.0000 0.95197  0.23799  0.44501  Biso   1.000  C
  C69      1.0000 0.04658  0.21989  0.44414  Biso   1.000  C
  C70      1.0000 0.14008  0.19949  0.44530  Biso   1.000  C
  C71      1.0000 0.19799  0.89987  0.17560  Biso   1.000  C
  C72      1.0000 0.16910  0.98607  0.16269  Biso   1.000  C
  C73      1.0000 0.24829  0.97700  0.19420  Biso   1.000  C
  C74      1.0000 0.10009  0.19799  0.17560  Biso   1.000  C
  C75      1.0000 0.01389  0.16910  0.16269  Biso   1.000  C
  C76      1.0000 0.02300  0.24829  0.19420  Biso   1.000  C
  Mg5      1.0000 0.75462  0.84013  0.45131  Biso   1.000  Mg
  Mg6      1.0000 0.79887  0.77146  0.50001  Biso   1.000  Mg
  Mg7      1.0000 0.09113  0.70973  0.50001  Biso   1.000  Mg
  Mg8      1.0000 0.15983  0.75462  0.45131  Biso   1.000  Mg
  Mg9      1.0000 0.70973  0.90883  0.50001  Biso   1.000  Mg
  Mg10     1.0000 0.84013  0.24538  0.45131  Biso   1.000  Mg
  Mg11     1.0000 0.77146  0.20113  0.50001  Biso   1.000  Mg
  O30      1.0000 0.17430  0.82267  0.43328  Biso   1.000  O
  O31      1.0000 0.22559  0.85590  0.47046  Biso   1.000  O
  H37      1.0000 0.24010  0.94936  0.46199  Biso   1.000  H
  O32      1.0000 0.26291  0.04011  0.46932  Biso   1.000  O
  O33      1.0000 0.23118  0.08991  0.43342  Biso   1.000  O
  O34      1.0000 0.91009  0.23118  0.43342  Biso   1.000  O
  O35      1.0000 0.95989  0.26291  0.46932  Biso   1.000  O
  H38      1.0000 0.05060  0.24010  0.46199  Biso   1.000  H
  O36      1.0000 0.17729  0.17430  0.43328  Biso   1.000  O
  O37      1.0000 0.14410  0.22559  0.47046  Biso   1.000  O
  H39      1.0000 0.21170  0.89800  0.15491  Biso   1.000  H
  H40      1.0000 0.21958  0.87940  0.18931  Biso   1.000  H
  H41      1.0000 0.16301  0.88640  0.17590  Biso   1.000  H
  H42      1.0000 0.13220  0.98098  0.16520  Biso   1.000  H
  H43      1.0000 0.17920  0.97558  0.14209  Biso   1.000  H
  H44      1.0000 0.17740  0.02231  0.16570  Biso   1.000  H
  H45      1.0000 0.24859  0.98549  0.21590  Biso   1.000  H
  H46      1.0000 0.27569  0.95246  0.18981  Biso   1.000  H
  H47      1.0000 0.25368  0.00819  0.18221  Biso   1.000  H
  H48      1.0000 0.10200  0.21170  0.15491  Biso   1.000  H
  H49      1.0000 0.12060  0.21958  0.18931  Biso   1.000  H
  H50      1.0000 0.11360  0.16301  0.17590  Biso   1.000  H
  H51      1.0000 0.97769  0.17740  0.16570  Biso   1.000  H
  H52      1.0000 0.01898  0.13220  0.16520  Biso   1.000  H
  H53      1.0000 0.02438  0.17920  0.14209  Biso   1.000  H
  H54      1.0000 0.99177  0.25368  0.18221  Biso   1.000  H
  H55      1.0000 0.01451  0.24859  0.21590  Biso   1.000  H
  H56      1.0000 0.04750  0.27569  0.18981  Biso   1.000  H
  O38      1.0000 0.72098  0.81900  0.41097  Biso   1.000  O
  O39      1.0000 0.74207  0.76538  0.46618  Biso   1.000  O
  O40      1.0000 0.77299  0.85119  0.50001  Biso   1.000  O
  O41      1.0000 0.68217  0.86118  0.46604  Biso   1.000  O
  O42      1.0000 0.80059  0.69388  0.50001  Biso   1.000  O
  Mg12     1.0000 0.75462  0.84013  0.54869  Biso   1.000  Mg
  O43      1.0000 0.74207  0.76538  0.53382  Biso   1.000  O
  O44      1.0000 0.85590  0.77437  0.52954  Biso   1.000  O
  O45      1.0000 0.04011  0.73709  0.53068  Biso   1.000  O
  Mg13     1.0000 0.15983  0.75462  0.54869  Biso   1.000  Mg
  O46      1.0000 0.14881  0.77299  0.50001  Biso   1.000  O
  O47      1.0000 0.05699  0.64098  0.50001  Biso   1.000  O
  O48      1.0000 0.13878  0.68217  0.53396  Biso   1.000  O
  O49      1.0000 0.13878  0.68217  0.46604  Biso   1.000  O
  Mg14     1.0000 0.22854  0.79887  0.50001  Biso   1.000  Mg
  O50      1.0000 0.18100  0.72098  0.41097  Biso   1.000  O
  O51      1.0000 0.23458  0.74207  0.46618  Biso   1.000  O
  O52      1.0000 0.64098  0.94297  0.50001  Biso   1.000  O
  O53      1.0000 0.68217  0.86118  0.53396  Biso   1.000  O
  O54      1.0000 0.73709  0.95989  0.53068  Biso   1.000  O
  Mg15     1.0000 0.90883  0.29024  0.50001  Biso   1.000  Mg
  O55      1.0000 0.85119  0.22701  0.50001  Biso   1.000  O
  O56      1.0000 0.86118  0.31779  0.46604  Biso   1.000  O
  O57      1.0000 0.81900  0.27898  0.41097  Biso   1.000  O
  O58      1.0000 0.76538  0.25789  0.46618  Biso   1.000  O
  O59      1.0000 0.77437  0.14410  0.52954  Biso   1.000  O
  Mg16     1.0000 0.84013  0.24538  0.54869  Biso   1.000  Mg
  O60      1.0000 0.76538  0.25789  0.53382  Biso   1.000  O
  O61      1.0000 0.69388  0.19941  0.50001  Biso   1.000  O
  Mg17     1.0000 0.29024  0.09113  0.50001  Biso   1.000  Mg
  Mg18     1.0000 0.24538  0.15983  0.45131  Biso   1.000  Mg
  Mg19     1.0000 0.20113  0.22854  0.50001  Biso   1.000  Mg
  S5       1.0000 0.67363  0.78949  0.40999  Biso   1.000  S
  C77      1.0000 0.71639  0.72768  0.45530  Biso   1.000  C
  C78      1.0000 0.63628  0.85467  0.45521  Biso   1.000  C
  S6       1.0000 0.75481  0.66131  0.50001  Biso   1.000  S
  O62      1.0000 0.72098  0.81900  0.58903  Biso   1.000  O
  O63      1.0000 0.82267  0.82570  0.56672  Biso   1.000  O
  O64      1.0000 0.76878  0.91009  0.56658  Biso   1.000  O
  C79      1.0000 0.71639  0.72768  0.54470  Biso   1.000  C
  C80      1.0000 0.85988  0.80047  0.55470  Biso   1.000  C
  C81      1.0000 0.04800  0.76197  0.55499  Biso   1.000  C
  O65      1.0000 0.08991  0.76878  0.56658  Biso   1.000  O
  O66      1.0000 0.18100  0.72098  0.58903  Biso   1.000  O
  O67      1.0000 0.23458  0.74207  0.53382  Biso   1.000  O
  O68      1.0000 0.17430  0.82267  0.56672  Biso   1.000  O
  S7       1.0000 0.08348  0.59257  0.50001  Biso   1.000  S
  C82      1.0000 0.14529  0.63628  0.54479  Biso   1.000  C
  C83      1.0000 0.14529  0.63628  0.45521  Biso   1.000  C
  O69      1.0000 0.30608  0.80059  0.50001  Biso   1.000  O
  O70      1.0000 0.22559  0.85590  0.52954  Biso   1.000  O
  S8       1.0000 0.21047  0.67363  0.40999  Biso   1.000  S
  C84      1.0000 0.27229  0.71639  0.45530  Biso   1.000  C
  S9       1.0000 0.59257  0.91648  0.50001  Biso   1.000  S
  C85      1.0000 0.63628  0.85467  0.54479  Biso   1.000  C
  C86      1.0000 0.76197  0.95197  0.55499  Biso   1.000  C
  O71      1.0000 0.86118  0.31779  0.53396  Biso   1.000  O
  O72      1.0000 0.94297  0.35898  0.50001  Biso   1.000  O
  O73      1.0000 0.95989  0.26291  0.53068  Biso   1.000  O
  C87      1.0000 0.85467  0.36369  0.45521  Biso   1.000  C
  S10      1.0000 0.78949  0.32633  0.40999  Biso   1.000  S
  C88      1.0000 0.72768  0.28358  0.45530  Biso   1.000  C
  C89      1.0000 0.80047  0.14008  0.55470  Biso   1.000  C
  O74      1.0000 0.82570  0.17729  0.56672  Biso   1.000  O
  O75      1.0000 0.81900  0.27898  0.58903  Biso   1.000  O
  O76      1.0000 0.91009  0.23118  0.56658  Biso   1.000  O
  C90      1.0000 0.72768  0.28358  0.54470  Biso   1.000  C
  S11      1.0000 0.66131  0.24519  0.50001  Biso   1.000  S
  O77      1.0000 0.26291  0.04011  0.53068  Biso   1.000  O
  Mg20     1.0000 0.24538  0.15983  0.54869  Biso   1.000  Mg
  O78      1.0000 0.22701  0.14881  0.50001  Biso   1.000  O
  O79      1.0000 0.35898  0.05699  0.50001  Biso   1.000  O
  O80      1.0000 0.31779  0.13878  0.53396  Biso   1.000  O
  O81      1.0000 0.31779  0.13878  0.46604  Biso   1.000  O
  O82      1.0000 0.27898  0.18100  0.41097  Biso   1.000  O
  O83      1.0000 0.25789  0.23458  0.46618  Biso   1.000  O
  O84      1.0000 0.14410  0.22559  0.52954  Biso   1.000  O
  O85      1.0000 0.25789  0.23458  0.53382  Biso   1.000  O
  O86      1.0000 0.19941  0.30608  0.50001  Biso   1.000  O
  C91      1.0000 0.68297  0.73139  0.43100  Biso   1.000  C
  O87      1.0000 0.65450  0.77548  0.38026  Biso   1.000  O
  C92      1.0000 0.62499  0.82187  0.42921  Biso   1.000  C
  C93      1.0000 0.71838  0.67849  0.46750  Biso   1.000  C
  C94      1.0000 0.58908  0.87630  0.46841  Biso   1.000  C
  O88      1.0000 0.76247  0.60780  0.50001  Biso   1.000  O
  C95      1.0000 0.71838  0.67849  0.53250  Biso   1.000  C
  S12      1.0000 0.67363  0.78949  0.59001  Biso   1.000  S
  C96      1.0000 0.68297  0.73139  0.56900  Biso   1.000  C
  C97      1.0000 0.91132  0.80438  0.56870  Biso   1.000  C
  C98      1.0000 0.00149  0.78528  0.56911  Biso   1.000  C
  S13      1.0000 0.21047  0.67363  0.59001  Biso   1.000  S
  C99      1.0000 0.27229  0.71639  0.54470  Biso   1.000  C
  C100     1.0000 0.19949  0.85988  0.55470  Biso   1.000  C
  O89      1.0000 0.05259  0.54779  0.50001  Biso   1.000  O
  C101     1.0000 0.12370  0.58908  0.53159  Biso   1.000  C
  C102     1.0000 0.12370  0.58908  0.46841  Biso   1.000  C
  C103     1.0000 0.17809  0.62499  0.57079  Biso   1.000  C
  C104     1.0000 0.17809  0.62499  0.42921  Biso   1.000  C
  S14      1.0000 0.33865  0.75481  0.50001  Biso   1.000  S
  O90      1.0000 0.22448  0.65450  0.38026  Biso   1.000  O
  C105     1.0000 0.26861  0.68297  0.43100  Biso   1.000  C
  C106     1.0000 0.32151  0.71838  0.46750  Biso   1.000  C
  O91      1.0000 0.54779  0.94737  0.50001  Biso   1.000  O
  C107     1.0000 0.58908  0.87630  0.53159  Biso   1.000  C
  C108     1.0000 0.62499  0.82187  0.57079  Biso   1.000  C
  C109     1.0000 0.78528  0.99847  0.56911  Biso   1.000  C
  C110     1.0000 0.85467  0.36369  0.54479  Biso   1.000  C
  S15      1.0000 0.91648  0.40739  0.50001  Biso   1.000  S
  C111     1.0000 0.95197  0.23799  0.55499  Biso   1.000  C
  C112     1.0000 0.87630  0.41088  0.46841  Biso   1.000  C
  C113     1.0000 0.82187  0.37498  0.42921  Biso   1.000  C
  O92      1.0000 0.77548  0.34550  0.38026  Biso   1.000  O
  C114     1.0000 0.73139  0.31699  0.43100  Biso   1.000  C
  C115     1.0000 0.67849  0.28159  0.46750  Biso   1.000  C
  C116     1.0000 0.80438  0.08868  0.56870  Biso   1.000  C
  S16      1.0000 0.78949  0.32633  0.59001  Biso   1.000  S
  C117     1.0000 0.73139  0.31699  0.56900  Biso   1.000  C
  C118     1.0000 0.67849  0.28159  0.53250  Biso   1.000  C
  O93      1.0000 0.60780  0.23749  0.50001  Biso   1.000  O
  C119     1.0000 0.23799  0.04800  0.55499  Biso   1.000  C
  O94      1.0000 0.23118  0.08991  0.56658  Biso   1.000  O
  O95      1.0000 0.17729  0.17430  0.56672  Biso   1.000  O
  O96      1.0000 0.27898  0.18100  0.58903  Biso   1.000  O
  S17      1.0000 0.40739  0.08348  0.50001  Biso   1.000  S
  C120     1.0000 0.36369  0.14529  0.54479  Biso   1.000  C
  C121     1.0000 0.36369  0.14529  0.45521  Biso   1.000  C
  S18      1.0000 0.32633  0.21047  0.40999  Biso   1.000  S
  C122     1.0000 0.28358  0.27229  0.45530  Biso   1.000  C
  C123     1.0000 0.14008  0.19949  0.55470  Biso   1.000  C
  C124     1.0000 0.28358  0.27229  0.54470  Biso   1.000  C
  S19      1.0000 0.24519  0.33865  0.50001  Biso   1.000  S
  C125     1.0000 0.65381  0.69120  0.41889  Biso   1.000  C
  C126     1.0000 0.57749  0.81869  0.41730  Biso   1.000  C
  C127     1.0000 0.68810  0.63727  0.45571  Biso   1.000  C
  C128     1.0000 0.54189  0.87059  0.45550  Biso   1.000  C
  C129     1.0000 0.68810  0.63727  0.54429  Biso   1.000  C
  O97      1.0000 0.65450  0.77548  0.61974  Biso   1.000  O
  C130     1.0000 0.65381  0.69120  0.58111  Biso   1.000  C
  C131     1.0000 0.91717  0.83389  0.59479  Biso   1.000  C
  C132     1.0000 0.95338  0.78007  0.55586  Biso   1.000  C
  C133     1.0000 0.00739  0.81479  0.59520  Biso   1.000  C
  O98      1.0000 0.22448  0.65450  0.61974  Biso   1.000  O
  C134     1.0000 0.26861  0.68297  0.56900  Biso   1.000  C
  C135     1.0000 0.32151  0.71838  0.53250  Biso   1.000  C
  C136     1.0000 0.19558  0.91132  0.56870  Biso   1.000  C
  C137     1.0000 0.12941  0.54189  0.54450  Biso   1.000  C
  C138     1.0000 0.12941  0.54189  0.45550  Biso   1.000  C
  C139     1.0000 0.18131  0.57749  0.58270  Biso   1.000  C
  C140     1.0000 0.18131  0.57749  0.41730  Biso   1.000  C
  O99      1.0000 0.39220  0.76247  0.50001  Biso   1.000  O
  C141     1.0000 0.30880  0.65381  0.41889  Biso   1.000  C
  C142     1.0000 0.36269  0.68810  0.45571  Biso   1.000  C
  C143     1.0000 0.54189  0.87059  0.54450  Biso   1.000  C
  C144     1.0000 0.57749  0.81869  0.58270  Biso   1.000  C
  C145     1.0000 0.81479  0.99261  0.59520  Biso   1.000  C
  C146     1.0000 0.78007  0.04658  0.55586  Biso   1.000  C
  C147     1.0000 0.87630  0.41088  0.53159  Biso   1.000  C
  C148     1.0000 0.82187  0.37498  0.57079  Biso   1.000  C
  O100     1.0000 0.94737  0.45218  0.50001  Biso   1.000  O
  C149     1.0000 0.99847  0.21468  0.56911  Biso   1.000  C
  C150     1.0000 0.87059  0.45811  0.45550  Biso   1.000  C
  C151     1.0000 0.81869  0.42247  0.41730  Biso   1.000  C
  C152     1.0000 0.69120  0.34619  0.41889  Biso   1.000  C
  C153     1.0000 0.63727  0.31190  0.45571  Biso   1.000  C
  C154     1.0000 0.83389  0.08279  0.59479  Biso   1.000  C
  O101     1.0000 0.77548  0.34550  0.61974  Biso   1.000  O
  C155     1.0000 0.69120  0.34619  0.58111  Biso   1.000  C
  C156     1.0000 0.63727  0.31190  0.54429  Biso   1.000  C
  C157     1.0000 0.21468  0.00149  0.56911  Biso   1.000  C
  S20      1.0000 0.32633  0.21047  0.59001  Biso   1.000  S
  O102     1.0000 0.45218  0.05259  0.50001  Biso   1.000  O
  C158     1.0000 0.41088  0.12370  0.53159  Biso   1.000  C
  C159     1.0000 0.41088  0.12370  0.46841  Biso   1.000  C
  C160     1.0000 0.37498  0.17809  0.57079  Biso   1.000  C
  C161     1.0000 0.37498  0.17809  0.42921  Biso   1.000  C
  O103     1.0000 0.34550  0.22448  0.38026  Biso   1.000  O
  C162     1.0000 0.31699  0.26861  0.43100  Biso   1.000  C
  C163     1.0000 0.28159  0.32151  0.46750  Biso   1.000  C
  C164     1.0000 0.08868  0.19558  0.56870  Biso   1.000  C
  C165     1.0000 0.31699  0.26861  0.56900  Biso   1.000  C
  C166     1.0000 0.28159  0.32151  0.53250  Biso   1.000  C
  O104     1.0000 0.23749  0.39220  0.50001  Biso   1.000  O
  C167     1.0000 0.65499  0.64190  0.43330  Biso   1.000  C
  H57      1.0000 0.63341  0.69648  0.40120  Biso   1.000  H
  C168     1.0000 0.53370  0.84097  0.42989  Biso   1.000  C
  H58      1.0000 0.57358  0.79990  0.39899  Biso   1.000  H
  H59      1.0000 0.69227  0.60439  0.46461  Biso   1.000  H
  H60      1.0000 0.51361  0.88766  0.46449  Biso   1.000  H
  C169     1.0000 0.65499  0.64190  0.56670  Biso   1.000  C
  H61      1.0000 0.69227  0.60439  0.53539  Biso   1.000  H
  H62      1.0000 0.63341  0.69648  0.59880  Biso   1.000  H
  H63      1.0000 0.88839  0.85050  0.60360  Biso   1.000  H
  C170     1.0000 0.96528  0.83909  0.60804  Biso   1.000  C
  H64      1.0000 0.94936  0.75990  0.53801  Biso   1.000  H
  H65      1.0000 0.04019  0.81839  0.60431  Biso   1.000  H
  C171     1.0000 0.30880  0.65381  0.58111  Biso   1.000  C
  C172     1.0000 0.36269  0.68810  0.54429  Biso   1.000  C
  C173     1.0000 0.16611  0.91717  0.59479  Biso   1.000  C
  C174     1.0000 0.21989  0.95338  0.55586  Biso   1.000  C
  H66      1.0000 0.11230  0.51361  0.53551  Biso   1.000  H
  C175     1.0000 0.15899  0.53370  0.57011  Biso   1.000  C
  H67      1.0000 0.11230  0.51361  0.46449  Biso   1.000  H
  C176     1.0000 0.15899  0.53370  0.42989  Biso   1.000  C
  H68      1.0000 0.20010  0.57358  0.60101  Biso   1.000  H
  H69      1.0000 0.20010  0.57358  0.39899  Biso   1.000  H
  H70      1.0000 0.30348  0.63341  0.40120  Biso   1.000  H
  C177     1.0000 0.35810  0.65499  0.43330  Biso   1.000  C
  H71      1.0000 0.39561  0.69227  0.46461  Biso   1.000  H
  H72      1.0000 0.51361  0.88766  0.53551  Biso   1.000  H
  C178     1.0000 0.53370  0.84097  0.57011  Biso   1.000  C
  H73      1.0000 0.57358  0.79990  0.60101  Biso   1.000  H
  H74      1.0000 0.81839  0.95977  0.60431  Biso   1.000  H
  C179     1.0000 0.83909  0.03472  0.60804  Biso   1.000  C
  H75      1.0000 0.75990  0.05060  0.53801  Biso   1.000  H
  C180     1.0000 0.87059  0.45811  0.54450  Biso   1.000  C
  C181     1.0000 0.81869  0.42247  0.58270  Biso   1.000  C
  C182     1.0000 0.99261  0.18521  0.59520  Biso   1.000  C
  C183     1.0000 0.04658  0.21989  0.55586  Biso   1.000  C
  H76      1.0000 0.88766  0.48639  0.46449  Biso   1.000  H
  C184     1.0000 0.84097  0.46630  0.42989  Biso   1.000  C
  H77      1.0000 0.79990  0.42638  0.39899  Biso   1.000  H
  H78      1.0000 0.69648  0.36659  0.40120  Biso   1.000  H
  C185     1.0000 0.64190  0.34501  0.43330  Biso   1.000  C
  H79      1.0000 0.60439  0.30769  0.46461  Biso   1.000  H
  H80      1.0000 0.85050  0.11161  0.60360  Biso   1.000  H
  H81      1.0000 0.69648  0.36659  0.59880  Biso   1.000  H
  C186     1.0000 0.64190  0.34501  0.56670  Biso   1.000  C
  H82      1.0000 0.60439  0.30769  0.53539  Biso   1.000  H
  C187     1.0000 0.18521  0.00739  0.59520  Biso   1.000  C
  O105     1.0000 0.34550  0.22448  0.61974  Biso   1.000  O
  C188     1.0000 0.45811  0.12941  0.54450  Biso   1.000  C
  C189     1.0000 0.45811  0.12941  0.45550  Biso   1.000  C
  C190     1.0000 0.42247  0.18131  0.58270  Biso   1.000  C
  C191     1.0000 0.42247  0.18131  0.41730  Biso   1.000  C
  C192     1.0000 0.34619  0.30880  0.41889  Biso   1.000  C
  C193     1.0000 0.31190  0.36269  0.45571  Biso   1.000  C
  C194     1.0000 0.08279  0.16611  0.59479  Biso   1.000  C
  C195     1.0000 0.34619  0.30880  0.58111  Biso   1.000  C
  C196     1.0000 0.31190  0.36269  0.54429  Biso   1.000  C
  C197     1.0000 0.61909  0.59597  0.42340  Biso   1.000  C
  C198     1.0000 0.48019  0.83749  0.41441  Biso   1.000  C
  C199     1.0000 0.61909  0.59597  0.57660  Biso   1.000  C
  C200     1.0000 0.97570  0.87457  0.63600  Biso   1.000  C
  H83      1.0000 0.30348  0.63341  0.59880  Biso   1.000  H
  C201     1.0000 0.35810  0.65499  0.56670  Biso   1.000  C
  H84      1.0000 0.39561  0.69227  0.53539  Biso   1.000  H
  C202     1.0000 0.16091  0.96528  0.60804  Biso   1.000  C
  H85      1.0000 0.14950  0.88839  0.60360  Biso   1.000  H
  H86      1.0000 0.24010  0.94936  0.53801  Biso   1.000  H
  C203     1.0000 0.16251  0.48019  0.58559  Biso   1.000  C
  C204     1.0000 0.16251  0.48019  0.41441  Biso   1.000  C
  C205     1.0000 0.40399  0.61909  0.42340  Biso   1.000  C
  C206     1.0000 0.48019  0.83749  0.58559  Biso   1.000  C
  C207     1.0000 0.87457  0.02430  0.63600  Biso   1.000  C
  H87      1.0000 0.88766  0.48639  0.53551  Biso   1.000  H
  C208     1.0000 0.84097  0.46630  0.57011  Biso   1.000  C
  H88      1.0000 0.79990  0.42638  0.60101  Biso   1.000  H
  C209     1.0000 0.03472  0.16091  0.60804  Biso   1.000  C
  H89      1.0000 0.95977  0.18161  0.60431  Biso   1.000  H
  H90      1.0000 0.05060  0.24010  0.53801  Biso   1.000  H
  C210     1.0000 0.83749  0.51981  0.41441  Biso   1.000  C
  C211     1.0000 0.59597  0.38091  0.42340  Biso   1.000  C
  C212     1.0000 0.59597  0.38091  0.57660  Biso   1.000  C
  H91      1.0000 0.18161  0.04019  0.60431  Biso   1.000  H
  H92      1.0000 0.48639  0.11230  0.53551  Biso   1.000  H
  C213     1.0000 0.46630  0.15899  0.57011  Biso   1.000  C
  H93      1.0000 0.48639  0.11230  0.46449  Biso   1.000  H
  C214     1.0000 0.46630  0.15899  0.42989  Biso   1.000  C
  H94      1.0000 0.42638  0.20010  0.60101  Biso   1.000  H
  H95      1.0000 0.42638  0.20010  0.39899  Biso   1.000  H
  H96      1.0000 0.36659  0.30348  0.40120  Biso   1.000  H
  C215     1.0000 0.34501  0.35810  0.43330  Biso   1.000  C
  H97      1.0000 0.30769  0.39561  0.46461  Biso   1.000  H
  H98      1.0000 0.11161  0.14950  0.60360  Biso   1.000  H
  H99      1.0000 0.36659  0.30348  0.59880  Biso   1.000  H
  C216     1.0000 0.34501  0.35810  0.56670  Biso   1.000  C
  H100     1.0000 0.30769  0.39561  0.53539  Biso   1.000  H
  C217     1.0000 0.58740  0.60887  0.39631  Biso   1.000  C
  C218     1.0000 0.58208  0.58139  0.45120  Biso   1.000  C
  C219     1.0000 0.65549  0.55050  0.41871  Biso   1.000  C
  C220     1.0000 0.44157  0.82179  0.43911  Biso   1.000  C
  C221     1.0000 0.46978  0.89298  0.40300  Biso   1.000  C
  C222     1.0000 0.48398  0.79868  0.38841  Biso   1.000  C
  C223     1.0000 0.58740  0.60887  0.60369  Biso   1.000  C
  C224     1.0000 0.58208  0.58139  0.54880  Biso   1.000  C
  C225     1.0000 0.65549  0.55050  0.58129  Biso   1.000  C
  O106     1.0000 0.93428  0.89589  0.64513  Biso   1.000  O
  O107     1.0000 0.01830  0.87959  0.64554  Biso   1.000  O
  C226     1.0000 0.40399  0.61909  0.57660  Biso   1.000  C
  C227     1.0000 0.12539  0.97570  0.63600  Biso   1.000  C
  C228     1.0000 0.17821  0.44157  0.56089  Biso   1.000  C
  C229     1.0000 0.10702  0.46978  0.59700  Biso   1.000  C
  C230     1.0000 0.20129  0.48398  0.61159  Biso   1.000  C
  C231     1.0000 0.17821  0.44157  0.43911  Biso   1.000  C
  C232     1.0000 0.10702  0.46978  0.40300  Biso   1.000  C
  C233     1.0000 0.20129  0.48398  0.38841  Biso   1.000  C
  C234     1.0000 0.39109  0.58740  0.39631  Biso   1.000  C
  C235     1.0000 0.41861  0.58208  0.45120  Biso   1.000  C
  C236     1.0000 0.44950  0.65549  0.41871  Biso   1.000  C
  C237     1.0000 0.44157  0.82179  0.56089  Biso   1.000  C
  C238     1.0000 0.46978  0.89298  0.59700  Biso   1.000  C
  C239     1.0000 0.48398  0.79868  0.61159  Biso   1.000  C
  O108     1.0000 0.87959  0.98167  0.64554  Biso   1.000  O
  O109     1.0000 0.89589  0.06572  0.64513  Biso   1.000  O
  C240     1.0000 0.83749  0.51981  0.58559  Biso   1.000  C
  C241     1.0000 0.02430  0.12539  0.63600  Biso   1.000  C
  C242     1.0000 0.82179  0.55839  0.43911  Biso   1.000  C
  C243     1.0000 0.89298  0.53018  0.40300  Biso   1.000  C
  C244     1.0000 0.79868  0.51598  0.38841  Biso   1.000  C
  C245     1.0000 0.60887  0.41260  0.39631  Biso   1.000  C
  C246     1.0000 0.58139  0.41788  0.45120  Biso   1.000  C
  C247     1.0000 0.55050  0.34451  0.41871  Biso   1.000  C
  C248     1.0000 0.60887  0.41260  0.60369  Biso   1.000  C
  C249     1.0000 0.58139  0.41788  0.54880  Biso   1.000  C
  C250     1.0000 0.55050  0.34451  0.58129  Biso   1.000  C
  C251     1.0000 0.51981  0.16251  0.58559  Biso   1.000  C
  C252     1.0000 0.51981  0.16251  0.41441  Biso   1.000  C
  C253     1.0000 0.38091  0.40399  0.42340  Biso   1.000  C
  C254     1.0000 0.38091  0.40399  0.57660  Biso   1.000  C
  H101     1.0000 0.55839  0.58518  0.39501  Biso   1.000  H
  H102     1.0000 0.57469  0.64408  0.39831  Biso   1.000  H
  H103     1.0000 0.60830  0.60600  0.37791  Biso   1.000  H
  H104     1.0000 0.55207  0.56298  0.44350  Biso   1.000  H
  H105     1.0000 0.60060  0.55957  0.46570  Biso   1.000  H
  H106     1.0000 0.57098  0.61278  0.46149  Biso   1.000  H
  H107     1.0000 0.68228  0.56007  0.40409  Biso   1.000  H
  H108     1.0000 0.67118  0.54128  0.43820  Biso   1.000  H
  H109     1.0000 0.63620  0.52130  0.41070  Biso   1.000  H
  H110     1.0000 0.40900  0.81238  0.42950  Biso   1.000  H
  H111     1.0000 0.45501  0.79240  0.45049  Biso   1.000  H
  H112     1.0000 0.43610  0.85050  0.45311  Biso   1.000  H
  H113     1.0000 0.47908  0.91748  0.41889  Biso   1.000  H
  H114     1.0000 0.49030  0.89957  0.38470  Biso   1.000  H
  H115     1.0000 0.43338  0.89670  0.39799  Biso   1.000  H
  H116     1.0000 0.49328  0.81640  0.36960  Biso   1.000  H
  H117     1.0000 0.51028  0.77318  0.39330  Biso   1.000  H
  H118     1.0000 0.45099  0.78149  0.38579  Biso   1.000  H
  H119     1.0000 0.55839  0.58518  0.60499  Biso   1.000  H
  H120     1.0000 0.57469  0.64408  0.60169  Biso   1.000  H
  H121     1.0000 0.60830  0.60600  0.62209  Biso   1.000  H
  H122     1.0000 0.55207  0.56298  0.55650  Biso   1.000  H
  H123     1.0000 0.60060  0.55957  0.53430  Biso   1.000  H
  H124     1.0000 0.57098  0.61278  0.53851  Biso   1.000  H
  H125     1.0000 0.68228  0.56007  0.59591  Biso   1.000  H
  H126     1.0000 0.67118  0.54128  0.56180  Biso   1.000  H
  H127     1.0000 0.63620  0.52130  0.58930  Biso   1.000  H
  Mg21     1.0000 0.93126  0.95556  0.67489  Biso   1.000  Mg
  Mg22     1.0000 0.04444  0.93126  0.67489  Biso   1.000  Mg
  C255     1.0000 0.39109  0.58740  0.60369  Biso   1.000  C
  C256     1.0000 0.41861  0.58208  0.54880  Biso   1.000  C
  C257     1.0000 0.44950  0.65549  0.58129  Biso   1.000  C
  O110     1.0000 0.10411  0.93428  0.64513  Biso   1.000  O
  O111     1.0000 0.12041  0.01830  0.64554  Biso   1.000  O
  H128     1.0000 0.18758  0.40900  0.57050  Biso   1.000  H
  H129     1.0000 0.20760  0.45501  0.54951  Biso   1.000  H
  H130     1.0000 0.14950  0.43610  0.54689  Biso   1.000  H
  H131     1.0000 0.08248  0.47908  0.58111  Biso   1.000  H
  H132     1.0000 0.10039  0.49030  0.61530  Biso   1.000  H
  H133     1.0000 0.10330  0.43338  0.60201  Biso   1.000  H
  H134     1.0000 0.18360  0.49328  0.63040  Biso   1.000  H
  H135     1.0000 0.22678  0.51028  0.60670  Biso   1.000  H
  H136     1.0000 0.21851  0.45099  0.61421  Biso   1.000  H
  H137     1.0000 0.18758  0.40900  0.42950  Biso   1.000  H
  H138     1.0000 0.20760  0.45501  0.45049  Biso   1.000  H
  H139     1.0000 0.14950  0.43610  0.45311  Biso   1.000  H
  H140     1.0000 0.08248  0.47908  0.41889  Biso   1.000  H
  H141     1.0000 0.10039  0.49030  0.38470  Biso   1.000  H
  H142     1.0000 0.10330  0.43338  0.39799  Biso   1.000  H
  H143     1.0000 0.18360  0.49328  0.36960  Biso   1.000  H
  H144     1.0000 0.22678  0.51028  0.39330  Biso   1.000  H
  H145     1.0000 0.21851  0.45099  0.38579  Biso   1.000  H
  H146     1.0000 0.41478  0.55839  0.39501  Biso   1.000  H
  H147     1.0000 0.35588  0.57469  0.39831  Biso   1.000  H
  H148     1.0000 0.39400  0.60830  0.37791  Biso   1.000  H
  H149     1.0000 0.43698  0.55207  0.44350  Biso   1.000  H
  H150     1.0000 0.44039  0.60060  0.46570  Biso   1.000  H
  H151     1.0000 0.38719  0.57098  0.46149  Biso   1.000  H
  H152     1.0000 0.43989  0.68228  0.40409  Biso   1.000  H
  H153     1.0000 0.45868  0.67118  0.43820  Biso   1.000  H
  H154     1.0000 0.47870  0.63620  0.41070  Biso   1.000  H
  H155     1.0000 0.40900  0.81238  0.57050  Biso   1.000  H
  H156     1.0000 0.45501  0.79240  0.54951  Biso   1.000  H
  H157     1.0000 0.43610  0.85050  0.54689  Biso   1.000  H
  H158     1.0000 0.47908  0.91748  0.58111  Biso   1.000  H
  H159     1.0000 0.49030  0.89957  0.61530  Biso   1.000  H
  H160     1.0000 0.43338  0.89670  0.60201  Biso   1.000  H
  H161     1.0000 0.49328  0.81640  0.63040  Biso   1.000  H
  H162     1.0000 0.51028  0.77318  0.60670  Biso   1.000  H
  H163     1.0000 0.45099  0.78149  0.61421  Biso   1.000  H
  Mg23     1.0000 0.95556  0.06874  0.67489  Biso   1.000  Mg
  C258     1.0000 0.82179  0.55839  0.56089  Biso   1.000  C
  C259     1.0000 0.89298  0.53018  0.59700  Biso   1.000  C
  C260     1.0000 0.79868  0.51598  0.61159  Biso   1.000  C
  O112     1.0000 0.98167  0.12041  0.64554  Biso   1.000  O
  O113     1.0000 0.06572  0.10411  0.64513  Biso   1.000  O
  H164     1.0000 0.81238  0.59100  0.42950  Biso   1.000  H
  H165     1.0000 0.79240  0.54499  0.45049  Biso   1.000  H
  H166     1.0000 0.85050  0.56390  0.45311  Biso   1.000  H
  H167     1.0000 0.91748  0.52088  0.41889  Biso   1.000  H
  H168     1.0000 0.89957  0.50970  0.38470  Biso   1.000  H
  H169     1.0000 0.89670  0.56658  0.39799  Biso   1.000  H
  H170     1.0000 0.81640  0.50668  0.36960  Biso   1.000  H
  H171     1.0000 0.77318  0.48969  0.39330  Biso   1.000  H
  H172     1.0000 0.78149  0.54897  0.38579  Biso   1.000  H
  H173     1.0000 0.58518  0.44157  0.39501  Biso   1.000  H
  H174     1.0000 0.64408  0.42531  0.39831  Biso   1.000  H
  H175     1.0000 0.60600  0.39170  0.37791  Biso   1.000  H
  H176     1.0000 0.56298  0.44789  0.44350  Biso   1.000  H
  H177     1.0000 0.55957  0.39940  0.46570  Biso   1.000  H
  H178     1.0000 0.61278  0.42898  0.46149  Biso   1.000  H
  H179     1.0000 0.56007  0.31768  0.40409  Biso   1.000  H
  H180     1.0000 0.54128  0.32878  0.43820  Biso   1.000  H
  H181     1.0000 0.52130  0.36380  0.41070  Biso   1.000  H
  H182     1.0000 0.58518  0.44157  0.60499  Biso   1.000  H
  H183     1.0000 0.64408  0.42531  0.60169  Biso   1.000  H
  H184     1.0000 0.60600  0.39170  0.62209  Biso   1.000  H
  H185     1.0000 0.56298  0.44789  0.55650  Biso   1.000  H
  H186     1.0000 0.55957  0.39940  0.53430  Biso   1.000  H
  H187     1.0000 0.61278  0.42898  0.53851  Biso   1.000  H
  H188     1.0000 0.56007  0.31768  0.59591  Biso   1.000  H
  H189     1.0000 0.54128  0.32878  0.56180  Biso   1.000  H
  H190     1.0000 0.52130  0.36380  0.58930  Biso   1.000  H
  C261     1.0000 0.55839  0.17821  0.56089  Biso   1.000  C
  C262     1.0000 0.53018  0.10702  0.59700  Biso   1.000  C
  C263     1.0000 0.51598  0.20129  0.61159  Biso   1.000  C
  C264     1.0000 0.55839  0.17821  0.43911  Biso   1.000  C
  C265     1.0000 0.53018  0.10702  0.40300  Biso   1.000  C
  C266     1.0000 0.51598  0.20129  0.38841  Biso   1.000  C
  C267     1.0000 0.41260  0.39109  0.39631  Biso   1.000  C
  C268     1.0000 0.41788  0.41861  0.45120  Biso   1.000  C
  C269     1.0000 0.34451  0.44950  0.41871  Biso   1.000  C
  C270     1.0000 0.41260  0.39109  0.60369  Biso   1.000  C
  C271     1.0000 0.41788  0.41861  0.54880  Biso   1.000  C
  C272     1.0000 0.34451  0.44950  0.58129  Biso   1.000  C
  O114     1.0000 0.87469  0.91848  0.69968  Biso   1.000  O
  O115     1.0000 0.98320  0.92169  0.70503  Biso   1.000  O
  O116     1.0000 0.92169  0.01680  0.70503  Biso   1.000  O
  O117     1.0000 1.00000  1.00000  0.66150  Biso   1.000  O
  O118     1.0000 0.08149  0.87469  0.69968  Biso   1.000  O
  O119     1.0000 0.07831  0.98320  0.70503  Biso   1.000  O
  Mg24     1.0000 0.06874  0.04444  0.67489  Biso   1.000  Mg
  H191     1.0000 0.41478  0.55839  0.60499  Biso   1.000  H
  H192     1.0000 0.35588  0.57469  0.60169  Biso   1.000  H
  H193     1.0000 0.39400  0.60830  0.62209  Biso   1.000  H
  H194     1.0000 0.43698  0.55207  0.55650  Biso   1.000  H
  H195     1.0000 0.44039  0.60060  0.53430  Biso   1.000  H
  H196     1.0000 0.38719  0.57098  0.53851  Biso   1.000  H
  H197     1.0000 0.43989  0.68228  0.59591  Biso   1.000  H
  H198     1.0000 0.45868  0.67118  0.56180  Biso   1.000  H
  H199     1.0000 0.47870  0.63620  0.58930  Biso   1.000  H
  O120     1.0000 0.91848  0.12531  0.69968  Biso   1.000  O
  O121     1.0000 0.01680  0.07831  0.70503  Biso   1.000  O
  H200     1.0000 0.81238  0.59100  0.57050  Biso   1.000  H
  H201     1.0000 0.79240  0.54499  0.54951  Biso   1.000  H
  H202     1.0000 0.85050  0.56390  0.54689  Biso   1.000  H
  H203     1.0000 0.91748  0.52088  0.58111  Biso   1.000  H
  H204     1.0000 0.89957  0.50970  0.61530  Biso   1.000  H
  H205     1.0000 0.89670  0.56658  0.60201  Biso   1.000  H
  H206     1.0000 0.81640  0.50668  0.63040  Biso   1.000  H
  H207     1.0000 0.77318  0.48969  0.60670  Biso   1.000  H
  H208     1.0000 0.78149  0.54897  0.61421  Biso   1.000  H
  H209     1.0000 0.59100  0.18758  0.57050  Biso   1.000  H
  H210     1.0000 0.54499  0.20760  0.54951  Biso   1.000  H
  H211     1.0000 0.56390  0.14950  0.54689  Biso   1.000  H
  H212     1.0000 0.52088  0.08248  0.58111  Biso   1.000  H
  H213     1.0000 0.50970  0.10039  0.61530  Biso   1.000  H
  H214     1.0000 0.56658  0.10330  0.60201  Biso   1.000  H
  H215     1.0000 0.50668  0.18360  0.63040  Biso   1.000  H
  H216     1.0000 0.48969  0.22678  0.60670  Biso   1.000  H
  H217     1.0000 0.54897  0.21851  0.61421  Biso   1.000  H
  H218     1.0000 0.59100  0.18758  0.42950  Biso   1.000  H
  H219     1.0000 0.54499  0.20760  0.45049  Biso   1.000  H
  H220     1.0000 0.56390  0.14950  0.45311  Biso   1.000  H
  H221     1.0000 0.52088  0.08248  0.41889  Biso   1.000  H
  H222     1.0000 0.50970  0.10039  0.38470  Biso   1.000  H
  H223     1.0000 0.56658  0.10330  0.39799  Biso   1.000  H
  H224     1.0000 0.50668  0.18360  0.36960  Biso   1.000  H
  H225     1.0000 0.48969  0.22678  0.39330  Biso   1.000  H
  H226     1.0000 0.54897  0.21851  0.38579  Biso   1.000  H
  H227     1.0000 0.44157  0.41478  0.39501  Biso   1.000  H
  H228     1.0000 0.42531  0.35588  0.39831  Biso   1.000  H
  H229     1.0000 0.39170  0.39400  0.37791  Biso   1.000  H
  H230     1.0000 0.44789  0.43698  0.44350  Biso   1.000  H
  H231     1.0000 0.39940  0.44039  0.46570  Biso   1.000  H
  H232     1.0000 0.42898  0.38719  0.46149  Biso   1.000  H
  H233     1.0000 0.31768  0.43989  0.40409  Biso   1.000  H
  H234     1.0000 0.32878  0.45868  0.43820  Biso   1.000  H
  H235     1.0000 0.36380  0.47870  0.41070  Biso   1.000  H
  H236     1.0000 0.44157  0.41478  0.60499  Biso   1.000  H
  H237     1.0000 0.42531  0.35588  0.60169  Biso   1.000  H
  H238     1.0000 0.39170  0.39400  0.62209  Biso   1.000  H
  H239     1.0000 0.44789  0.43698  0.55650  Biso   1.000  H
  H240     1.0000 0.39940  0.44039  0.53430  Biso   1.000  H
  H241     1.0000 0.42898  0.38719  0.53851  Biso   1.000  H
  H242     1.0000 0.31768  0.43989  0.59591  Biso   1.000  H
  H243     1.0000 0.32878  0.45868  0.56180  Biso   1.000  H
  H244     1.0000 0.36380  0.47870  0.58930  Biso   1.000  H
  S21      1.0000 0.87278  0.91737  0.73176  Biso   1.000  S
  C273     1.0000 0.97899  0.89398  0.73010  Biso   1.000  C
  C274     1.0000 0.89398  0.02101  0.73010  Biso   1.000  C
  S22      1.0000 0.08263  0.87278  0.73176  Biso   1.000  S
  C275     1.0000 0.10598  0.97899  0.73010  Biso   1.000  C
  O122     1.0000 0.12531  0.08149  0.69968  Biso   1.000  O
  S23      1.0000 0.91737  0.12722  0.73176  Biso   1.000  S
  C276     1.0000 0.02101  0.10598  0.73010  Biso   1.000  C
  O123     1.0000 0.83117  0.89019  0.74462  Biso   1.000  O
  C277     1.0000 0.92950  0.88988  0.74519  Biso   1.000  C
  C278     1.0000 0.87040  0.97987  0.74439  Biso   1.000  C
  C279     1.0000 0.02009  0.87040  0.74439  Biso   1.000  C
  C280     1.0000 0.88988  0.07050  0.74519  Biso   1.000  C
  O124     1.0000 0.10981  0.83117  0.74462  Biso   1.000  O
  C281     1.0000 0.11012  0.92950  0.74519  Biso   1.000  C
  C282     1.0000 0.12960  0.02009  0.74439  Biso   1.000  C
  S24      1.0000 0.12722  0.08263  0.73176  Biso   1.000  S
  O125     1.0000 0.89019  0.16879  0.74462  Biso   1.000  O
  C283     1.0000 0.97987  0.12960  0.74439  Biso   1.000  C
  C284     1.0000 0.07050  0.11012  0.74519  Biso   1.000  C
  C285     1.0000 0.92318  0.85659  0.76989  Biso   1.000  C
  C286     1.0000 0.83860  0.98836  0.77069  Biso   1.000  C
  C287     1.0000 0.01160  0.83860  0.77069  Biso   1.000  C
  C288     1.0000 0.85659  0.07682  0.76989  Biso   1.000  C
  C289     1.0000 0.14341  0.92318  0.76989  Biso   1.000  C
  C290     1.0000 0.16140  0.01160  0.77069  Biso   1.000  C
  O126     1.0000 0.16879  0.10981  0.74462  Biso   1.000  O
  C291     1.0000 0.98836  0.16140  0.77069  Biso   1.000  C
  C292     1.0000 0.07682  0.14341  0.76989  Biso   1.000  C
  H245     1.0000 0.89019  0.85149  0.77841  Biso   1.000  H
  C293     1.0000 0.96337  0.83197  0.78180  Biso   1.000  C
  H246     1.0000 0.82229  0.96027  0.78030  Biso   1.000  H
  C294     1.0000 0.83197  0.03659  0.78180  Biso   1.000  C
  H247     1.0000 0.03969  0.82229  0.78030  Biso   1.000  H
  H248     1.0000 0.85149  0.10981  0.77841  Biso   1.000  H
  H249     1.0000 0.14851  0.89019  0.77841  Biso   1.000  H
  C295     1.0000 0.16799  0.96337  0.78180  Biso   1.000  C
  H250     1.0000 0.17771  0.03969  0.78030  Biso   1.000  H
  H251     1.0000 0.96027  0.17771  0.78030  Biso   1.000  H
  C296     1.0000 0.03659  0.16799  0.78180  Biso   1.000  C
  H252     1.0000 0.10981  0.14851  0.77841  Biso   1.000  H
  C297     1.0000 0.95388  0.80220  0.81399  Biso   1.000  C
  C298     1.0000 0.80220  0.04608  0.81399  Biso   1.000  C
  C299     1.0000 0.19780  0.95388  0.81399  Biso   1.000  C
  C300     1.0000 0.04608  0.19780  0.81399  Biso   1.000  C
  C301     1.0000 0.89987  0.80197  0.82440  Biso   1.000  C
  C302     1.0000 0.98607  0.83090  0.83731  Biso   1.000  C
  C303     1.0000 0.97700  0.75167  0.80580  Biso   1.000  C
  C304     1.0000 0.80197  0.10009  0.82440  Biso   1.000  C
  C305     1.0000 0.83090  0.01389  0.83731  Biso   1.000  C
  C306     1.0000 0.75167  0.02300  0.80580  Biso   1.000  C
  C307     1.0000 0.19799  0.89987  0.82440  Biso   1.000  C
  C308     1.0000 0.16910  0.98607  0.83731  Biso   1.000  C
  C309     1.0000 0.24829  0.97700  0.80580  Biso   1.000  C
  C310     1.0000 0.10009  0.19799  0.82440  Biso   1.000  C
  C311     1.0000 0.01389  0.16910  0.83731  Biso   1.000  C
  C312     1.0000 0.02300  0.24829  0.80580  Biso   1.000  C
  H253     1.0000 0.89800  0.78830  0.84509  Biso   1.000  H
  H254     1.0000 0.87940  0.78038  0.81069  Biso   1.000  H
  H255     1.0000 0.88640  0.83699  0.82410  Biso   1.000  H
  H256     1.0000 0.98098  0.86780  0.83480  Biso   1.000  H
  H257     1.0000 0.97558  0.82080  0.85791  Biso   1.000  H
  H258     1.0000 0.02231  0.82260  0.83430  Biso   1.000  H
  H259     1.0000 0.98549  0.75137  0.78410  Biso   1.000  H
  H260     1.0000 0.95246  0.72427  0.81019  Biso   1.000  H
  H261     1.0000 0.00819  0.74628  0.81779  Biso   1.000  H
  H262     1.0000 0.78830  0.10200  0.84509  Biso   1.000  H
  H263     1.0000 0.78038  0.12060  0.81069  Biso   1.000  H
  H264     1.0000 0.83699  0.11360  0.82410  Biso   1.000  H
  H265     1.0000 0.82260  0.97769  0.83430  Biso   1.000  H
  H266     1.0000 0.86780  0.01898  0.83480  Biso   1.000  H
  H267     1.0000 0.82080  0.02438  0.85791  Biso   1.000  H
  H268     1.0000 0.74628  0.99177  0.81779  Biso   1.000  H
  H269     1.0000 0.75137  0.01451  0.78410  Biso   1.000  H
  H270     1.0000 0.72427  0.04750  0.81019  Biso   1.000  H
  H271     1.0000 0.21170  0.89800  0.84509  Biso   1.000  H
  H272     1.0000 0.21958  0.87940  0.81069  Biso   1.000  H
  H273     1.0000 0.16301  0.88640  0.82410  Biso   1.000  H
  H274     1.0000 0.13220  0.98098  0.83480  Biso   1.000  H
  H275     1.0000 0.17920  0.97558  0.85791  Biso   1.000  H
  H276     1.0000 0.17740  0.02231  0.83430  Biso   1.000  H
  H277     1.0000 0.24859  0.98549  0.78410  Biso   1.000  H
  H278     1.0000 0.27569  0.95246  0.81019  Biso   1.000  H
  H279     1.0000 0.25368  0.00819  0.81779  Biso   1.000  H
  H280     1.0000 0.10200  0.21170  0.84509  Biso   1.000  H
  H281     1.0000 0.12060  0.21958  0.81069  Biso   1.000  H
  H282     1.0000 0.11360  0.16301  0.82410  Biso   1.000  H
  H283     1.0000 0.97769  0.17740  0.83430  Biso   1.000  H
  H284     1.0000 0.01898  0.13220  0.83480  Biso   1.000  H
  H285     1.0000 0.02438  0.17920  0.85791  Biso   1.000  H
  H286     1.0000 0.99177  0.25368  0.81779  Biso   1.000  H
  H287     1.0000 0.01451  0.24859  0.78410  Biso   1.000  H
  H288     1.0000 0.04750  0.27569  0.81019  Biso   1.000  H
  O127     1.0000 0.66877  0.60979  0.24463  Biso   1.000  O
  S25      1.0000 0.62721  0.58262  0.23175  Biso   1.000  S
  O128     1.0000 0.62529  0.58151  0.19967  Biso   1.000  O
  C313     1.0000 0.62958  0.52008  0.24440  Biso   1.000  C
  C314     1.0000 0.57048  0.61010  0.24520  Biso   1.000  C
  Mg25     1.0000 0.56872  0.54442  0.17490  Biso   1.000  Mg
  C315     1.0000 0.60600  0.47901  0.23011  Biso   1.000  C
  C316     1.0000 0.66138  0.51158  0.27070  Biso   1.000  C
  C317     1.0000 0.52099  0.60600  0.23011  Biso   1.000  C
  C318     1.0000 0.57680  0.64340  0.26990  Biso   1.000  C
  Mg26     1.0000 0.54442  0.43124  0.17490  Biso   1.000  Mg
  Mg27     1.0000 0.45554  0.56872  0.17490  Biso   1.000  Mg
  O129     1.0000 0.49998  0.49998  0.16151  Biso   1.000  O
  O130     1.0000 0.57829  0.48318  0.20502  Biso   1.000  O
  O131     1.0000 0.51678  0.57829  0.20502  Biso   1.000  O
  O132     1.0000 0.56570  0.60409  0.14514  Biso   1.000  O
  O133     1.0000 0.62039  0.51828  0.14555  Biso   1.000  O
  C319     1.0000 0.61010  0.42948  0.24520  Biso   1.000  C
  C320     1.0000 0.66801  0.46339  0.28181  Biso   1.000  C
  H289     1.0000 0.67769  0.53967  0.28031  Biso   1.000  H
  C321     1.0000 0.47989  0.62958  0.24440  Biso   1.000  C
  C322     1.0000 0.53657  0.66801  0.28181  Biso   1.000  C
  H290     1.0000 0.60979  0.64849  0.27840  Biso   1.000  H
  Mg28     1.0000 0.43124  0.45554  0.17490  Biso   1.000  Mg
  O134     1.0000 0.48318  0.42171  0.20502  Biso   1.000  O
  O135     1.0000 0.58151  0.37471  0.19967  Biso   1.000  O
  O136     1.0000 0.60409  0.43430  0.14514  Biso   1.000  O
  O137     1.0000 0.51828  0.37961  0.14555  Biso   1.000  O
  O138     1.0000 0.42171  0.51678  0.20502  Biso   1.000  O
  O139     1.0000 0.41849  0.62529  0.19967  Biso   1.000  O
  O140     1.0000 0.39587  0.56570  0.14514  Biso   1.000  O
  O141     1.0000 0.48169  0.62039  0.14555  Biso   1.000  O
  C323     1.0000 0.52429  0.62541  0.13601  Biso   1.000  C
  C324     1.0000 0.62541  0.47568  0.13601  Biso   1.000  C
  S26      1.0000 0.58262  0.37279  0.23175  Biso   1.000  S
  C325     1.0000 0.64340  0.42320  0.26990  Biso   1.000  C
  C326     1.0000 0.69778  0.45390  0.31400  Biso   1.000  C
  S27      1.0000 0.41738  0.62721  0.23175  Biso   1.000  S
  C327     1.0000 0.48838  0.66138  0.27070  Biso   1.000  C
  C328     1.0000 0.54610  0.69778  0.31400  Biso   1.000  C
  O142     1.0000 0.37471  0.41849  0.19967  Biso   1.000  O
  O143     1.0000 0.43430  0.39587  0.14514  Biso   1.000  O
  O144     1.0000 0.37961  0.48169  0.14555  Biso   1.000  O
  C329     1.0000 0.47901  0.39400  0.23011  Biso   1.000  C
  C330     1.0000 0.47568  0.37459  0.13601  Biso   1.000  C
  C331     1.0000 0.39400  0.52099  0.23011  Biso   1.000  C
  C332     1.0000 0.37459  0.52429  0.13601  Biso   1.000  C
  C333     1.0000 0.53470  0.66089  0.10805  Biso   1.000  C
  C334     1.0000 0.66089  0.46530  0.10805  Biso   1.000  C
  C335     1.0000 0.52008  0.37038  0.24440  Biso   1.000  C
  O145     1.0000 0.60979  0.33119  0.24463  Biso   1.000  O
  H291     1.0000 0.64849  0.39021  0.27840  Biso   1.000  H
  C336     1.0000 0.69798  0.39989  0.32441  Biso   1.000  C
  C337     1.0000 0.66908  0.48609  0.33729  Biso   1.000  C
  C338     1.0000 0.74827  0.47698  0.30581  Biso   1.000  C
  C339     1.0000 0.38990  0.57048  0.24520  Biso   1.000  C
  O146     1.0000 0.39021  0.66877  0.24463  Biso   1.000  O
  H292     1.0000 0.46029  0.67769  0.28031  Biso   1.000  H
  C340     1.0000 0.60011  0.69798  0.32441  Biso   1.000  C
  C341     1.0000 0.51387  0.66908  0.33729  Biso   1.000  C
  C342     1.0000 0.52298  0.74827  0.30581  Biso   1.000  C
  S28      1.0000 0.37279  0.41738  0.23175  Biso   1.000  S
  C343     1.0000 0.42948  0.38990  0.24520  Biso   1.000  C
  C344     1.0000 0.46530  0.33907  0.10805  Biso   1.000  C
  C345     1.0000 0.37038  0.47989  0.24440  Biso   1.000  C
  C346     1.0000 0.33907  0.53470  0.10805  Biso   1.000  C
  C347     1.0000 0.58281  0.66609  0.09480  Biso   1.000  C
  C348     1.0000 0.49259  0.68519  0.09521  Biso   1.000  C
  C349     1.0000 0.66609  0.41719  0.09480  Biso   1.000  C
  C350     1.0000 0.68519  0.50737  0.09521  Biso   1.000  C
  C351     1.0000 0.51158  0.33858  0.27070  Biso   1.000  C
  H293     1.0000 0.71168  0.39798  0.34510  Biso   1.000  H
  H294     1.0000 0.71960  0.37938  0.31070  Biso   1.000  H
  H295     1.0000 0.66299  0.38638  0.32409  Biso   1.000  H
  H296     1.0000 0.63218  0.48100  0.33479  Biso   1.000  H
  H297     1.0000 0.67738  0.52229  0.33429  Biso   1.000  H
  H298     1.0000 0.67918  0.47560  0.35790  Biso   1.000  H
  H299     1.0000 0.75370  0.50817  0.31781  Biso   1.000  H
  H300     1.0000 0.74857  0.48547  0.28411  Biso   1.000  H
  H301     1.0000 0.77567  0.45248  0.31020  Biso   1.000  H
  C352     1.0000 0.35660  0.57680  0.26990  Biso   1.000  C
  H302     1.0000 0.60198  0.71168  0.34510  Biso   1.000  H
  H303     1.0000 0.62058  0.71960  0.31070  Biso   1.000  H
  H304     1.0000 0.61358  0.66299  0.32409  Biso   1.000  H
  H305     1.0000 0.51900  0.63218  0.33479  Biso   1.000  H
  H306     1.0000 0.47771  0.67738  0.33429  Biso   1.000  H
  H307     1.0000 0.52440  0.67918  0.35790  Biso   1.000  H
  H308     1.0000 0.49179  0.75370  0.31781  Biso   1.000  H
  H309     1.0000 0.51449  0.74857  0.28411  Biso   1.000  H
  H310     1.0000 0.54748  0.77567  0.31020  Biso   1.000  H
  O147     1.0000 0.33119  0.39021  0.24463  Biso   1.000  O
  C353     1.0000 0.42320  0.35660  0.26990  Biso   1.000  C
  C354     1.0000 0.41719  0.33391  0.09480  Biso   1.000  C
  C355     1.0000 0.50737  0.31481  0.09521  Biso   1.000  C
  C356     1.0000 0.33858  0.48838  0.27070  Biso   1.000  C
  C357     1.0000 0.33391  0.58281  0.09480  Biso   1.000  C
  C358     1.0000 0.31481  0.49259  0.09521  Biso   1.000  C
  C359     1.0000 0.58866  0.69560  0.06871  Biso   1.000  C
  H311     1.0000 0.61159  0.64948  0.10359  Biso   1.000  H
  H312     1.0000 0.45979  0.68159  0.10430  Biso   1.000  H
  C360     1.0000 0.49849  0.71470  0.06912  Biso   1.000  C
  C361     1.0000 0.69560  0.41130  0.06871  Biso   1.000  C
  H313     1.0000 0.64948  0.38841  0.10359  Biso   1.000  H
  H314     1.0000 0.68159  0.54021  0.10430  Biso   1.000  H
  C362     1.0000 0.71470  0.50147  0.06912  Biso   1.000  C
  C363     1.0000 0.46339  0.33199  0.28181  Biso   1.000  C
  H315     1.0000 0.53967  0.32231  0.28031  Biso   1.000  H
  C364     1.0000 0.33199  0.53657  0.28181  Biso   1.000  C
  H316     1.0000 0.35148  0.60979  0.27840  Biso   1.000  H
  H317     1.0000 0.39021  0.35148  0.27840  Biso   1.000  H
  C365     1.0000 0.41130  0.30440  0.06871  Biso   1.000  C
  H318     1.0000 0.38841  0.35048  0.10359  Biso   1.000  H
  H319     1.0000 0.54021  0.31841  0.10430  Biso   1.000  H
  C366     1.0000 0.50147  0.28530  0.06912  Biso   1.000  C
  H320     1.0000 0.32231  0.46029  0.28031  Biso   1.000  H
  C367     1.0000 0.30440  0.58866  0.06871  Biso   1.000  C
  H321     1.0000 0.35048  0.61159  0.10359  Biso   1.000  H
  H322     1.0000 0.31841  0.45979  0.10430  Biso   1.000  H
  C368     1.0000 0.28530  0.49849  0.06912  Biso   1.000  C
  C369     1.0000 0.54660  0.71987  0.05587  Biso   1.000  C
  C370     1.0000 0.64010  0.69947  0.05471  Biso   1.000  C
  C371     1.0000 0.45198  0.73797  0.05501  Biso   1.000  C
  C372     1.0000 0.71987  0.45340  0.05587  Biso   1.000  C
  C373     1.0000 0.69947  0.35990  0.05471  Biso   1.000  C
  C374     1.0000 0.73797  0.54798  0.05501  Biso   1.000  C
  C375     1.0000 0.45390  0.30218  0.31400  Biso   1.000  C
  C376     1.0000 0.30218  0.54610  0.31400  Biso   1.000  C
  C377     1.0000 0.45340  0.28009  0.05587  Biso   1.000  C
  C378     1.0000 0.35990  0.30049  0.05471  Biso   1.000  C
  C379     1.0000 0.54798  0.26199  0.05501  Biso   1.000  C
  C380     1.0000 0.28009  0.54660  0.05587  Biso   1.000  C
  C381     1.0000 0.30049  0.64010  0.05471  Biso   1.000  C
  C382     1.0000 0.26199  0.45198  0.05501  Biso   1.000  C
  H323     1.0000 0.55058  0.74008  0.03800  Biso   1.000  H
  O148     1.0000 0.67727  0.67428  0.06673  Biso   1.000  O
  O149     1.0000 0.64408  0.72557  0.02955  Biso   1.000  O
  O150     1.0000 0.45991  0.76289  0.03067  Biso   1.000  O
  O151     1.0000 0.41007  0.73120  0.06657  Biso   1.000  O
  H324     1.0000 0.74008  0.44938  0.03800  Biso   1.000  H
  O152     1.0000 0.67428  0.32269  0.06673  Biso   1.000  O
  O153     1.0000 0.72557  0.35588  0.02955  Biso   1.000  O
  O154     1.0000 0.76289  0.54009  0.03067  Biso   1.000  O
  O155     1.0000 0.73120  0.58989  0.06657  Biso   1.000  O
  C383     1.0000 0.39989  0.30199  0.32441  Biso   1.000  C
  C384     1.0000 0.48609  0.33088  0.33729  Biso   1.000  C
  C385     1.0000 0.47698  0.25169  0.30581  Biso   1.000  C
  C386     1.0000 0.30199  0.60011  0.32441  Biso   1.000  C
  C387     1.0000 0.33088  0.51387  0.33729  Biso   1.000  C
  C388     1.0000 0.25169  0.52298  0.30581  Biso   1.000  C
  H325     1.0000 0.44938  0.25988  0.03800  Biso   1.000  H
  O156     1.0000 0.32269  0.32568  0.06673  Biso   1.000  O
  O157     1.0000 0.35588  0.27439  0.02955  Biso   1.000  O
  O158     1.0000 0.54009  0.23711  0.03067  Biso   1.000  O
  O159     1.0000 0.58989  0.26880  0.06657  Biso   1.000  O
  H326     1.0000 0.25988  0.55058  0.03800  Biso   1.000  H
  O160     1.0000 0.32568  0.67727  0.06673  Biso   1.000  O
  O161     1.0000 0.27439  0.64408  0.02955  Biso   1.000  O
  O162     1.0000 0.23711  0.45991  0.03067  Biso   1.000  O
  O163     1.0000 0.26880  0.41007  0.06657  Biso   1.000  O
  Mg29     1.0000 0.74536  0.65985  0.04868  Biso   1.000  Mg
  Mg30     1.0000 0.70111  0.72852  0.00000  Biso   1.000  Mg
  Mg31     1.0000 0.40885  0.79022  0.00000  Biso   1.000  Mg
  Mg32     1.0000 0.34015  0.74536  0.04868  Biso   1.000  Mg
  Mg33     1.0000 0.65985  0.25460  0.04868  Biso   1.000  Mg
  Mg34     1.0000 0.72852  0.29885  0.00000  Biso   1.000  Mg
  Mg35     1.0000 0.79022  0.59115  0.00000  Biso   1.000  Mg
  H327     1.0000 0.39798  0.28828  0.34510  Biso   1.000  H
  H328     1.0000 0.37938  0.28040  0.31070  Biso   1.000  H
  H329     1.0000 0.38638  0.33701  0.32409  Biso   1.000  H
  H330     1.0000 0.48100  0.36778  0.33479  Biso   1.000  H
  H331     1.0000 0.52229  0.32258  0.33429  Biso   1.000  H
  H332     1.0000 0.47560  0.32078  0.35790  Biso   1.000  H
  H333     1.0000 0.50817  0.24630  0.31781  Biso   1.000  H
  H334     1.0000 0.48547  0.25139  0.28411  Biso   1.000  H
  H335     1.0000 0.45248  0.22429  0.31020  Biso   1.000  H
  H336     1.0000 0.28828  0.60198  0.34510  Biso   1.000  H
  H337     1.0000 0.28040  0.62058  0.31070  Biso   1.000  H
  H338     1.0000 0.33701  0.61358  0.32409  Biso   1.000  H
  H339     1.0000 0.36778  0.51900  0.33479  Biso   1.000  H
  H340     1.0000 0.32258  0.47771  0.33429  Biso   1.000  H
  H341     1.0000 0.32078  0.52440  0.35790  Biso   1.000  H
  H342     1.0000 0.24630  0.49179  0.31781  Biso   1.000  H
  H343     1.0000 0.25139  0.51449  0.28411  Biso   1.000  H
  H344     1.0000 0.22429  0.54748  0.31020  Biso   1.000  H
  Mg36     1.0000 0.25460  0.34015  0.04868  Biso   1.000  Mg
  Mg37     1.0000 0.29885  0.27144  0.00000  Biso   1.000  Mg
  Mg38     1.0000 0.59115  0.20974  0.00000  Biso   1.000  Mg
  Mg39     1.0000 0.27144  0.70111  0.00000  Biso   1.000  Mg
  Mg40     1.0000 0.20974  0.40885  0.00000  Biso   1.000  Mg
  O164     1.0000 0.72699  0.64879  0.00000  Biso   1.000  O
  O165     1.0000 0.81777  0.63880  0.03395  Biso   1.000  O
  O166     1.0000 0.77900  0.68098  0.08902  Biso   1.000  O
  O167     1.0000 0.75787  0.73460  0.03381  Biso   1.000  O
  Mg41     1.0000 0.74536  0.65985  0.95132  Biso   1.000  Mg
  O168     1.0000 0.69939  0.80610  0.00000  Biso   1.000  O
  O169     1.0000 0.75787  0.73460  0.96619  Biso   1.000  O
  O170     1.0000 0.64408  0.72557  0.97045  Biso   1.000  O
  O171     1.0000 0.35121  0.72699  0.00000  Biso   1.000  O
  O172     1.0000 0.36120  0.81777  0.03395  Biso   1.000  O
  Mg42     1.0000 0.34015  0.74536  0.95132  Biso   1.000  Mg
  O173     1.0000 0.44299  0.85900  0.00000  Biso   1.000  O
  O174     1.0000 0.36120  0.81777  0.96605  Biso   1.000  O
  O175     1.0000 0.45991  0.76289  0.96933  Biso   1.000  O
  O176     1.0000 0.31898  0.77900  0.08902  Biso   1.000  O
  O177     1.0000 0.26540  0.75787  0.03381  Biso   1.000  O
  O178     1.0000 0.64879  0.27301  0.00000  Biso   1.000  O
  O179     1.0000 0.63880  0.18219  0.03395  Biso   1.000  O
  O180     1.0000 0.68098  0.22100  0.08902  Biso   1.000  O
  O181     1.0000 0.73460  0.24209  0.03381  Biso   1.000  O
  Mg43     1.0000 0.65985  0.25460  0.95132  Biso   1.000  Mg
  O182     1.0000 0.80610  0.30061  0.00000  Biso   1.000  O
  O183     1.0000 0.73460  0.24209  0.96619  Biso   1.000  O
  O184     1.0000 0.72557  0.35588  0.97045  Biso   1.000  O
  O185     1.0000 0.85900  0.55697  0.00000  Biso   1.000  O
  O186     1.0000 0.81777  0.63880  0.96605  Biso   1.000  O
  O187     1.0000 0.76289  0.54009  0.96933  Biso   1.000  O
  O188     1.0000 0.27301  0.35121  0.00000  Biso   1.000  O
  O189     1.0000 0.18219  0.36120  0.03395  Biso   1.000  O
  O190     1.0000 0.22100  0.31898  0.08902  Biso   1.000  O
  O191     1.0000 0.24209  0.26540  0.03381  Biso   1.000  O
  O192     1.0000 0.30061  0.19390  0.00000  Biso   1.000  O
  Mg44     1.0000 0.25460  0.34015  0.95132  Biso   1.000  Mg
  O193     1.0000 0.24209  0.26540  0.96619  Biso   1.000  O
  O194     1.0000 0.35588  0.27439  0.97045  Biso   1.000  O
  O195     1.0000 0.55697  0.14100  0.00000  Biso   1.000  O
  O196     1.0000 0.63880  0.18219  0.96605  Biso   1.000  O
  O197     1.0000 0.54009  0.23711  0.96933  Biso   1.000  O
  O198     1.0000 0.19390  0.69939  0.00000  Biso   1.000  O
  O199     1.0000 0.26540  0.75787  0.96619  Biso   1.000  O
  O200     1.0000 0.27439  0.64408  0.97045  Biso   1.000  O
  O201     1.0000 0.14100  0.44299  0.00000  Biso   1.000  O
  O202     1.0000 0.18219  0.36120  0.96605  Biso   1.000  O
  O203     1.0000 0.23711  0.45991  0.96933  Biso   1.000  O
  C389     1.0000 0.86367  0.64527  0.04481  Biso   1.000  C
  S29      1.0000 0.82635  0.71049  0.09000  Biso   1.000  S
  C390     1.0000 0.78360  0.77227  0.04469  Biso   1.000  C
  O204     1.0000 0.77900  0.68098  0.91098  Biso   1.000  O
  O205     1.0000 0.67727  0.67428  0.93327  Biso   1.000  O
  O206     1.0000 0.73120  0.58989  0.93343  Biso   1.000  O
  S30      1.0000 0.74517  0.83867  0.00000  Biso   1.000  S
  C391     1.0000 0.78360  0.77227  0.95531  Biso   1.000  C
  C392     1.0000 0.64010  0.69947  0.94529  Biso   1.000  C
  C393     1.0000 0.35469  0.86367  0.04481  Biso   1.000  C
  O207     1.0000 0.31898  0.77900  0.91098  Biso   1.000  O
  O208     1.0000 0.32568  0.67727  0.93327  Biso   1.000  O
  O209     1.0000 0.41007  0.73120  0.93343  Biso   1.000  O
  S31      1.0000 0.41650  0.90738  0.00000  Biso   1.000  S
  C394     1.0000 0.35469  0.86367  0.95519  Biso   1.000  C
  C395     1.0000 0.45198  0.73797  0.94499  Biso   1.000  C
  S32      1.0000 0.28951  0.82635  0.09000  Biso   1.000  S
  C396     1.0000 0.22770  0.78360  0.04469  Biso   1.000  C
  C397     1.0000 0.64527  0.13630  0.04481  Biso   1.000  C
  S33      1.0000 0.71049  0.17365  0.09000  Biso   1.000  S
  C398     1.0000 0.77227  0.21640  0.04469  Biso   1.000  C
  O210     1.0000 0.68098  0.22100  0.91098  Biso   1.000  O
  O211     1.0000 0.67428  0.32269  0.93327  Biso   1.000  O
  O212     1.0000 0.58989  0.26880  0.93343  Biso   1.000  O
  S34      1.0000 0.83867  0.25479  0.00000  Biso   1.000  S
  C399     1.0000 0.77227  0.21640  0.95531  Biso   1.000  C
  C400     1.0000 0.69947  0.35990  0.94529  Biso   1.000  C
  S35      1.0000 0.90738  0.58350  0.00000  Biso   1.000  S
  C401     1.0000 0.86367  0.64527  0.95519  Biso   1.000  C
  C402     1.0000 0.73797  0.54798  0.94499  Biso   1.000  C
  C403     1.0000 0.13630  0.35469  0.04481  Biso   1.000  C
  S36      1.0000 0.17365  0.28951  0.09000  Biso   1.000  S
  C404     1.0000 0.21640  0.22770  0.04469  Biso   1.000  C
  S37      1.0000 0.25479  0.16133  0.00000  Biso   1.000  S
  O213     1.0000 0.22100  0.31898  0.91098  Biso   1.000  O
  O214     1.0000 0.32269  0.32568  0.93327  Biso   1.000  O
  O215     1.0000 0.26880  0.41007  0.93343  Biso   1.000  O
  C405     1.0000 0.21640  0.22770  0.95531  Biso   1.000  C
  C406     1.0000 0.35990  0.30049  0.94529  Biso   1.000  C
  S38      1.0000 0.58350  0.09259  0.00000  Biso   1.000  S
  C407     1.0000 0.64527  0.13630  0.95519  Biso   1.000  C
  C408     1.0000 0.54798  0.26199  0.94499  Biso   1.000  C
  S39      1.0000 0.16133  0.74517  0.00000  Biso   1.000  S
  C409     1.0000 0.22770  0.78360  0.95531  Biso   1.000  C
  C410     1.0000 0.30049  0.64010  0.94529  Biso   1.000  C
  S40      1.0000 0.09259  0.41650  0.00000  Biso   1.000  S
  C411     1.0000 0.13630  0.35469  0.95519  Biso   1.000  C
  C412     1.0000 0.26199  0.45198  0.94499  Biso   1.000  C
  C413     1.0000 0.91090  0.62368  0.03160  Biso   1.000  C
  C414     1.0000 0.87500  0.67807  0.07081  Biso   1.000  C
  O216     1.0000 0.84549  0.72450  0.11976  Biso   1.000  O
  C415     1.0000 0.81697  0.76859  0.06901  Biso   1.000  C
  C416     1.0000 0.78157  0.82149  0.03249  Biso   1.000  C
  S41      1.0000 0.82635  0.71049  0.91000  Biso   1.000  S
  O217     1.0000 0.73747  0.89218  0.00000  Biso   1.000  O
  C417     1.0000 0.78157  0.82149  0.96751  Biso   1.000  C
  C418     1.0000 0.81697  0.76859  0.93099  Biso   1.000  C
  C419     1.0000 0.58866  0.69560  0.93129  Biso   1.000  C
  C420     1.0000 0.37628  0.91090  0.03160  Biso   1.000  C
  C421     1.0000 0.32189  0.87500  0.07081  Biso   1.000  C
  S42      1.0000 0.28951  0.82635  0.91000  Biso   1.000  S
  O218     1.0000 0.44739  0.95220  0.00000  Biso   1.000  O
  C422     1.0000 0.37628  0.91090  0.96840  Biso   1.000  C
  C423     1.0000 0.32189  0.87500  0.92919  Biso   1.000  C
  C424     1.0000 0.49849  0.71470  0.93088  Biso   1.000  C
  O219     1.0000 0.27550  0.84549  0.11976  Biso   1.000  O
  C425     1.0000 0.23141  0.81697  0.06901  Biso   1.000  C
  C426     1.0000 0.17851  0.78157  0.03249  Biso   1.000  C
  C427     1.0000 0.62368  0.08910  0.03160  Biso   1.000  C
  C428     1.0000 0.67807  0.12500  0.07081  Biso   1.000  C
  O220     1.0000 0.72450  0.15451  0.11976  Biso   1.000  O
  C429     1.0000 0.76859  0.18299  0.06901  Biso   1.000  C
  C430     1.0000 0.82149  0.21839  0.03249  Biso   1.000  C
  S43      1.0000 0.71049  0.17365  0.91000  Biso   1.000  S
  O221     1.0000 0.89218  0.26249  0.00000  Biso   1.000  O
  C431     1.0000 0.82149  0.21839  0.96751  Biso   1.000  C
  C432     1.0000 0.76859  0.18299  0.93099  Biso   1.000  C
  C433     1.0000 0.69560  0.41130  0.93129  Biso   1.000  C
  O222     1.0000 0.95220  0.55261  0.00000  Biso   1.000  O
  C434     1.0000 0.91090  0.62368  0.96840  Biso   1.000  C
  C435     1.0000 0.87500  0.67807  0.92919  Biso   1.000  C
  C436     1.0000 0.71470  0.50147  0.93088  Biso   1.000  C
  C437     1.0000 0.08910  0.37628  0.03160  Biso   1.000  C
  C438     1.0000 0.12500  0.32189  0.07081  Biso   1.000  C
  O223     1.0000 0.15451  0.27550  0.11976  Biso   1.000  O
  C439     1.0000 0.18299  0.23141  0.06901  Biso   1.000  C
  C440     1.0000 0.21839  0.17851  0.03249  Biso   1.000  C
  O224     1.0000 0.26249  0.10778  0.00000  Biso   1.000  O
  C441     1.0000 0.21839  0.17851  0.96751  Biso   1.000  C
  S44      1.0000 0.17365  0.28951  0.91000  Biso   1.000  S
  C442     1.0000 0.18299  0.23141  0.93099  Biso   1.000  C
  C443     1.0000 0.41130  0.30440  0.93129  Biso   1.000  C
  O225     1.0000 0.55261  0.04780  0.00000  Biso   1.000  O
  C444     1.0000 0.62368  0.08910  0.96840  Biso   1.000  C
  C445     1.0000 0.67807  0.12500  0.92919  Biso   1.000  C
  C446     1.0000 0.50147  0.28530  0.93088  Biso   1.000  C
  O226     1.0000 0.10778  0.73747  0.00000  Biso   1.000  O
  C447     1.0000 0.17851  0.78157  0.96751  Biso   1.000  C
  C448     1.0000 0.23141  0.81697  0.93099  Biso   1.000  C
  C449     1.0000 0.30440  0.58866  0.93129  Biso   1.000  C
  O227     1.0000 0.04780  0.44739  0.00000  Biso   1.000  O
  C450     1.0000 0.08910  0.37628  0.96840  Biso   1.000  C
  C451     1.0000 0.12500  0.32189  0.92919  Biso   1.000  C
  C452     1.0000 0.28530  0.49849  0.93088  Biso   1.000  C
  C453     1.0000 0.95809  0.62939  0.04451  Biso   1.000  C
  C454     1.0000 0.92249  0.68129  0.08269  Biso   1.000  C
  C455     1.0000 0.84617  0.80878  0.08110  Biso   1.000  C
  C456     1.0000 0.81188  0.86267  0.04430  Biso   1.000  C
  O228     1.0000 0.84549  0.72450  0.88024  Biso   1.000  O
  C457     1.0000 0.81188  0.86267  0.95570  Biso   1.000  C
  C458     1.0000 0.84617  0.80878  0.91890  Biso   1.000  C
  C459     1.0000 0.58281  0.66609  0.90520  Biso   1.000  C
  C460     1.0000 0.54660  0.71987  0.94413  Biso   1.000  C
  C461     1.0000 0.37057  0.95809  0.04451  Biso   1.000  C
  C462     1.0000 0.31871  0.92249  0.08269  Biso   1.000  C
  O229     1.0000 0.27550  0.84549  0.88024  Biso   1.000  O
  C463     1.0000 0.37057  0.95809  0.95549  Biso   1.000  C
  C464     1.0000 0.31871  0.92249  0.91731  Biso   1.000  C
  C465     1.0000 0.49259  0.68519  0.90479  Biso   1.000  C
  C466     1.0000 0.19118  0.84617  0.08110  Biso   1.000  C
  C467     1.0000 0.13729  0.81188  0.04430  Biso   1.000  C
  C468     1.0000 0.62939  0.04191  0.04451  Biso   1.000  C
  C469     1.0000 0.68129  0.07751  0.08269  Biso   1.000  C
  C470     1.0000 0.80878  0.15379  0.08110  Biso   1.000  C
  C471     1.0000 0.86267  0.18808  0.04430  Biso   1.000  C
  O230     1.0000 0.72450  0.15451  0.88024  Biso   1.000  O
  C472     1.0000 0.86267  0.18808  0.95570  Biso   1.000  C
  C473     1.0000 0.80878  0.15379  0.91890  Biso   1.000  C
  C474     1.0000 0.66609  0.41719  0.90520  Biso   1.000  C
  C475     1.0000 0.71987  0.45340  0.94413  Biso   1.000  C
  C476     1.0000 0.95809  0.62939  0.95549  Biso   1.000  C
  C477     1.0000 0.92249  0.68129  0.91731  Biso   1.000  C
  C478     1.0000 0.68519  0.50737  0.90479  Biso   1.000  C
  C479     1.0000 0.04191  0.37057  0.04451  Biso   1.000  C
  C480     1.0000 0.07751  0.31871  0.08269  Biso   1.000  C
  C481     1.0000 0.15379  0.19118  0.08110  Biso   1.000  C
  C482     1.0000 0.18808  0.13729  0.04430  Biso   1.000  C
  C483     1.0000 0.18808  0.13729  0.95570  Biso   1.000  C
  O231     1.0000 0.15451  0.27550  0.88024  Biso   1.000  O
  C484     1.0000 0.15379  0.19118  0.91890  Biso   1.000  C
  C485     1.0000 0.41719  0.33391  0.90520  Biso   1.000  C
  C486     1.0000 0.45340  0.28009  0.94413  Biso   1.000  C
  C487     1.0000 0.62939  0.04191  0.95549  Biso   1.000  C
  C488     1.0000 0.68129  0.07751  0.91731  Biso   1.000  C
  C489     1.0000 0.50737  0.31481  0.90479  Biso   1.000  C
  C490     1.0000 0.13729  0.81188  0.95570  Biso   1.000  C
  C491     1.0000 0.19118  0.84617  0.91890  Biso   1.000  C
  C492     1.0000 0.33391  0.58281  0.90520  Biso   1.000  C
  C493     1.0000 0.28009  0.54660  0.94413  Biso   1.000  C
  C494     1.0000 0.04191  0.37057  0.95549  Biso   1.000  C
  C495     1.0000 0.07751  0.31871  0.91731  Biso   1.000  C
  C496     1.0000 0.31481  0.49259  0.90479  Biso   1.000  C
  H345     1.0000 0.98637  0.61228  0.03549  Biso   1.000  H
  C497     1.0000 0.96628  0.65897  0.07010  Biso   1.000  C
  H346     1.0000 0.92640  0.70008  0.10099  Biso   1.000  H
  H347     1.0000 0.86657  0.80350  0.09881  Biso   1.000  H
  C498     1.0000 0.84499  0.85808  0.06671  Biso   1.000  C
  H348     1.0000 0.80767  0.89559  0.03540  Biso   1.000  H
  C499     1.0000 0.84499  0.85808  0.93329  Biso   1.000  C
  H349     1.0000 0.80767  0.89559  0.96460  Biso   1.000  H
  H350     1.0000 0.86657  0.80350  0.90119  Biso   1.000  H
  H351     1.0000 0.61159  0.64948  0.89641  Biso   1.000  H
  C500     1.0000 0.53470  0.66089  0.89195  Biso   1.000  C
  H352     1.0000 0.55058  0.74008  0.96200  Biso   1.000  H
  H353     1.0000 0.38768  0.98637  0.03549  Biso   1.000  H
  C501     1.0000 0.34099  0.96628  0.07010  Biso   1.000  C
  H354     1.0000 0.29988  0.92640  0.10099  Biso   1.000  H
  H355     1.0000 0.38768  0.98637  0.96451  Biso   1.000  H
  C502     1.0000 0.34099  0.96628  0.92990  Biso   1.000  C
  H356     1.0000 0.29988  0.92640  0.89901  Biso   1.000  H
  H357     1.0000 0.45979  0.68159  0.89570  Biso   1.000  H
  H358     1.0000 0.19650  0.86657  0.09881  Biso   1.000  H
  C503     1.0000 0.14188  0.84499  0.06671  Biso   1.000  C
  H359     1.0000 0.10441  0.80767  0.03540  Biso   1.000  H
  H360     1.0000 0.61228  0.01359  0.03549  Biso   1.000  H
  C504     1.0000 0.65897  0.03368  0.07010  Biso   1.000  C
  H361     1.0000 0.70008  0.07360  0.10099  Biso   1.000  H
  H362     1.0000 0.80350  0.13339  0.09881  Biso   1.000  H
  C505     1.0000 0.85808  0.15501  0.06671  Biso   1.000  C
  H363     1.0000 0.89559  0.19229  0.03540  Biso   1.000  H
  C506     1.0000 0.85808  0.15501  0.93329  Biso   1.000  C
  H364     1.0000 0.89559  0.19229  0.96460  Biso   1.000  H
  H365     1.0000 0.80350  0.13339  0.90119  Biso   1.000  H
  H366     1.0000 0.64948  0.38841  0.89641  Biso   1.000  H
  C507     1.0000 0.66089  0.46530  0.89195  Biso   1.000  C
  H367     1.0000 0.74008  0.44938  0.96200  Biso   1.000  H
  H368     1.0000 0.98637  0.61228  0.96451  Biso   1.000  H
  C508     1.0000 0.96628  0.65897  0.92990  Biso   1.000  C
  H369     1.0000 0.92640  0.70008  0.89901  Biso   1.000  H
  H370     1.0000 0.68159  0.54021  0.89570  Biso   1.000  H
  H371     1.0000 0.01359  0.38768  0.03549  Biso   1.000  H
  C509     1.0000 0.03368  0.34099  0.07010  Biso   1.000  C
  H372     1.0000 0.07360  0.29988  0.10099  Biso   1.000  H
  H373     1.0000 0.13339  0.19650  0.09881  Biso   1.000  H
  C510     1.0000 0.15501  0.14188  0.06671  Biso   1.000  C
  H374     1.0000 0.19229  0.10441  0.03540  Biso   1.000  H
  C511     1.0000 0.15501  0.14188  0.93329  Biso   1.000  C
  H375     1.0000 0.19229  0.10441  0.96460  Biso   1.000  H
  H376     1.0000 0.13339  0.19650  0.90119  Biso   1.000  H
  H377     1.0000 0.38841  0.35048  0.89641  Biso   1.000  H
  C512     1.0000 0.46530  0.33907  0.89195  Biso   1.000  C
  H378     1.0000 0.44938  0.25988  0.96200  Biso   1.000  H
  H379     1.0000 0.61228  0.01359  0.96451  Biso   1.000  H
  C513     1.0000 0.65897  0.03368  0.92990  Biso   1.000  C
  H380     1.0000 0.70008  0.07360  0.89901  Biso   1.000  H
  H381     1.0000 0.54021  0.31841  0.89570  Biso   1.000  H
  C514     1.0000 0.14188  0.84499  0.93329  Biso   1.000  C
  H382     1.0000 0.10441  0.80767  0.96460  Biso   1.000  H
  H383     1.0000 0.19650  0.86657  0.90119  Biso   1.000  H
  H384     1.0000 0.35048  0.61159  0.89641  Biso   1.000  H
  C515     1.0000 0.33907  0.53470  0.89195  Biso   1.000  C
  H385     1.0000 0.25988  0.55058  0.96200  Biso   1.000  H
  H386     1.0000 0.01359  0.38768  0.96451  Biso   1.000  H
  C516     1.0000 0.03368  0.34099  0.92990  Biso   1.000  C
  H387     1.0000 0.07360  0.29988  0.89901  Biso   1.000  H
  H388     1.0000 0.31841  0.45979  0.89570  Biso   1.000  H
  C517     1.0000 0.01979  0.66249  0.08560  Biso   1.000  C
  C518     1.0000 0.88089  0.90397  0.07661  Biso   1.000  C
  C519     1.0000 0.88089  0.90397  0.92339  Biso   1.000  C
  C520     1.0000 0.52429  0.62541  0.86399  Biso   1.000  C
  C521     1.0000 0.33751  0.01979  0.08560  Biso   1.000  C
  C522     1.0000 0.33751  0.01979  0.91440  Biso   1.000  C
  C523     1.0000 0.09599  0.88089  0.07661  Biso   1.000  C
  C524     1.0000 0.66249  0.98017  0.08560  Biso   1.000  C
  C525     1.0000 0.90397  0.11911  0.07661  Biso   1.000  C
  C526     1.0000 0.90397  0.11911  0.92339  Biso   1.000  C
  C527     1.0000 0.62541  0.47568  0.86399  Biso   1.000  C
  C528     1.0000 0.01979  0.66249  0.91440  Biso   1.000  C
  C529     1.0000 0.98017  0.33751  0.08560  Biso   1.000  C
  C530     1.0000 0.11911  0.09599  0.07661  Biso   1.000  C
  C531     1.0000 0.11911  0.09599  0.92339  Biso   1.000  C
  C532     1.0000 0.47568  0.37459  0.86399  Biso   1.000  C
  C533     1.0000 0.66249  0.98017  0.91440  Biso   1.000  C
  C534     1.0000 0.09599  0.88089  0.92339  Biso   1.000  C
  C535     1.0000 0.37459  0.52429  0.86399  Biso   1.000  C
  C536     1.0000 0.98017  0.33751  0.91440  Biso   1.000  C
  C537     1.0000 0.05841  0.67819  0.06090  Biso   1.000  C
  C538     1.0000 0.03020  0.60700  0.09701  Biso   1.000  C
  C539     1.0000 0.01600  0.70131  0.11160  Biso   1.000  C
  C540     1.0000 0.91258  0.89107  0.10370  Biso   1.000  C
  C541     1.0000 0.91790  0.91859  0.04879  Biso   1.000  C
  C542     1.0000 0.84449  0.94948  0.08130  Biso   1.000  C
  C543     1.0000 0.91258  0.89107  0.89630  Biso   1.000  C
  C544     1.0000 0.91790  0.91859  0.95121  Biso   1.000  C
  C545     1.0000 0.84449  0.94948  0.91870  Biso   1.000  C
  O232     1.0000 0.56570  0.60409  0.85486  Biso   1.000  O
  O233     1.0000 0.48169  0.62039  0.85445  Biso   1.000  O
  C546     1.0000 0.32181  0.05841  0.06090  Biso   1.000  C
  C547     1.0000 0.39300  0.03020  0.09701  Biso   1.000  C
  C548     1.0000 0.29869  0.01600  0.11160  Biso   1.000  C
  C549     1.0000 0.32181  0.05841  0.93910  Biso   1.000  C
  C550     1.0000 0.39300  0.03020  0.90299  Biso   1.000  C
  C551     1.0000 0.29869  0.01600  0.88840  Biso   1.000  C
  C552     1.0000 0.10889  0.91258  0.10370  Biso   1.000  C
  C553     1.0000 0.08141  0.91790  0.04879  Biso   1.000  C
  C554     1.0000 0.05048  0.84449  0.08130  Biso   1.000  C
  C555     1.0000 0.67819  0.94159  0.06090  Biso   1.000  C
  C556     1.0000 0.60700  0.96976  0.09701  Biso   1.000  C
  C557     1.0000 0.70131  0.98396  0.11160  Biso   1.000  C
  C558     1.0000 0.89107  0.08738  0.10370  Biso   1.000  C
  C559     1.0000 0.91859  0.08210  0.04879  Biso   1.000  C
  C560     1.0000 0.94948  0.15551  0.08130  Biso   1.000  C
  C561     1.0000 0.89107  0.08738  0.89630  Biso   1.000  C
  C562     1.0000 0.91859  0.08210  0.95121  Biso   1.000  C
  C563     1.0000 0.94948  0.15551  0.91870  Biso   1.000  C
  O234     1.0000 0.60409  0.43430  0.85486  Biso   1.000  O
  O235     1.0000 0.62039  0.51828  0.85445  Biso   1.000  O
  C564     1.0000 0.05841  0.67819  0.93910  Biso   1.000  C
  C565     1.0000 0.03020  0.60700  0.90299  Biso   1.000  C
  C566     1.0000 0.01600  0.70131  0.88840  Biso   1.000  C
  C567     1.0000 0.94159  0.32181  0.06090  Biso   1.000  C
  C568     1.0000 0.96976  0.39300  0.09701  Biso   1.000  C
  C569     1.0000 0.98396  0.29869  0.11160  Biso   1.000  C
  C570     1.0000 0.08738  0.10889  0.10370  Biso   1.000  C
  C571     1.0000 0.08210  0.08141  0.04879  Biso   1.000  C
  C572     1.0000 0.15551  0.05048  0.08130  Biso   1.000  C
  C573     1.0000 0.08738  0.10889  0.89630  Biso   1.000  C
  C574     1.0000 0.08210  0.08141  0.95121  Biso   1.000  C
  C575     1.0000 0.15551  0.05048  0.91870  Biso   1.000  C
  O236     1.0000 0.43430  0.39587  0.85486  Biso   1.000  O
  O237     1.0000 0.51828  0.37961  0.85445  Biso   1.000  O
  C576     1.0000 0.67819  0.94159  0.93910  Biso   1.000  C
  C577     1.0000 0.60700  0.96976  0.90299  Biso   1.000  C
  C578     1.0000 0.70131  0.98396  0.88840  Biso   1.000  C
  C579     1.0000 0.10889  0.91258  0.89630  Biso   1.000  C
  C580     1.0000 0.08141  0.91790  0.95121  Biso   1.000  C
  C581     1.0000 0.05048  0.84449  0.91870  Biso   1.000  C
  O238     1.0000 0.39587  0.56570  0.85486  Biso   1.000  O
  O239     1.0000 0.37961  0.48169  0.85445  Biso   1.000  O
  C582     1.0000 0.94159  0.32181  0.93910  Biso   1.000  C
  C583     1.0000 0.96976  0.39300  0.90299  Biso   1.000  C
  C584     1.0000 0.98396  0.29869  0.88840  Biso   1.000  C
  H389     1.0000 0.09102  0.68760  0.07051  Biso   1.000  H
  H390     1.0000 0.04501  0.70758  0.04950  Biso   1.000  H
  H391     1.0000 0.06388  0.64948  0.04690  Biso   1.000  H
  H392     1.0000 0.02090  0.58250  0.08110  Biso   1.000  H
  H393     1.0000 0.00968  0.60038  0.11529  Biso   1.000  H
  H394     1.0000 0.06660  0.60328  0.10200  Biso   1.000  H
  H395     1.0000 0.98967  0.72680  0.10671  Biso   1.000  H
  H396     1.0000 0.00670  0.68358  0.13041  Biso   1.000  H
  H397     1.0000 0.04899  0.71849  0.11420  Biso   1.000  H
  H398     1.0000 0.94159  0.91480  0.10500  Biso   1.000  H
  H399     1.0000 0.92529  0.85590  0.10170  Biso   1.000  H
  H400     1.0000 0.89168  0.89398  0.12210  Biso   1.000  H
  H401     1.0000 0.94787  0.93700  0.05651  Biso   1.000  H
  H402     1.0000 0.89938  0.94037  0.03431  Biso   1.000  H
  H403     1.0000 0.92900  0.88717  0.03850  Biso   1.000  H
  H404     1.0000 0.81770  0.93987  0.09590  Biso   1.000  H
  H405     1.0000 0.82880  0.95866  0.06179  Biso   1.000  H
  H406     1.0000 0.86378  0.97868  0.08929  Biso   1.000  H
  H407     1.0000 0.94159  0.91480  0.89500  Biso   1.000  H
  H408     1.0000 0.92529  0.85590  0.89830  Biso   1.000  H
  H409     1.0000 0.89168  0.89398  0.87790  Biso   1.000  H
  H410     1.0000 0.94787  0.93700  0.94349  Biso   1.000  H
  H411     1.0000 0.89938  0.94037  0.96569  Biso   1.000  H
  H412     1.0000 0.92900  0.88717  0.96150  Biso   1.000  H
  H413     1.0000 0.81770  0.93987  0.90410  Biso   1.000  H
  H414     1.0000 0.82880  0.95866  0.93821  Biso   1.000  H
  H415     1.0000 0.86378  0.97868  0.91071  Biso   1.000  H
  Mg45     1.0000 0.56872  0.54442  0.82510  Biso   1.000  Mg
  Mg46     1.0000 0.45554  0.56872  0.82510  Biso   1.000  Mg
  H416     1.0000 0.31240  0.09102  0.07051  Biso   1.000  H
  H417     1.0000 0.29238  0.04501  0.04950  Biso   1.000  H
  H418     1.0000 0.35048  0.06388  0.04690  Biso   1.000  H
  H419     1.0000 0.41750  0.02090  0.08110  Biso   1.000  H
  H420     1.0000 0.39959  0.00968  0.11529  Biso   1.000  H
  H421     1.0000 0.39668  0.06660  0.10200  Biso   1.000  H
  H422     1.0000 0.27320  0.98967  0.10671  Biso   1.000  H
  H423     1.0000 0.31638  0.00670  0.13041  Biso   1.000  H
  H424     1.0000 0.28151  0.04899  0.11420  Biso   1.000  H
  H425     1.0000 0.31240  0.09102  0.92949  Biso   1.000  H
  H426     1.0000 0.29238  0.04501  0.95050  Biso   1.000  H
  H427     1.0000 0.35048  0.06388  0.95310  Biso   1.000  H
  H428     1.0000 0.41750  0.02090  0.91890  Biso   1.000  H
  H429     1.0000 0.39959  0.00968  0.88471  Biso   1.000  H
  H430     1.0000 0.39668  0.06660  0.89800  Biso   1.000  H
  H431     1.0000 0.27320  0.98967  0.89329  Biso   1.000  H
  H432     1.0000 0.31638  0.00670  0.86959  Biso   1.000  H
  H433     1.0000 0.28151  0.04899  0.88580  Biso   1.000  H
  H434     1.0000 0.08520  0.94159  0.10500  Biso   1.000  H
  H435     1.0000 0.14410  0.92529  0.10170  Biso   1.000  H
  H436     1.0000 0.10598  0.89168  0.12210  Biso   1.000  H
  H437     1.0000 0.06300  0.94787  0.05651  Biso   1.000  H
  H438     1.0000 0.05959  0.89938  0.03431  Biso   1.000  H
  H439     1.0000 0.11280  0.92900  0.03850  Biso   1.000  H
  H440     1.0000 0.06009  0.81770  0.09590  Biso   1.000  H
  H441     1.0000 0.04130  0.82880  0.06179  Biso   1.000  H
  H442     1.0000 0.02128  0.86378  0.08929  Biso   1.000  H
  H443     1.0000 0.68760  0.90898  0.07051  Biso   1.000  H
  H444     1.0000 0.70758  0.95499  0.04950  Biso   1.000  H
  H445     1.0000 0.64948  0.93608  0.04690  Biso   1.000  H
  H446     1.0000 0.58250  0.97906  0.08110  Biso   1.000  H
  H447     1.0000 0.60038  0.99028  0.11529  Biso   1.000  H
  H448     1.0000 0.60328  0.93336  0.10200  Biso   1.000  H
  H449     1.0000 0.72680  0.01030  0.10671  Biso   1.000  H
  H450     1.0000 0.68358  0.99326  0.13041  Biso   1.000  H
  H451     1.0000 0.71849  0.95097  0.11420  Biso   1.000  H
  H452     1.0000 0.91480  0.05841  0.10500  Biso   1.000  H
  H453     1.0000 0.85590  0.07471  0.10170  Biso   1.000  H
  H454     1.0000 0.89398  0.10828  0.12210  Biso   1.000  H
  H455     1.0000 0.93700  0.05209  0.05651  Biso   1.000  H
  H456     1.0000 0.94037  0.10059  0.03431  Biso   1.000  H
  H457     1.0000 0.88717  0.07100  0.03850  Biso   1.000  H
  H458     1.0000 0.93987  0.18230  0.09590  Biso   1.000  H
  H459     1.0000 0.95866  0.17120  0.06179  Biso   1.000  H
  H460     1.0000 0.97868  0.13618  0.08929  Biso   1.000  H
  H461     1.0000 0.91480  0.05841  0.89500  Biso   1.000  H
  H462     1.0000 0.85590  0.07471  0.89830  Biso   1.000  H
  H463     1.0000 0.89398  0.10828  0.87790  Biso   1.000  H
  H464     1.0000 0.93700  0.05209  0.94349  Biso   1.000  H
  H465     1.0000 0.94037  0.10059  0.96569  Biso   1.000  H
  H466     1.0000 0.88717  0.07100  0.96150  Biso   1.000  H
  H467     1.0000 0.93987  0.18230  0.90410  Biso   1.000  H
  H468     1.0000 0.95866  0.17120  0.93821  Biso   1.000  H
  H469     1.0000 0.97868  0.13618  0.91071  Biso   1.000  H
  Mg47     1.0000 0.54442  0.43124  0.82510  Biso   1.000  Mg
  H470     1.0000 0.09102  0.68760  0.92949  Biso   1.000  H
  H471     1.0000 0.04501  0.70758  0.95050  Biso   1.000  H
  H472     1.0000 0.06388  0.64948  0.95310  Biso   1.000  H
  H473     1.0000 0.02090  0.58250  0.91890  Biso   1.000  H
  H474     1.0000 0.00968  0.60038  0.88471  Biso   1.000  H
  H475     1.0000 0.06660  0.60328  0.89800  Biso   1.000  H
  H476     1.0000 0.98967  0.72680  0.89329  Biso   1.000  H
  H477     1.0000 0.00670  0.68358  0.86959  Biso   1.000  H
  H478     1.0000 0.04899  0.71849  0.88580  Biso   1.000  H
  H479     1.0000 0.90898  0.31240  0.07051  Biso   1.000  H
  H480     1.0000 0.95499  0.29238  0.04950  Biso   1.000  H
  H481     1.0000 0.93608  0.35048  0.04690  Biso   1.000  H
  H482     1.0000 0.97906  0.41750  0.08110  Biso   1.000  H
  H483     1.0000 0.99028  0.39959  0.11529  Biso   1.000  H
  H484     1.0000 0.93336  0.39668  0.10200  Biso   1.000  H
  H485     1.0000 0.01030  0.27320  0.10671  Biso   1.000  H
  H486     1.0000 0.99326  0.31638  0.13041  Biso   1.000  H
  H487     1.0000 0.95097  0.28151  0.11420  Biso   1.000  H
  H488     1.0000 0.05841  0.08520  0.10500  Biso   1.000  H
  H489     1.0000 0.07471  0.14410  0.10170  Biso   1.000  H
  H490     1.0000 0.10828  0.10598  0.12210  Biso   1.000  H
  H491     1.0000 0.05209  0.06300  0.05651  Biso   1.000  H
  H492     1.0000 0.10059  0.05959  0.03431  Biso   1.000  H
  H493     1.0000 0.07100  0.11280  0.03850  Biso   1.000  H
  H494     1.0000 0.18230  0.06009  0.09590  Biso   1.000  H
  H495     1.0000 0.17120  0.04130  0.06179  Biso   1.000  H
  H496     1.0000 0.13618  0.02128  0.08929  Biso   1.000  H
  H497     1.0000 0.05841  0.08520  0.89500  Biso   1.000  H
  H498     1.0000 0.07471  0.14410  0.89830  Biso   1.000  H
  H499     1.0000 0.10828  0.10598  0.87790  Biso   1.000  H
  H500     1.0000 0.05209  0.06300  0.94349  Biso   1.000  H
  H501     1.0000 0.10059  0.05959  0.96569  Biso   1.000  H
  H502     1.0000 0.07100  0.11280  0.96150  Biso   1.000  H
  H503     1.0000 0.18230  0.06009  0.90410  Biso   1.000  H
  H504     1.0000 0.17120  0.04130  0.93821  Biso   1.000  H
  H505     1.0000 0.13618  0.02128  0.91071  Biso   1.000  H
  Mg48     1.0000 0.43124  0.45554  0.82510  Biso   1.000  Mg
  H506     1.0000 0.68760  0.90898  0.92949  Biso   1.000  H
  H507     1.0000 0.70758  0.95499  0.95050  Biso   1.000  H
  H508     1.0000 0.64948  0.93608  0.95310  Biso   1.000  H
  H509     1.0000 0.58250  0.97906  0.91890  Biso   1.000  H
  H510     1.0000 0.60038  0.99028  0.88471  Biso   1.000  H
  H511     1.0000 0.60328  0.93336  0.89800  Biso   1.000  H
  H512     1.0000 0.68358  0.99326  0.86959  Biso   1.000  H
  H513     1.0000 0.71849  0.95097  0.88580  Biso   1.000  H
  H514     1.0000 0.72680  0.01030  0.89329  Biso   1.000  H
  H515     1.0000 0.08520  0.94159  0.89500  Biso   1.000  H
  H516     1.0000 0.14410  0.92529  0.89830  Biso   1.000  H
  H517     1.0000 0.10598  0.89168  0.87790  Biso   1.000  H
  H518     1.0000 0.06300  0.94787  0.94349  Biso   1.000  H
  H519     1.0000 0.05959  0.89938  0.96569  Biso   1.000  H
  H520     1.0000 0.11280  0.92900  0.96150  Biso   1.000  H
  H521     1.0000 0.06009  0.81770  0.90410  Biso   1.000  H
  H522     1.0000 0.04130  0.82880  0.93821  Biso   1.000  H
  H523     1.0000 0.02128  0.86378  0.91071  Biso   1.000  H
  H524     1.0000 0.90898  0.31240  0.92949  Biso   1.000  H
  H525     1.0000 0.95499  0.29238  0.95050  Biso   1.000  H
  H526     1.0000 0.93608  0.35048  0.95310  Biso   1.000  H
  H527     1.0000 0.97906  0.41750  0.91890  Biso   1.000  H
  H528     1.0000 0.99028  0.39959  0.88471  Biso   1.000  H
  H529     1.0000 0.93336  0.39668  0.89800  Biso   1.000  H
  H530     1.0000 0.99326  0.31638  0.86959  Biso   1.000  H
  H531     1.0000 0.95097  0.28151  0.88580  Biso   1.000  H
  H532     1.0000 0.01030  0.27320  0.89329  Biso   1.000  H
  O240     1.0000 0.49998  0.49998  0.83849  Biso   1.000  O
  O241     1.0000 0.57829  0.48318  0.79498  Biso   1.000  O
  O242     1.0000 0.51678  0.57829  0.79498  Biso   1.000  O
  O243     1.0000 0.62529  0.58151  0.80033  Biso   1.000  O
  O244     1.0000 0.42171  0.51678  0.79498  Biso   1.000  O
  O245     1.0000 0.41849  0.62529  0.80033  Biso   1.000  O
  O246     1.0000 0.48318  0.42171  0.79498  Biso   1.000  O
  O247     1.0000 0.58151  0.37471  0.80033  Biso   1.000  O
  O248     1.0000 0.37471  0.41849  0.80033  Biso   1.000  O
  C585     1.0000 0.60600  0.47901  0.76989  Biso   1.000  C
  C586     1.0000 0.52099  0.60600  0.76989  Biso   1.000  C
  S45      1.0000 0.62721  0.58262  0.76825  Biso   1.000  S
  C587     1.0000 0.39400  0.52099  0.76989  Biso   1.000  C
  S46      1.0000 0.41738  0.62721  0.76825  Biso   1.000  S
  C588     1.0000 0.47901  0.39400  0.76989  Biso   1.000  C
  S47      1.0000 0.58262  0.37279  0.76825  Biso   1.000  S
  S48      1.0000 0.37279  0.41738  0.76825  Biso   1.000  S
  C589     1.0000 0.61010  0.42948  0.75480  Biso   1.000  C
  C590     1.0000 0.62958  0.52008  0.75560  Biso   1.000  C
  C591     1.0000 0.47989  0.62958  0.75560  Biso   1.000  C
  C592     1.0000 0.57048  0.61010  0.75480  Biso   1.000  C
  O249     1.0000 0.66877  0.60979  0.75537  Biso   1.000  O
  C593     1.0000 0.37038  0.47989  0.75560  Biso   1.000  C
  C594     1.0000 0.38990  0.57048  0.75480  Biso   1.000  C
  O250     1.0000 0.39021  0.66877  0.75537  Biso   1.000  O
  C595     1.0000 0.42948  0.38990  0.75480  Biso   1.000  C
  C596     1.0000 0.52008  0.37038  0.75560  Biso   1.000  C
  O251     1.0000 0.60979  0.33119  0.75537  Biso   1.000  O
  O252     1.0000 0.33119  0.39021  0.75537  Biso   1.000  O
  C597     1.0000 0.64340  0.42320  0.73010  Biso   1.000  C
  C598     1.0000 0.66138  0.51158  0.72930  Biso   1.000  C
  C599     1.0000 0.48838  0.66138  0.72930  Biso   1.000  C
  C600     1.0000 0.57680  0.64340  0.73010  Biso   1.000  C
  C601     1.0000 0.33858  0.48838  0.72930  Biso   1.000  C
  C602     1.0000 0.35660  0.57680  0.73010  Biso   1.000  C
  C603     1.0000 0.42320  0.35660  0.73010  Biso   1.000  C
  C604     1.0000 0.51158  0.33858  0.72930  Biso   1.000  C
  H533     1.0000 0.64849  0.39021  0.72160  Biso   1.000  H
  C605     1.0000 0.66801  0.46339  0.71819  Biso   1.000  C
  H534     1.0000 0.67769  0.53967  0.71969  Biso   1.000  H
  C606     1.0000 0.53657  0.66801  0.71819  Biso   1.000  C
  H535     1.0000 0.46029  0.67769  0.71969  Biso   1.000  H
  H536     1.0000 0.60979  0.64849  0.72160  Biso   1.000  H
  C607     1.0000 0.33199  0.53657  0.71819  Biso   1.000  C
  H537     1.0000 0.32231  0.46029  0.71969  Biso   1.000  H
  H538     1.0000 0.35148  0.60979  0.72160  Biso   1.000  H
  H539     1.0000 0.39021  0.35148  0.72160  Biso   1.000  H
  C608     1.0000 0.46339  0.33199  0.71819  Biso   1.000  C
  H540     1.0000 0.53967  0.32231  0.71969  Biso   1.000  H
  C609     1.0000 0.69778  0.45390  0.68600  Biso   1.000  C
  C610     1.0000 0.54610  0.69778  0.68600  Biso   1.000  C
  C611     1.0000 0.30218  0.54610  0.68600  Biso   1.000  C
  C612     1.0000 0.45390  0.30218  0.68600  Biso   1.000  C
  C613     1.0000 0.69798  0.39989  0.67559  Biso   1.000  C
  C614     1.0000 0.66908  0.48609  0.66271  Biso   1.000  C
  C615     1.0000 0.74827  0.47698  0.69419  Biso   1.000  C
  C616     1.0000 0.60011  0.69798  0.67559  Biso   1.000  C
  C617     1.0000 0.51387  0.66908  0.66271  Biso   1.000  C
  C618     1.0000 0.52298  0.74827  0.69419  Biso   1.000  C
  C619     1.0000 0.30199  0.60011  0.67559  Biso   1.000  C
  C620     1.0000 0.33088  0.51387  0.66271  Biso   1.000  C
  C621     1.0000 0.25169  0.52298  0.69419  Biso   1.000  C
  C622     1.0000 0.39989  0.30199  0.67559  Biso   1.000  C
  C623     1.0000 0.48609  0.33088  0.66271  Biso   1.000  C
  C624     1.0000 0.47698  0.25169  0.69419  Biso   1.000  C
  H541     1.0000 0.71168  0.39798  0.65490  Biso   1.000  H
  H542     1.0000 0.71960  0.37938  0.68930  Biso   1.000  H
  H543     1.0000 0.66299  0.38638  0.67591  Biso   1.000  H
  H544     1.0000 0.63218  0.48100  0.66521  Biso   1.000  H
  H545     1.0000 0.67738  0.52229  0.66571  Biso   1.000  H
  H546     1.0000 0.67918  0.47560  0.64210  Biso   1.000  H
  H547     1.0000 0.75370  0.50817  0.68219  Biso   1.000  H
  H548     1.0000 0.74857  0.48547  0.71589  Biso   1.000  H
  H549     1.0000 0.77567  0.45248  0.68980  Biso   1.000  H
  H550     1.0000 0.60198  0.71168  0.65490  Biso   1.000  H
  H551     1.0000 0.62058  0.71960  0.68930  Biso   1.000  H
  H552     1.0000 0.61358  0.66299  0.67591  Biso   1.000  H
  H553     1.0000 0.51900  0.63218  0.66521  Biso   1.000  H
  H554     1.0000 0.47771  0.67738  0.66571  Biso   1.000  H
  H555     1.0000 0.52440  0.67918  0.64210  Biso   1.000  H
  H556     1.0000 0.49179  0.75370  0.68219  Biso   1.000  H
  H557     1.0000 0.51449  0.74857  0.71589  Biso   1.000  H
  H558     1.0000 0.54748  0.77567  0.68980  Biso   1.000  H
  H559     1.0000 0.28828  0.60198  0.65490  Biso   1.000  H
  H560     1.0000 0.28040  0.62058  0.68930  Biso   1.000  H
  H561     1.0000 0.33701  0.61358  0.67591  Biso   1.000  H
  H562     1.0000 0.36778  0.51900  0.66521  Biso   1.000  H
  H563     1.0000 0.32258  0.47771  0.66571  Biso   1.000  H
  H564     1.0000 0.32078  0.52440  0.64210  Biso   1.000  H
  H565     1.0000 0.24630  0.49179  0.68219  Biso   1.000  H
  H566     1.0000 0.25139  0.51449  0.71589  Biso   1.000  H
  H567     1.0000 0.22429  0.54748  0.68980  Biso   1.000  H
  H568     1.0000 0.39798  0.28828  0.65490  Biso   1.000  H
  H569     1.0000 0.37938  0.28040  0.68930  Biso   1.000  H
  H570     1.0000 0.38638  0.33701  0.67591  Biso   1.000  H
  H571     1.0000 0.48100  0.36778  0.66521  Biso   1.000  H
  H572     1.0000 0.52229  0.32258  0.66571  Biso   1.000  H
  H573     1.0000 0.47560  0.32078  0.64210  Biso   1.000  H
  H574     1.0000 0.50817  0.24630  0.68219  Biso   1.000  H
  H575     1.0000 0.48547  0.25139  0.71589  Biso   1.000  H
  H576     1.0000 0.45248  0.22429  0.68980  Biso   1.000  H
