data_image0
_cell_length_a       37.756
_cell_length_b       11.914
_cell_length_c       27.853
_cell_angle_alpha    90
_cell_angle_beta     129.97
_cell_angle_gamma    90

_symmetry_space_group_name_H-M    "P 1"
_symmetry_int_tables_number       1

loop_
  _symmetry_equiv_pos_as_xyz
  'x, y, z'

loop_
  _atom_site_label
  _atom_site_occupancy
  _atom_site_fract_x
  _atom_site_fract_y
  _atom_site_fract_z
  _atom_site_thermal_displace_type
  _atom_site_B_iso_or_equiv
  _atom_site_type_symbol
  C1       1.0000 0.54073  0.46878  0.40916  Biso   1.000  C
  O1       1.0000 0.55760  0.40138  0.38518  Biso   1.000  O
  H1       1.0000 0.54551  0.43000  0.44439  Biso   1.000  H
  H2       1.0000 0.55721  0.54155  0.42444  Biso   1.000  H
  C2       1.0000 0.48976  0.48674  0.35576  Biso   1.000  C
  C3       1.0000 0.60468  0.39802  0.41806  Biso   1.000  C
  H3       1.0000 0.47411  0.41304  0.34039  Biso   1.000  H
  H4       1.0000 0.47632  0.52929  0.37122  Biso   1.000  H
  C4       1.0000 0.48112  0.55086  0.30170  Biso   1.000  C
  C5       1.0000 0.61857  0.35076  0.38658  Biso   1.000  C
  C6       1.0000 0.63698  0.43730  0.47868  Biso   1.000  C
  H5       1.0000 0.49539  0.50839  0.28750  Biso   1.000  H
  H6       1.0000 0.49720  0.62406  0.31781  Biso   1.000  H
  C7       1.0000 0.43145  0.57244  0.24590  Biso   1.000  C
  C8       1.0000 0.58379  0.29747  0.32240  Biso   1.000  C
  C9       1.0000 0.66526  0.35488  0.41535  Biso   1.000  C
  C10      1.0000 0.68396  0.43789  0.50862  Biso   1.000  C
  H7       1.0000 0.62703  0.46450  0.50033  Biso   1.000  H
  Br1      1.0000 0.40396  0.67962  0.26647  Biso   1.000  Br
  H8       1.0000 0.42949  0.60240  0.21109  Biso   1.000  H
  H9       1.0000 0.41401  0.50109  0.23180  Biso   1.000  H
  Br2      1.0000 0.39509  0.64621  0.26352  Biso   1.000  Br
  H10      1.0000 0.43050  0.61927  0.21568  Biso   1.000  H
  H11      1.0000 0.41660  0.49992  0.22519  Biso   1.000  H
  C11      1.0000 0.56945  0.17945  0.32456  Biso   1.000  C
  H12      1.0000 0.55592  0.34548  0.29673  Biso   1.000  H
  H13      1.0000 0.59730  0.29470  0.30151  Biso   1.000  H
  C12      1.0000 0.69767  0.40079  0.47512  Biso   1.000  C
  H14      1.0000 0.67523  0.32600  0.39403  Biso   1.000  H
  C13      1.0000 0.71915  0.47583  0.57613  Biso   1.000  C
  C14      1.0000 0.53508  0.16468  0.32877  Biso   1.000  C
  C15      1.0000 0.58957  0.08469  0.32179  Biso   1.000  C
  O2       1.0000 0.74378  0.41355  0.50436  Biso   1.000  O
  C16      1.0000 0.73062  0.38299  0.62157  Biso   1.000  C
  H15      1.0000 0.74771  0.49958  0.58442  Biso   1.000  H
  H16      1.0000 0.70681  0.54138  0.58301  Biso   1.000  H
  C17      1.0000 0.52101  0.05859  0.33065  Biso   1.000  C
  H17      1.0000 0.52092  0.22872  0.33041  Biso   1.000  H
  C18      1.0000 0.57460  0.97851  0.32236  Biso   1.000  C
  O3       1.0000 0.62362  0.10206  0.31748  Biso   1.000  O
  C19      1.0000 0.75812  0.38686  0.46894  Biso   1.000  C
  C20      1.0000 0.76689  0.30888  0.64434  Biso   1.000  C
  C21      1.0000 0.70414  0.36461  0.63979  Biso   1.000  C
  O4       1.0000 0.48741  0.03987  0.33599  Biso   1.000  O
  C22      1.0000 0.54054  0.96382  0.32676  Biso   1.000  C
  H18      1.0000 0.58820  0.91439  0.31959  Biso   1.000  H
  C23      1.0000 0.64277  0.00478  0.31261  Biso   1.000  C
  H19      1.0000 0.75700  0.30468  0.46290  Biso   1.000  H
  H20      1.0000 0.73720  0.42295  0.42720  Biso   1.000  H
  C24      1.0000 0.80692  0.42933  0.50492  Biso   1.000  C
  C25      1.0000 0.77640  0.22058  0.68369  Biso   1.000  C
  H21      1.0000 0.78551  0.31887  0.63272  Biso   1.000  H
  O5       1.0000 0.66859  0.44032  0.61637  Biso   1.000  O
  C26      1.0000 0.71384  0.27724  0.67910  Biso   1.000  C
  C27      1.0000 0.46843  0.13547  0.34194  Biso   1.000  C
  C28      1.0000 0.52642  0.84615  0.32934  Biso   1.000  C
  H22      1.0000 0.66430  0.02703  0.30591  Biso   1.000  H
  H23      1.0000 0.61792  0.95912  0.27710  Biso   1.000  H
  H24      1.0000 0.65931  0.96089  0.35131  Biso   1.000  H
  H25      1.0000 0.80671  0.51234  0.50379  Biso   1.000  H
  H26      1.0000 0.82602  0.40549  0.54924  Biso   1.000  H
  C29      1.0000 0.82810  0.38417  0.47695  Biso   1.000  C
  O6       1.0000 0.81172  0.14596  0.70271  Biso   1.000  O
  C30      1.0000 0.75034  0.20363  0.70191  Biso   1.000  C
  C31      1.0000 0.63785  0.41766  0.62789  Biso   1.000  C
  H27      1.0000 0.69531  0.26700  0.69081  Biso   1.000  H
  H28      1.0000 0.45171  0.18038  0.30352  Biso   1.000  H
  H29      1.0000 0.44712  0.11197  0.34882  Biso   1.000  H
  H30      1.0000 0.49340  0.18071  0.37759  Biso   1.000  H
  H31      1.0000 0.53030  0.79444  0.30521  Biso   1.000  H
  H32      1.0000 0.49341  0.84598  0.30980  Biso   1.000  H
  C32      1.0000 0.55529  0.80536  0.39628  Biso   1.000  C
  H33      1.0000 0.80750  0.40196  0.43170  Biso   1.000  H
  H34      1.0000 0.83104  0.30149  0.48164  Biso   1.000  H
  C33      1.0000 0.87486  0.43512  0.50928  Biso   1.000  C
  C34      1.0000 0.85594  0.18390  0.75630  Biso   1.000  C
  C35      1.0000 0.75911  0.10567  0.74304  Biso   1.000  C
  H35      1.0000 0.65501  0.41682  0.67310  Biso   1.000  H
  H36      1.0000 0.61402  0.47616  0.60840  Biso   1.000  H
  H37      1.0000 0.62311  0.34447  0.61000  Biso   1.000  H
  C36      1.0000 0.59890  0.75894  0.42673  Biso   1.000  C
  C37      1.0000 0.54003  0.81845  0.42959  Biso   1.000  C
  Br3      1.0000 0.90819  0.35723  0.48740  Biso   1.000  Br
  H38      1.0000 0.87114  0.51511  0.49724  Biso   1.000  H
  H39      1.0000 0.89311  0.43159  0.55523  Biso   1.000  H
  H40      1.0000 0.85482  0.20379  0.78942  Biso   1.000  H
  H41      1.0000 0.87873  0.12406  0.77124  Biso   1.000  H
  H42      1.0000 0.86485  0.24996  0.74524  Biso   1.000  H
  C38      1.0000 0.72860  0.00579  0.70421  Biso   1.000  C
  H43      1.0000 0.79192  0.08318  0.76942  Biso   1.000  H
  H44      1.0000 0.75292  0.12943  0.77124  Biso   1.000  H
  O7       1.0000 0.61166  0.74391  0.39038  Biso   1.000  O
  C39      1.0000 0.62653  0.73065  0.48960  Biso   1.000  C
  C40      1.0000 0.56758  0.78916  0.49236  Biso   1.000  C
  H45      1.0000 0.51001  0.84808  0.40912  Biso   1.000  H
  C41      1.0000 0.74398  0.92706  0.68425  Biso   1.000  C
  C42      1.0000 0.68559  0.99169  0.68678  Biso   1.000  C
  C43      1.0000 0.65718  0.70656  0.42059  Biso   1.000  C
  H46      1.0000 0.65633  0.70010  0.50984  Biso   1.000  H
  C44      1.0000 0.61189  0.74576  0.52366  Biso   1.000  C
  O8       1.0000 0.55398  0.80107  0.52755  Biso   1.000  O
  C45      1.0000 0.71681  0.83540  0.64808  Biso   1.000  C
  H47      1.0000 0.77354  0.93613  0.69554  Biso   1.000  H
  C46      1.0000 0.65846  0.89911  0.65127  Biso   1.000  C
  O9       1.0000 0.67099  0.07277  0.70650  Biso   1.000  O
  H48      1.0000 0.66162  0.63195  0.43863  Biso   1.000  H
  H49      1.0000 0.66211  0.70253  0.39010  Biso   1.000  H
  H50      1.0000 0.67931  0.75927  0.45400  Biso   1.000  H
  C47      1.0000 0.64333  0.71999  0.59285  Biso   1.000  C
  C48      1.0000 0.50878  0.84027  0.49503  Biso   1.000  C
  C49      1.0000 0.67375  0.81988  0.63202  Biso   1.000  C
  O10      1.0000 0.72977  0.75491  0.62682  Biso   1.000  O
  H51      1.0000 0.62891  0.89038  0.64012  Biso   1.000  H
  C50      1.0000 0.62345  0.08150  0.67352  Biso   1.000  C
  H52      1.0000 0.62443  0.69926  0.60461  Biso   1.000  H
  H53      1.0000 0.66313  0.65494  0.60194  Biso   1.000  H
  H54      1.0000 0.48852  0.80812  0.45273  Biso   1.000  H
  H55      1.0000 0.49784  0.81769  0.51733  Biso   1.000  H
  H56      1.0000 0.50842  0.92228  0.49222  Biso   1.000  H
  C51      1.0000 0.77507  0.76389  0.64696  Biso   1.000  C
  H57      1.0000 0.61271  0.01460  0.68120  Biso   1.000  H
  H58      1.0000 0.61723  0.14831  0.68762  Biso   1.000  H
  H59      1.0000 0.60711  0.08780  0.62860  Biso   1.000  H
  H60      1.0000 0.79773  0.76263  0.69282  Biso   1.000  H
  H61      1.0000 0.78094  0.70060  0.63033  Biso   1.000  H
  H62      1.0000 0.77793  0.83440  0.63164  Biso   1.000  H
  C52      1.0000 0.45928  0.53114  0.59084  Biso   1.000  C
  O11      1.0000 0.44241  0.59862  0.61482  Biso   1.000  O
  H63      1.0000 0.45453  0.57000  0.55561  Biso   1.000  H
  H64      1.0000 0.44282  0.45837  0.57561  Biso   1.000  H
  C53      1.0000 0.51025  0.51318  0.64424  Biso   1.000  C
  C54      1.0000 0.39533  0.60198  0.58194  Biso   1.000  C
  H65      1.0000 0.52593  0.58687  0.65961  Biso   1.000  H
  H66      1.0000 0.52374  0.47071  0.62883  Biso   1.000  H
  C55      1.0000 0.51889  0.44905  0.69830  Biso   1.000  C
  C56      1.0000 0.36303  0.56262  0.52132  Biso   1.000  C
  C57      1.0000 0.38146  0.64915  0.61346  Biso   1.000  C
  H67      1.0000 0.50462  0.49161  0.71250  Biso   1.000  H
  H68      1.0000 0.50283  0.37586  0.68224  Biso   1.000  H
  C58      1.0000 0.56858  0.42748  0.75415  Biso   1.000  C
  C59      1.0000 0.31608  0.56211  0.49143  Biso   1.000  C
  H69      1.0000 0.37303  0.53550  0.49972  Biso   1.000  H
  C60      1.0000 0.33477  0.64512  0.58470  Biso   1.000  C
  C61      1.0000 0.41622  0.70245  0.67760  Biso   1.000  C
  Br4      1.0000 0.59608  0.32038  0.73358  Biso   1.000  Br
  H70      1.0000 0.57052  0.39760  0.78891  Biso   1.000  H
  H71      1.0000 0.58602  0.49891  0.76820  Biso   1.000  H
  Br5      1.0000 0.60494  0.35379  0.73653  Biso   1.000  Br
  H72      1.0000 0.56953  0.38064  0.78432  Biso   1.000  H
  H73      1.0000 0.58341  0.50008  0.77481  Biso   1.000  H
  C62      1.0000 0.28089  0.52417  0.42387  Biso   1.000  C
  C63      1.0000 0.30234  0.59913  0.52488  Biso   1.000  C
  H74      1.0000 0.32482  0.67400  0.60601  Biso   1.000  H
  H75      1.0000 0.44412  0.65444  0.70332  Biso   1.000  H
  H76      1.0000 0.40273  0.70530  0.69854  Biso   1.000  H
  C64      1.0000 0.43056  0.82046  0.67544  Biso   1.000  C
  C65      1.0000 0.26944  0.61701  0.37848  Biso   1.000  C
  H77      1.0000 0.25232  0.50042  0.41563  Biso   1.000  H
  H78      1.0000 0.29322  0.45862  0.41703  Biso   1.000  H
  O12      1.0000 0.25625  0.58637  0.49569  Biso   1.000  O
  C66      1.0000 0.41047  0.91523  0.67825  Biso   1.000  C
  C67      1.0000 0.46493  0.83532  0.67123  Biso   1.000  C
  C68      1.0000 0.29587  0.63539  0.36021  Biso   1.000  C
  C69      1.0000 0.23314  0.69112  0.35571  Biso   1.000  C
  C70      1.0000 0.24192  0.61314  0.53106  Biso   1.000  C
  O13      1.0000 0.37641  0.89785  0.68256  Biso   1.000  O
  C71      1.0000 0.42546  0.02140  0.67769  Biso   1.000  C
  C72      1.0000 0.47905  0.94141  0.66940  Biso   1.000  C
  H79      1.0000 0.47914  0.77128  0.66963  Biso   1.000  H
  O14      1.0000 0.33144  0.55959  0.38368  Biso   1.000  O
  C73      1.0000 0.28619  0.72268  0.32095  Biso   1.000  C
  C74      1.0000 0.22361  0.77934  0.31631  Biso   1.000  C
  H80      1.0000 0.21452  0.68105  0.36733  Biso   1.000  H
  H81      1.0000 0.24301  0.69523  0.53710  Biso   1.000  H
  H82      1.0000 0.26281  0.57697  0.57280  Biso   1.000  H
  C75      1.0000 0.19314  0.57059  0.49513  Biso   1.000  C
  C76      1.0000 0.35726  0.99513  0.68744  Biso   1.000  C
  H83      1.0000 0.41181  0.08561  0.68041  Biso   1.000  H
  C77      1.0000 0.45950  0.03609  0.67329  Biso   1.000  C
  O15      1.0000 0.51265  0.96013  0.66406  Biso   1.000  O
  C78      1.0000 0.36221  0.58226  0.37215  Biso   1.000  C
  C79      1.0000 0.24967  0.79637  0.29809  Biso   1.000  C
  H84      1.0000 0.30470  0.73300  0.30919  Biso   1.000  H
  O16      1.0000 0.18832  0.85404  0.29734  Biso   1.000  O
  H85      1.0000 0.19330  0.48758  0.49621  Biso   1.000  H
  H86      1.0000 0.17401  0.59451  0.45081  Biso   1.000  H
  C80      1.0000 0.17194  0.61575  0.52305  Biso   1.000  C
  H87      1.0000 0.33573  0.97297  0.69413  Biso   1.000  H
  H88      1.0000 0.38212  0.04079  0.72290  Biso   1.000  H
  H89      1.0000 0.34073  0.03911  0.64874  Biso   1.000  H
  C81      1.0000 0.47361  0.15377  0.67071  Biso   1.000  C
  C82      1.0000 0.53160  0.86445  0.65811  Biso   1.000  C
  H90      1.0000 0.34501  0.58318  0.32690  Biso   1.000  H
  H91      1.0000 0.38599  0.52375  0.39160  Biso   1.000  H
  H92      1.0000 0.37690  0.65545  0.39000  Biso   1.000  H
  C83      1.0000 0.24093  0.89424  0.25696  Biso   1.000  C
  C84      1.0000 0.14409  0.81610  0.24375  Biso   1.000  C
  H93      1.0000 0.19251  0.59795  0.56830  Biso   1.000  H
  H94      1.0000 0.16902  0.69851  0.51841  Biso   1.000  H
  C85      1.0000 0.12520  0.56488  0.49077  Biso   1.000  C
  C86      1.0000 0.44472  0.19464  0.60372  Biso   1.000  C
  H95      1.0000 0.46973  0.20547  0.69484  Biso   1.000  H
  H96      1.0000 0.50660  0.15402  0.69020  Biso   1.000  H
  H97      1.0000 0.54832  0.81954  0.69652  Biso   1.000  H
  H98      1.0000 0.55292  0.88795  0.65122  Biso   1.000  H
  H99      1.0000 0.50661  0.81929  0.62241  Biso   1.000  H
  C87      1.0000 0.27146  0.99421  0.29584  Biso   1.000  C
  H100     1.0000 0.20811  0.91674  0.23063  Biso   1.000  H
  H101     1.0000 0.24711  0.87057  0.22880  Biso   1.000  H
  H102     1.0000 0.14521  0.79621  0.21062  Biso   1.000  H
  H103     1.0000 0.12130  0.87586  0.22880  Biso   1.000  H
  H104     1.0000 0.13521  0.74996  0.25480  Biso   1.000  H
  Br6      1.0000 0.09182  0.64269  0.51260  Biso   1.000  Br
  H105     1.0000 0.12892  0.48489  0.50281  Biso   1.000  H
  H106     1.0000 0.10692  0.56841  0.44481  Biso   1.000  H
  C88      1.0000 0.40115  0.24106  0.57332  Biso   1.000  C
  C89      1.0000 0.45998  0.18155  0.57041  Biso   1.000  C
  C90      1.0000 0.25605  0.07294  0.31580  Biso   1.000  C
  C91      1.0000 0.31442  0.00823  0.31322  Biso   1.000  C
  C92      1.0000 0.37348  0.26926  0.51040  Biso   1.000  C
  O17      1.0000 0.38835  0.25609  0.60962  Biso   1.000  O
  C93      1.0000 0.43243  0.21076  0.50764  Biso   1.000  C
  H107     1.0000 0.49002  0.15192  0.59093  Biso   1.000  H
  C94      1.0000 0.28320  0.16451  0.35192  Biso   1.000  C
  H108     1.0000 0.22652  0.06379  0.30451  Biso   1.000  H
  O18      1.0000 0.32902  0.92723  0.29350  Biso   1.000  O
  C95      1.0000 0.34160  0.10081  0.34878  Biso   1.000  C
  C96      1.0000 0.38817  0.25424  0.47639  Biso   1.000  C
  H109     1.0000 0.34371  0.29990  0.49021  Biso   1.000  H
  C97      1.0000 0.34283  0.29335  0.57941  Biso   1.000  C
  O19      1.0000 0.44608  0.19893  0.47250  Biso   1.000  O
  O20      1.0000 0.27029  0.24509  0.37323  Biso   1.000  O
  C98      1.0000 0.32628  0.18004  0.36803  Biso   1.000  C
  C99      1.0000 0.37658  0.91850  0.32652  Biso   1.000  C
  H110     1.0000 0.37112  0.10962  0.35993  Biso   1.000  H
  C100     1.0000 0.35670  0.28001  0.40720  Biso   1.000  C
  H111     1.0000 0.33841  0.36797  0.56142  Biso   1.000  H
  H112     1.0000 0.33792  0.29738  0.60990  Biso   1.000  H
  H113     1.0000 0.32073  0.24073  0.54600  Biso   1.000  H
  C101     1.0000 0.49126  0.15973  0.50501  Biso   1.000  C
  C102     1.0000 0.22496  0.23611  0.35304  Biso   1.000  C
  H114     1.0000 0.38730  0.98540  0.31879  Biso   1.000  H
  H115     1.0000 0.38283  0.85169  0.31242  Biso   1.000  H
  H116     1.0000 0.39290  0.91212  0.37140  Biso   1.000  H
  H117     1.0000 0.37561  0.30065  0.39539  Biso   1.000  H
  H118     1.0000 0.33690  0.34497  0.39811  Biso   1.000  H
  H119     1.0000 0.51152  0.19179  0.54732  Biso   1.000  H
  H120     1.0000 0.50222  0.18231  0.48271  Biso   1.000  H
  H121     1.0000 0.49161  0.07772  0.50782  Biso   1.000  H
  H122     1.0000 0.20232  0.23728  0.30722  Biso   1.000  H
  H123     1.0000 0.21912  0.29940  0.36972  Biso   1.000  H
  H124     1.0000 0.22210  0.16560  0.36841  Biso   1.000  H
  C103     1.0000 0.62520  0.06488  0.49077  Biso   1.000  C
  Br7      1.0000 0.59182  0.14277  0.51260  Biso   1.000  Br
  C104     1.0000 0.67194  0.11583  0.52305  Biso   1.000  C
  H125     1.0000 0.60692  0.06841  0.44481  Biso   1.000  H
  H126     1.0000 0.62892  0.98489  0.50281  Biso   1.000  H
  C105     1.0000 0.69314  0.07067  0.49513  Biso   1.000  C
  H127     1.0000 0.69251  0.09804  0.56830  Biso   1.000  H
  H128     1.0000 0.66902  0.19851  0.51841  Biso   1.000  H
  C106     1.0000 0.74192  0.11314  0.53106  Biso   1.000  C
  H129     1.0000 0.67401  0.09451  0.45081  Biso   1.000  H
  H130     1.0000 0.69330  0.98758  0.49621  Biso   1.000  H
  O21      1.0000 0.75625  0.08645  0.49569  Biso   1.000  O
  H131     1.0000 0.74301  0.19532  0.53710  Biso   1.000  H
  H132     1.0000 0.76281  0.07697  0.57280  Biso   1.000  H
  C107     1.0000 0.80234  0.09913  0.52488  Biso   1.000  C
  C108     1.0000 0.83477  0.14512  0.58470  Biso   1.000  C
  C109     1.0000 0.81608  0.06211  0.49143  Biso   1.000  C
  H133     1.0000 0.82482  0.17400  0.60601  Biso   1.000  H
  C110     1.0000 0.88146  0.14915  0.61346  Biso   1.000  C
  C111     1.0000 0.86303  0.06262  0.52132  Biso   1.000  C
  C112     1.0000 0.78089  0.02417  0.42387  Biso   1.000  C
  C113     1.0000 0.89533  0.10198  0.58194  Biso   1.000  C
  C114     1.0000 0.91622  0.20253  0.67760  Biso   1.000  C
  H134     1.0000 0.87303  0.03550  0.49972  Biso   1.000  H
  C115     1.0000 0.76944  0.11701  0.37848  Biso   1.000  C
  H135     1.0000 0.75232  0.00042  0.41563  Biso   1.000  H
  H136     1.0000 0.79322  0.95854  0.41703  Biso   1.000  H
  O22      1.0000 0.94241  0.09862  0.61482  Biso   1.000  O
  H137     1.0000 0.94412  0.15452  0.70332  Biso   1.000  H
  H138     1.0000 0.90273  0.20530  0.69854  Biso   1.000  H
  C116     1.0000 0.93056  0.32046  0.67544  Biso   1.000  C
  C117     1.0000 0.73314  0.19112  0.35571  Biso   1.000  C
  C118     1.0000 0.79587  0.13539  0.36021  Biso   1.000  C
  C119     1.0000 0.95928  0.03122  0.59084  Biso   1.000  C
  C120     1.0000 0.91047  0.41523  0.67825  Biso   1.000  C
  C121     1.0000 0.96493  0.33532  0.67123  Biso   1.000  C
  C122     1.0000 0.72361  0.27934  0.31631  Biso   1.000  C
  H139     1.0000 0.71452  0.18113  0.36733  Biso   1.000  H
  O23      1.0000 0.83144  0.05959  0.38368  Biso   1.000  O
  C123     1.0000 0.78619  0.22276  0.32095  Biso   1.000  C
  H140     1.0000 0.95453  0.07000  0.55561  Biso   1.000  H
  H141     1.0000 0.94282  0.95837  0.57561  Biso   1.000  H
  C124     1.0000 0.01025  0.01318  0.64424  Biso   1.000  C
  O24      1.0000 0.87641  0.39794  0.68256  Biso   1.000  O
  C125     1.0000 0.92546  0.52140  0.67769  Biso   1.000  C
  C126     1.0000 0.97905  0.44141  0.66940  Biso   1.000  C
  H142     1.0000 0.97914  0.27128  0.66963  Biso   1.000  H
  O25      1.0000 0.68832  0.35404  0.29734  Biso   1.000  O
  C127     1.0000 0.74967  0.29637  0.29809  Biso   1.000  C
  C128     1.0000 0.86221  0.08226  0.37215  Biso   1.000  C
  H143     1.0000 0.80470  0.23300  0.30919  Biso   1.000  H
  H144     1.0000 0.02374  0.97062  0.62883  Biso   1.000  H
  C129     1.0000 0.01889  0.94905  0.69830  Biso   1.000  C
  H145     1.0000 0.02593  0.08687  0.65961  Biso   1.000  H
  C130     1.0000 0.85726  0.49522  0.68744  Biso   1.000  C
  H146     1.0000 0.91181  0.58561  0.68041  Biso   1.000  H
  C131     1.0000 0.95950  0.53609  0.67329  Biso   1.000  C
  O26      1.0000 0.01265  0.46013  0.66406  Biso   1.000  O
  C132     1.0000 0.64409  0.31610  0.24375  Biso   1.000  C
  C133     1.0000 0.74093  0.39424  0.25696  Biso   1.000  C
  H147     1.0000 0.84501  0.08318  0.32690  Biso   1.000  H
  H148     1.0000 0.88599  0.02384  0.39160  Biso   1.000  H
  H149     1.0000 0.87690  0.15553  0.39000  Biso   1.000  H
  H150     1.0000 0.00462  0.99152  0.71250  Biso   1.000  H
  H151     1.0000 0.00283  0.87586  0.68224  Biso   1.000  H
  C134     1.0000 0.06858  0.92748  0.75415  Biso   1.000  C
  H152     1.0000 0.88212  0.54079  0.72290  Biso   1.000  H
  H153     1.0000 0.83573  0.47297  0.69413  Biso   1.000  H
  H154     1.0000 0.84073  0.53911  0.64874  Biso   1.000  H
  C135     1.0000 0.97361  0.65377  0.67071  Biso   1.000  C
  C136     1.0000 0.03160  0.36445  0.65811  Biso   1.000  C
  H155     1.0000 0.64521  0.29621  0.21062  Biso   1.000  H
  H156     1.0000 0.62130  0.37586  0.22880  Biso   1.000  H
  H157     1.0000 0.63521  0.24996  0.25480  Biso   1.000  H
  C137     1.0000 0.77146  0.49421  0.29584  Biso   1.000  C
  H158     1.0000 0.70811  0.41682  0.23063  Biso   1.000  H
  H159     1.0000 0.74711  0.37057  0.22880  Biso   1.000  H
  Br8      1.0000 0.09608  0.82030  0.73358  Biso   1.000  Br
  H160     1.0000 0.07052  0.89760  0.78891  Biso   1.000  H
  H161     1.0000 0.08602  0.99882  0.76820  Biso   1.000  H
  Br9      1.0000 0.10494  0.85379  0.73653  Biso   1.000  Br
  H162     1.0000 0.06953  0.88064  0.78432  Biso   1.000  H
  H163     1.0000 0.08341  0.00008  0.77481  Biso   1.000  H
  H164     1.0000 0.96973  0.70547  0.69484  Biso   1.000  H
  C138     1.0000 0.94472  0.69456  0.60372  Biso   1.000  C
  H165     1.0000 0.00660  0.65394  0.69020  Biso   1.000  H
  H166     1.0000 0.04832  0.31962  0.69652  Biso   1.000  H
  H167     1.0000 0.05292  0.38795  0.65122  Biso   1.000  H
  H168     1.0000 0.00661  0.31929  0.62241  Biso   1.000  H
  C139     1.0000 0.75605  0.57294  0.31580  Biso   1.000  C
  C140     1.0000 0.81442  0.50823  0.31322  Biso   1.000  C
  C141     1.0000 0.90115  0.74098  0.57332  Biso   1.000  C
  C142     1.0000 0.95998  0.68155  0.57041  Biso   1.000  C
  C143     1.0000 0.78320  0.66451  0.35192  Biso   1.000  C
  H169     1.0000 0.72652  0.56379  0.30451  Biso   1.000  H
  O27      1.0000 0.82902  0.42723  0.29350  Biso   1.000  O
  C144     1.0000 0.84160  0.60081  0.34878  Biso   1.000  C
  O28      1.0000 0.88835  0.75609  0.60962  Biso   1.000  O
  C145     1.0000 0.87348  0.76926  0.51040  Biso   1.000  C
  C146     1.0000 0.93243  0.71076  0.50764  Biso   1.000  C
  H170     1.0000 0.99002  0.65184  0.59093  Biso   1.000  H
  O29      1.0000 0.77029  0.74501  0.37323  Biso   1.000  O
  C147     1.0000 0.82628  0.68004  0.36803  Biso   1.000  C
  C148     1.0000 0.87658  0.41850  0.32652  Biso   1.000  C
  H171     1.0000 0.87112  0.60954  0.35993  Biso   1.000  H
  C149     1.0000 0.84283  0.79335  0.57941  Biso   1.000  C
  H172     1.0000 0.84371  0.79990  0.49021  Biso   1.000  H
  C150     1.0000 0.88817  0.75424  0.47639  Biso   1.000  C
  O30      1.0000 0.94608  0.69884  0.47250  Biso   1.000  O
  C151     1.0000 0.72496  0.73611  0.35304  Biso   1.000  C
  C152     1.0000 0.85670  0.77992  0.40720  Biso   1.000  C
  H173     1.0000 0.88730  0.48540  0.31879  Biso   1.000  H
  H174     1.0000 0.88283  0.35169  0.31242  Biso   1.000  H
  H175     1.0000 0.89290  0.41220  0.37140  Biso   1.000  H
  H176     1.0000 0.83841  0.86797  0.56142  Biso   1.000  H
  H177     1.0000 0.83792  0.79738  0.60990  Biso   1.000  H
  H178     1.0000 0.82073  0.74064  0.54600  Biso   1.000  H
  C153     1.0000 0.99126  0.65964  0.50501  Biso   1.000  C
  H179     1.0000 0.70232  0.73728  0.30722  Biso   1.000  H
  H180     1.0000 0.71912  0.79940  0.36972  Biso   1.000  H
  H181     1.0000 0.72210  0.66560  0.36841  Biso   1.000  H
  H182     1.0000 0.87561  0.80065  0.39539  Biso   1.000  H
  H183     1.0000 0.83690  0.84497  0.39811  Biso   1.000  H
  H184     1.0000 0.99161  0.57764  0.50782  Biso   1.000  H
  H185     1.0000 0.01152  0.69179  0.54732  Biso   1.000  H
  H186     1.0000 0.00222  0.68231  0.48271  Biso   1.000  H
  C154     1.0000 0.37486  0.93503  0.50928  Biso   1.000  C
  C155     1.0000 0.32810  0.88417  0.47695  Biso   1.000  C
  Br10     1.0000 0.40819  0.85723  0.48740  Biso   1.000  Br
  H187     1.0000 0.39311  0.93159  0.55523  Biso   1.000  H
  H188     1.0000 0.37114  0.01511  0.49724  Biso   1.000  H
  C156     1.0000 0.30692  0.92933  0.50492  Biso   1.000  C
  H189     1.0000 0.30750  0.90196  0.43170  Biso   1.000  H
  H190     1.0000 0.33104  0.80149  0.48164  Biso   1.000  H
  C157     1.0000 0.25812  0.88686  0.46894  Biso   1.000  C
  H191     1.0000 0.32602  0.90549  0.54924  Biso   1.000  H
  H192     1.0000 0.30671  0.01242  0.50379  Biso   1.000  H
  O31      1.0000 0.24378  0.91355  0.50436  Biso   1.000  O
  H193     1.0000 0.25700  0.80468  0.46290  Biso   1.000  H
  H194     1.0000 0.23720  0.92295  0.42720  Biso   1.000  H
  C158     1.0000 0.19767  0.90079  0.47512  Biso   1.000  C
  C159     1.0000 0.16526  0.85479  0.41535  Biso   1.000  C
  C160     1.0000 0.18396  0.93789  0.50862  Biso   1.000  C
  C161     1.0000 0.11857  0.85076  0.38658  Biso   1.000  C
  H195     1.0000 0.17523  0.82600  0.39403  Biso   1.000  H
  C162     1.0000 0.13698  0.93730  0.47868  Biso   1.000  C
  C163     1.0000 0.21915  0.97583  0.57613  Biso   1.000  C
  C164     1.0000 0.08379  0.79747  0.32240  Biso   1.000  C
  C165     1.0000 0.10468  0.89802  0.41806  Biso   1.000  C
  H196     1.0000 0.12703  0.96450  0.50033  Biso   1.000  H
  C166     1.0000 0.23062  0.88299  0.62157  Biso   1.000  C
  H197     1.0000 0.24771  0.99958  0.58442  Biso   1.000  H
  H198     1.0000 0.20681  0.04138  0.58301  Biso   1.000  H
  C167     1.0000 0.06945  0.67945  0.32456  Biso   1.000  C
  H199     1.0000 0.05592  0.84548  0.29673  Biso   1.000  H
  H200     1.0000 0.09730  0.79470  0.30151  Biso   1.000  H
  O32      1.0000 0.05760  0.90129  0.38518  Biso   1.000  O
  C168     1.0000 0.26689  0.80888  0.64434  Biso   1.000  C
  C169     1.0000 0.20414  0.86461  0.63979  Biso   1.000  C
  C170     1.0000 0.08957  0.58469  0.32179  Biso   1.000  C
  C171     1.0000 0.03508  0.66460  0.32877  Biso   1.000  C
  C172     1.0000 0.04073  0.96878  0.40916  Biso   1.000  C
  C173     1.0000 0.27640  0.72058  0.68369  Biso   1.000  C
  H201     1.0000 0.28551  0.81887  0.63272  Biso   1.000  H
  O33      1.0000 0.16859  0.94032  0.61637  Biso   1.000  O
  C174     1.0000 0.21384  0.77724  0.67910  Biso   1.000  C
  O34      1.0000 0.12362  0.60206  0.31748  Biso   1.000  O
  C175     1.0000 0.07460  0.47851  0.32236  Biso   1.000  C
  C176     1.0000 0.02101  0.55859  0.33065  Biso   1.000  C
  H202     1.0000 0.02092  0.72864  0.33041  Biso   1.000  H
  H203     1.0000 0.04551  0.93000  0.44439  Biso   1.000  H
  C177     1.0000 0.98976  0.98674  0.35576  Biso   1.000  C
  H204     1.0000 0.05721  0.04163  0.42444  Biso   1.000  H
  O35      1.0000 0.31172  0.64596  0.70271  Biso   1.000  O
  C178     1.0000 0.25034  0.70363  0.70191  Biso   1.000  C
  C179     1.0000 0.13785  0.91766  0.62789  Biso   1.000  C
  H205     1.0000 0.19531  0.76700  0.69081  Biso   1.000  H
  C180     1.0000 0.14277  0.50478  0.31261  Biso   1.000  C
  H206     1.0000 0.08820  0.41439  0.31959  Biso   1.000  H
  C181     1.0000 0.04054  0.46391  0.32676  Biso   1.000  C
  O36      1.0000 0.98741  0.53987  0.33599  Biso   1.000  O
  H207     1.0000 0.97411  0.91304  0.34039  Biso   1.000  H
  H208     1.0000 0.97632  0.02929  0.37122  Biso   1.000  H
  C182     1.0000 0.98112  0.05086  0.30170  Biso   1.000  C
  C183     1.0000 0.35594  0.68390  0.75630  Biso   1.000  C
  C184     1.0000 0.25911  0.60567  0.74304  Biso   1.000  C
  H209     1.0000 0.15501  0.91674  0.67310  Biso   1.000  H
  H210     1.0000 0.11402  0.97616  0.60840  Biso   1.000  H
  H211     1.0000 0.12311  0.84447  0.61000  Biso   1.000  H
  H212     1.0000 0.11792  0.45921  0.27710  Biso   1.000  H
  H213     1.0000 0.16430  0.52694  0.30591  Biso   1.000  H
  H214     1.0000 0.15931  0.46089  0.35131  Biso   1.000  H
  C185     1.0000 0.02642  0.34623  0.32934  Biso   1.000  C
  C186     1.0000 0.96843  0.63547  0.34194  Biso   1.000  C
  H215     1.0000 0.99539  0.00839  0.28750  Biso   1.000  H
  H216     1.0000 0.99720  0.12406  0.31781  Biso   1.000  H
  C187     1.0000 0.93145  0.07252  0.24590  Biso   1.000  C
  H217     1.0000 0.35482  0.70379  0.78942  Biso   1.000  H
  H218     1.0000 0.37873  0.62406  0.77124  Biso   1.000  H
  H219     1.0000 0.36485  0.74996  0.74524  Biso   1.000  H
  C188     1.0000 0.22860  0.50579  0.70421  Biso   1.000  C
  H220     1.0000 0.29192  0.58318  0.76942  Biso   1.000  H
  H221     1.0000 0.25292  0.62934  0.77124  Biso   1.000  H
  H222     1.0000 0.03030  0.29453  0.30521  Biso   1.000  H
  C189     1.0000 0.05529  0.30536  0.39628  Biso   1.000  C
  H223     1.0000 0.99341  0.34598  0.30980  Biso   1.000  H
  H224     1.0000 0.95171  0.68038  0.30352  Biso   1.000  H
  H225     1.0000 0.94712  0.61197  0.34882  Biso   1.000  H
  H226     1.0000 0.99340  0.68071  0.37759  Biso   1.000  H
  H227     1.0000 0.91660  0.99983  0.22519  Biso   1.000  H
  Br11     1.0000 0.90396  0.17962  0.26647  Biso   1.000  Br
  H228     1.0000 0.92949  0.10240  0.21109  Biso   1.000  H
  H229     1.0000 0.91401  0.00109  0.23180  Biso   1.000  H
  Br12     1.0000 0.89509  0.14621  0.26352  Biso   1.000  Br
  H230     1.0000 0.93050  0.11927  0.21568  Biso   1.000  H
  C190     1.0000 0.24398  0.42706  0.68425  Biso   1.000  C
  C191     1.0000 0.18559  0.49177  0.68678  Biso   1.000  C
  C192     1.0000 0.09890  0.25894  0.42673  Biso   1.000  C
  C193     1.0000 0.04003  0.31845  0.42959  Biso   1.000  C
  C194     1.0000 0.21681  0.33549  0.64808  Biso   1.000  C
  H231     1.0000 0.27354  0.43621  0.69554  Biso   1.000  H
  C195     1.0000 0.15846  0.39919  0.65127  Biso   1.000  C
  O37      1.0000 0.17099  0.57269  0.70650  Biso   1.000  O
  O38      1.0000 0.11166  0.24391  0.39038  Biso   1.000  O
  C196     1.0000 0.12653  0.23065  0.48960  Biso   1.000  C
  C197     1.0000 0.06758  0.28916  0.49236  Biso   1.000  C
  H232     1.0000 0.01001  0.34808  0.40912  Biso   1.000  H
  C198     1.0000 0.17375  0.31988  0.63202  Biso   1.000  C
  O39      1.0000 0.22977  0.25491  0.62682  Biso   1.000  O
  H233     1.0000 0.12891  0.39038  0.64012  Biso   1.000  H
  C199     1.0000 0.12345  0.58150  0.67352  Biso   1.000  C
  C200     1.0000 0.15718  0.20656  0.42059  Biso   1.000  C
  H234     1.0000 0.15633  0.20010  0.50984  Biso   1.000  H
  C201     1.0000 0.11189  0.24576  0.52366  Biso   1.000  C
  O40      1.0000 0.05398  0.30107  0.52755  Biso   1.000  O
  C202     1.0000 0.14333  0.21999  0.59285  Biso   1.000  C
  C203     1.0000 0.27507  0.26389  0.64696  Biso   1.000  C
  H235     1.0000 0.11271  0.51460  0.68120  Biso   1.000  H
  H236     1.0000 0.11723  0.64831  0.68762  Biso   1.000  H
  H237     1.0000 0.10711  0.58780  0.62860  Biso   1.000  H
  H238     1.0000 0.16162  0.13203  0.43863  Biso   1.000  H
  H239     1.0000 0.16211  0.20262  0.39010  Biso   1.000  H
  H240     1.0000 0.17931  0.25927  0.45400  Biso   1.000  H
  C204     1.0000 0.00878  0.34027  0.49503  Biso   1.000  C
  H241     1.0000 0.12443  0.19926  0.60461  Biso   1.000  H
  H242     1.0000 0.16313  0.15503  0.60194  Biso   1.000  H
  H243     1.0000 0.29773  0.26272  0.69282  Biso   1.000  H
  H244     1.0000 0.28094  0.20060  0.63033  Biso   1.000  H
  H245     1.0000 0.27793  0.33440  0.63164  Biso   1.000  H
  H246     1.0000 0.00842  0.42228  0.49222  Biso   1.000  H
  H247     1.0000 0.98852  0.30821  0.45273  Biso   1.000  H
  H248     1.0000 0.99784  0.31769  0.51733  Biso   1.000  H
  C205     1.0000 0.41622  0.29747  0.17760  Biso   1.000  C
  C206     1.0000 0.38143  0.35076  0.11342  Biso   1.000  C
  H249     1.0000 0.44411  0.34548  0.20332  Biso   1.000  H
  H250     1.0000 0.40270  0.29470  0.19849  Biso   1.000  H
  C207     1.0000 0.43056  0.17945  0.17544  Biso   1.000  C
  C208     1.0000 0.33475  0.35488  0.08465  Biso   1.000  C
  C209     1.0000 0.39533  0.39802  0.08194  Biso   1.000  C
  C210     1.0000 0.41046  0.08469  0.17825  Biso   1.000  C
  C211     1.0000 0.46492  0.16468  0.17123  Biso   1.000  C
  C212     1.0000 0.30234  0.40079  0.02488  Biso   1.000  C
  H251     1.0000 0.32482  0.32600  0.10602  Biso   1.000  H
  C213     1.0000 0.36303  0.43730  0.02132  Biso   1.000  C
  O41      1.0000 0.44241  0.40138  0.11482  Biso   1.000  O
  O42      1.0000 0.37638  0.10206  0.18252  Biso   1.000  O
  C214     1.0000 0.42542  0.97851  0.17769  Biso   1.000  C
  C215     1.0000 0.47902  0.05859  0.16940  Biso   1.000  C
  H252     1.0000 0.47908  0.22872  0.16959  Biso   1.000  H
  O43      1.0000 0.25625  0.41355  0.99569  Biso   1.000  O
  C216     1.0000 0.31610  0.43789  0.99143  Biso   1.000  C
  H253     1.0000 0.37303  0.46450  0.99972  Biso   1.000  H
  C217     1.0000 0.45927  0.46878  0.09084  Biso   1.000  C
  C218     1.0000 0.35726  0.00478  0.18744  Biso   1.000  C
  H254     1.0000 0.41180  0.91439  0.18041  Biso   1.000  H
  C219     1.0000 0.45949  0.96382  0.17329  Biso   1.000  C
  O44      1.0000 0.51264  0.03987  0.16406  Biso   1.000  O
  C220     1.0000 0.24189  0.38686  0.03106  Biso   1.000  C
  C221     1.0000 0.28090  0.47583  0.92392  Biso   1.000  C
  H255     1.0000 0.45450  0.43000  0.05561  Biso   1.000  H
  H256     1.0000 0.44281  0.54155  0.07561  Biso   1.000  H
  C222     1.0000 0.51025  0.48674  0.14424  Biso   1.000  C
  H257     1.0000 0.33570  0.02703  0.19409  Biso   1.000  H
  H258     1.0000 0.38212  0.95912  0.22290  Biso   1.000  H
  H259     1.0000 0.34070  0.96089  0.14869  Biso   1.000  H
  C223     1.0000 0.47358  0.84615  0.17066  Biso   1.000  C
  C224     1.0000 0.53157  0.13547  0.15806  Biso   1.000  C
  C225     1.0000 0.19313  0.42933  0.99513  Biso   1.000  C
  H260     1.0000 0.24300  0.30468  0.03710  Biso   1.000  H
  H261     1.0000 0.26281  0.42295  0.07280  Biso   1.000  H
  C226     1.0000 0.26943  0.38299  0.87848  Biso   1.000  C
  H262     1.0000 0.25231  0.49958  0.91563  Biso   1.000  H
  H263     1.0000 0.29321  0.54138  0.91703  Biso   1.000  H
  H264     1.0000 0.52590  0.41304  0.15961  Biso   1.000  H
  H265     1.0000 0.52368  0.52929  0.12878  Biso   1.000  H
  C227     1.0000 0.51889  0.55086  0.19830  Biso   1.000  C
  H266     1.0000 0.46971  0.79444  0.19479  Biso   1.000  H
  H267     1.0000 0.50660  0.84598  0.19020  Biso   1.000  H
  C228     1.0000 0.44472  0.80536  0.10372  Biso   1.000  C
  H268     1.0000 0.54832  0.18038  0.19652  Biso   1.000  H
  H269     1.0000 0.55291  0.11197  0.15122  Biso   1.000  H
  H270     1.0000 0.50660  0.18071  0.12241  Biso   1.000  H
  C229     1.0000 0.17193  0.38417  0.02305  Biso   1.000  C
  H271     1.0000 0.19335  0.51234  0.99625  Biso   1.000  H
  H272     1.0000 0.17401  0.40549  0.95081  Biso   1.000  H
  C230     1.0000 0.23314  0.30888  0.85571  Biso   1.000  C
  C231     1.0000 0.29589  0.36461  0.86025  Biso   1.000  C
  H273     1.0000 0.50461  0.50839  0.21250  Biso   1.000  H
  H274     1.0000 0.50280  0.62406  0.18219  Biso   1.000  H
  C232     1.0000 0.56858  0.57244  0.25415  Biso   1.000  C
  C233     1.0000 0.40113  0.75894  0.07327  Biso   1.000  C
  C234     1.0000 0.45998  0.81845  0.07041  Biso   1.000  C
  H275     1.0000 0.19250  0.40196  0.06830  Biso   1.000  H
  H276     1.0000 0.16902  0.30149  0.01841  Biso   1.000  H
  C235     1.0000 0.12520  0.43512  0.99077  Biso   1.000  C
  C236     1.0000 0.22363  0.22058  0.81636  Biso   1.000  C
  H277     1.0000 0.21451  0.31887  0.86733  Biso   1.000  H
  O45      1.0000 0.33146  0.44032  0.88368  Biso   1.000  O
  C237     1.0000 0.28619  0.27724  0.82095  Biso   1.000  C
  Br13     1.0000 0.59605  0.67962  0.23353  Biso   1.000  Br
  H278     1.0000 0.57051  0.60240  0.28891  Biso   1.000  H
  H279     1.0000 0.58599  0.50109  0.26820  Biso   1.000  H
  Br14     1.0000 0.60492  0.64621  0.23648  Biso   1.000  Br
  H280     1.0000 0.56950  0.61927  0.28432  Biso   1.000  H
  H281     1.0000 0.58340  0.49992  0.27481  Biso   1.000  H
  O46      1.0000 0.38835  0.74391  0.10962  Biso   1.000  O
  C238     1.0000 0.37348  0.73065  0.01040  Biso   1.000  C
  C239     1.0000 0.43242  0.78916  0.00764  Biso   1.000  C
  H282     1.0000 0.48999  0.84808  0.09088  Biso   1.000  H
  Br15     1.0000 0.09181  0.35723  0.01260  Biso   1.000  Br
  H283     1.0000 0.12891  0.51511  0.00281  Biso   1.000  H
  H284     1.0000 0.10691  0.43159  0.94481  Biso   1.000  H
  O47      1.0000 0.18831  0.14596  0.79734  Biso   1.000  O
  C240     1.0000 0.24971  0.20363  0.79814  Biso   1.000  C
  C241     1.0000 0.36221  0.41766  0.87215  Biso   1.000  C
  H285     1.0000 0.30471  0.26700  0.80924  Biso   1.000  H
  C242     1.0000 0.34283  0.70656  0.07941  Biso   1.000  C
  H286     1.0000 0.34370  0.70010  0.99021  Biso   1.000  H
  C243     1.0000 0.38816  0.74576  0.97639  Biso   1.000  C
  O48      1.0000 0.44607  0.80107  0.97250  Biso   1.000  O
  C244     1.0000 0.14408  0.18390  0.74375  Biso   1.000  C
  C245     1.0000 0.24095  0.10567  0.75700  Biso   1.000  C
  H287     1.0000 0.34502  0.41682  0.82695  Biso   1.000  H
  H288     1.0000 0.38604  0.47616  0.89164  Biso   1.000  H
  H289     1.0000 0.37694  0.34447  0.89005  Biso   1.000  H
  H290     1.0000 0.33841  0.63195  0.06142  Biso   1.000  H
  H291     1.0000 0.33789  0.70253  0.10990  Biso   1.000  H
  H292     1.0000 0.32069  0.75927  0.04600  Biso   1.000  H
  C246     1.0000 0.35670  0.71999  0.90720  Biso   1.000  C
  C247     1.0000 0.49125  0.84027  0.00501  Biso   1.000  C
  H293     1.0000 0.14521  0.20379  0.71063  Biso   1.000  H
  H294     1.0000 0.12130  0.12406  0.72880  Biso   1.000  H
  H295     1.0000 0.13521  0.24996  0.75480  Biso   1.000  H
  C248     1.0000 0.27146  0.00579  0.79584  Biso   1.000  C
  H296     1.0000 0.20811  0.08318  0.73063  Biso   1.000  H
  H297     1.0000 0.24710  0.12943  0.72880  Biso   1.000  H
  C249     1.0000 0.32627  0.81988  0.86803  Biso   1.000  C
  H298     1.0000 0.37563  0.69926  0.89544  Biso   1.000  H
  H299     1.0000 0.33692  0.65494  0.89811  Biso   1.000  H
  H300     1.0000 0.50222  0.81769  0.98271  Biso   1.000  H
  H301     1.0000 0.51151  0.80812  0.04732  Biso   1.000  H
  H302     1.0000 0.49160  0.92228  0.00782  Biso   1.000  H
  C250     1.0000 0.25607  0.92706  0.81580  Biso   1.000  C
  C251     1.0000 0.31444  0.99169  0.81327  Biso   1.000  C
  C252     1.0000 0.28322  0.83540  0.85196  Biso   1.000  C
  C253     1.0000 0.34160  0.89911  0.84878  Biso   1.000  C
  H303     1.0000 0.22651  0.93613  0.80451  Biso   1.000  H
  O49      1.0000 0.32903  0.07277  0.79354  Biso   1.000  O
  O50      1.0000 0.27028  0.75491  0.87323  Biso   1.000  O
  H304     1.0000 0.37111  0.89038  0.85993  Biso   1.000  H
  C254     1.0000 0.37658  0.08150  0.82652  Biso   1.000  C
  C255     1.0000 0.22498  0.76389  0.85309  Biso   1.000  C
  H305     1.0000 0.38732  0.01460  0.81884  Biso   1.000  H
  H306     1.0000 0.38282  0.14831  0.81242  Biso   1.000  H
  H307     1.0000 0.39292  0.08780  0.87140  Biso   1.000  H
  H308     1.0000 0.20232  0.76263  0.80722  Biso   1.000  H
  H309     1.0000 0.21912  0.70060  0.86972  Biso   1.000  H
  H310     1.0000 0.22212  0.83440  0.86841  Biso   1.000  H
  C256     1.0000 0.58379  0.70245  0.82240  Biso   1.000  C
  C257     1.0000 0.61861  0.64915  0.88658  Biso   1.000  C
  H311     1.0000 0.55592  0.65444  0.79673  Biso   1.000  H
  H312     1.0000 0.59733  0.70530  0.80151  Biso   1.000  H
  C258     1.0000 0.56948  0.82046  0.82460  Biso   1.000  C
  C259     1.0000 0.60470  0.60198  0.91811  Biso   1.000  C
  C260     1.0000 0.66526  0.64512  0.91535  Biso   1.000  C
  C261     1.0000 0.58960  0.91523  0.82179  Biso   1.000  C
  C262     1.0000 0.53511  0.83532  0.82882  Biso   1.000  C
  O51      1.0000 0.55763  0.59862  0.88522  Biso   1.000  O
  C263     1.0000 0.63701  0.56262  0.97873  Biso   1.000  C
  C264     1.0000 0.69769  0.59913  0.97517  Biso   1.000  C
  H313     1.0000 0.67524  0.67400  0.89403  Biso   1.000  H
  O52      1.0000 0.62363  0.89785  0.81748  Biso   1.000  O
  C265     1.0000 0.57461  0.02140  0.82236  Biso   1.000  C
  C266     1.0000 0.52101  0.94141  0.83065  Biso   1.000  C
  H314     1.0000 0.52093  0.77128  0.83041  Biso   1.000  H
  C267     1.0000 0.54079  0.53114  0.90921  Biso   1.000  C
  H315     1.0000 0.62701  0.53550  0.00028  Biso   1.000  H
  C268     1.0000 0.68396  0.56211  0.00862  Biso   1.000  C
  O53      1.0000 0.74376  0.58637  0.00431  Biso   1.000  O
  C269     1.0000 0.64277  0.99513  0.81261  Biso   1.000  C
  H316     1.0000 0.58823  0.08561  0.81964  Biso   1.000  H
  C270     1.0000 0.54057  0.03609  0.82676  Biso   1.000  C
  O54      1.0000 0.48741  0.96013  0.83599  Biso   1.000  O
  C271     1.0000 0.48979  0.51318  0.85580  Biso   1.000  C
  H317     1.0000 0.54554  0.57000  0.94444  Biso   1.000  H
  H318     1.0000 0.55725  0.45837  0.92444  Biso   1.000  H
  C272     1.0000 0.71916  0.52417  0.07613  Biso   1.000  C
  C273     1.0000 0.75814  0.61314  0.96899  Biso   1.000  C
  H319     1.0000 0.66431  0.97297  0.80591  Biso   1.000  H
  H320     1.0000 0.61792  0.04079  0.77710  Biso   1.000  H
  H321     1.0000 0.65931  0.03911  0.85131  Biso   1.000  H
  C274     1.0000 0.52643  0.15377  0.82934  Biso   1.000  C
  C275     1.0000 0.46846  0.86445  0.84194  Biso   1.000  C
  C276     1.0000 0.48114  0.44905  0.80174  Biso   1.000  C
  H322     1.0000 0.47414  0.58687  0.84044  Biso   1.000  H
  H323     1.0000 0.47633  0.47071  0.87122  Biso   1.000  H
  C277     1.0000 0.73060  0.61701  0.12157  Biso   1.000  C
  H324     1.0000 0.74772  0.50042  0.08442  Biso   1.000  H
  H325     1.0000 0.70682  0.45862  0.08301  Biso   1.000  H
  H326     1.0000 0.75703  0.69523  0.96294  Biso   1.000  H
  H327     1.0000 0.73725  0.57697  0.92725  Biso   1.000  H
  C278     1.0000 0.80693  0.57059  0.00492  Biso   1.000  C
  H328     1.0000 0.53033  0.20547  0.80521  Biso   1.000  H
  H329     1.0000 0.49343  0.15402  0.80985  Biso   1.000  H
  C279     1.0000 0.55531  0.19464  0.89633  Biso   1.000  C
  H330     1.0000 0.45171  0.81954  0.80352  Biso   1.000  H
  H331     1.0000 0.44712  0.88795  0.84882  Biso   1.000  H
  H332     1.0000 0.49343  0.81929  0.87763  Biso   1.000  H
  C280     1.0000 0.43145  0.42748  0.74590  Biso   1.000  C
  H333     1.0000 0.49543  0.49161  0.78750  Biso   1.000  H
  H334     1.0000 0.49721  0.37586  0.81781  Biso   1.000  H
  C281     1.0000 0.76690  0.69112  0.14434  Biso   1.000  C
  C282     1.0000 0.70414  0.63539  0.13979  Biso   1.000  C
  C283     1.0000 0.82813  0.61575  0.97700  Biso   1.000  C
  H335     1.0000 0.80671  0.48758  0.00379  Biso   1.000  H
  H336     1.0000 0.82600  0.59451  0.04919  Biso   1.000  H
  C284     1.0000 0.59891  0.24106  0.92673  Biso   1.000  C
  C285     1.0000 0.54006  0.18155  0.92964  Biso   1.000  C
  Br16     1.0000 0.40396  0.32038  0.76647  Biso   1.000  Br
  H337     1.0000 0.42952  0.39760  0.71114  Biso   1.000  H
  H338     1.0000 0.41402  0.49891  0.73180  Biso   1.000  H
  Br17     1.0000 0.39512  0.35379  0.76352  Biso   1.000  Br
  H339     1.0000 0.43053  0.38064  0.71573  Biso   1.000  H
  H340     1.0000 0.41663  0.50008  0.72524  Biso   1.000  H
  C286     1.0000 0.77641  0.77934  0.18369  Biso   1.000  C
  H341     1.0000 0.78552  0.68105  0.13272  Biso   1.000  H
  O55      1.0000 0.66857  0.55959  0.11632  Biso   1.000  O
  C287     1.0000 0.71384  0.72268  0.17910  Biso   1.000  C
  H342     1.0000 0.80753  0.59795  0.93174  Biso   1.000  H
  H343     1.0000 0.83104  0.69851  0.98164  Biso   1.000  H
  C288     1.0000 0.87484  0.56488  0.00923  Biso   1.000  C
  O56      1.0000 0.61169  0.25609  0.89042  Biso   1.000  O
  C289     1.0000 0.62655  0.26926  0.98965  Biso   1.000  C
  C290     1.0000 0.56761  0.21076  0.99241  Biso   1.000  C
  H344     1.0000 0.51002  0.15192  0.90912  Biso   1.000  H
  O57      1.0000 0.81172  0.85404  0.20271  Biso   1.000  O
  C291     1.0000 0.75035  0.79637  0.20191  Biso   1.000  C
  C292     1.0000 0.63782  0.58226  0.12789  Biso   1.000  C
  H345     1.0000 0.69532  0.73300  0.19081  Biso   1.000  H
  Br18     1.0000 0.90822  0.64269  0.98744  Biso   1.000  Br
  H346     1.0000 0.87114  0.48489  0.99724  Biso   1.000  H
  H347     1.0000 0.89310  0.56841  0.05519  Biso   1.000  H
  C293     1.0000 0.65721  0.29335  0.92064  Biso   1.000  C
  H348     1.0000 0.65631  0.29990  0.00979  Biso   1.000  H
  C294     1.0000 0.61187  0.25424  0.02366  Biso   1.000  C
  O58      1.0000 0.55394  0.19893  0.02750  Biso   1.000  O
  C295     1.0000 0.85595  0.81610  0.25630  Biso   1.000  C
  C296     1.0000 0.75908  0.89424  0.24304  Biso   1.000  C
  H349     1.0000 0.65501  0.58318  0.17310  Biso   1.000  H
  H350     1.0000 0.61402  0.52375  0.10840  Biso   1.000  H
  H351     1.0000 0.62312  0.65545  0.11000  Biso   1.000  H
  H352     1.0000 0.66163  0.36797  0.93863  Biso   1.000  H
  H353     1.0000 0.66214  0.29738  0.89014  Biso   1.000  H
  H354     1.0000 0.67934  0.24073  0.95404  Biso   1.000  H
  C297     1.0000 0.64333  0.28001  0.09285  Biso   1.000  C
  C298     1.0000 0.50881  0.15973  0.99503  Biso   1.000  C
  H355     1.0000 0.85483  0.79621  0.28942  Biso   1.000  H
  H356     1.0000 0.87872  0.87586  0.27120  Biso   1.000  H
  H357     1.0000 0.86480  0.74996  0.24520  Biso   1.000  H
  C299     1.0000 0.72860  0.99421  0.20421  Biso   1.000  C
  H358     1.0000 0.79192  0.91674  0.26942  Biso   1.000  H
  H359     1.0000 0.75291  0.87057  0.27120  Biso   1.000  H
  C300     1.0000 0.67376  0.18004  0.13201  Biso   1.000  C
  H360     1.0000 0.62441  0.30065  0.10461  Biso   1.000  H
  H361     1.0000 0.66311  0.34497  0.10189  Biso   1.000  H
  H362     1.0000 0.48852  0.19179  0.95273  Biso   1.000  H
  H363     1.0000 0.50843  0.07772  0.99222  Biso   1.000  H
  H364     1.0000 0.49779  0.18231  0.01729  Biso   1.000  H
  C301     1.0000 0.74399  0.07294  0.18425  Biso   1.000  C
  C302     1.0000 0.68559  0.00823  0.18678  Biso   1.000  C
  C303     1.0000 0.71681  0.16451  0.14808  Biso   1.000  C
  C304     1.0000 0.65844  0.10081  0.15122  Biso   1.000  C
  H365     1.0000 0.77350  0.06379  0.19549  Biso   1.000  H
  O59      1.0000 0.67100  0.92723  0.20650  Biso   1.000  O
  O60      1.0000 0.72973  0.24509  0.12677  Biso   1.000  O
  H366     1.0000 0.62892  0.10962  0.14012  Biso   1.000  H
  C305     1.0000 0.62343  0.91850  0.17347  Biso   1.000  C
  C306     1.0000 0.77505  0.23611  0.14696  Biso   1.000  C
  H367     1.0000 0.61271  0.98540  0.18120  Biso   1.000  H
  H368     1.0000 0.61724  0.85169  0.18762  Biso   1.000  H
  H369     1.0000 0.60712  0.91212  0.12860  Biso   1.000  H
  H370     1.0000 0.79771  0.23728  0.19282  Biso   1.000  H
  H371     1.0000 0.78089  0.29940  0.13028  Biso   1.000  H
  H372     1.0000 0.77791  0.16560  0.13159  Biso   1.000  H
  C307     1.0000 0.62520  0.93503  0.99077  Biso   1.000  C
  C308     1.0000 0.67193  0.88417  0.02305  Biso   1.000  C
  Br19     1.0000 0.59181  0.85723  0.01260  Biso   1.000  Br
  H373     1.0000 0.60691  0.93159  0.94481  Biso   1.000  H
  H374     1.0000 0.62891  0.01511  0.00281  Biso   1.000  H
  H375     1.0000 0.69250  0.90196  0.06830  Biso   1.000  H
  H376     1.0000 0.66902  0.80149  0.01841  Biso   1.000  H
  C309     1.0000 0.69313  0.92933  0.99513  Biso   1.000  C
  C310     1.0000 0.74189  0.88686  0.03106  Biso   1.000  C
  H377     1.0000 0.67401  0.90549  0.95081  Biso   1.000  H
  H378     1.0000 0.69335  0.01242  0.99625  Biso   1.000  H
  H379     1.0000 0.74300  0.80468  0.03710  Biso   1.000  H
  H380     1.0000 0.76281  0.92295  0.07280  Biso   1.000  H
  O61      1.0000 0.75625  0.91355  0.99569  Biso   1.000  O
  C311     1.0000 0.80234  0.90079  0.02488  Biso   1.000  C
  C312     1.0000 0.83475  0.85479  0.08465  Biso   1.000  C
  C313     1.0000 0.81610  0.93789  0.99143  Biso   1.000  C
  H381     1.0000 0.82482  0.82600  0.10602  Biso   1.000  H
  C314     1.0000 0.88143  0.85076  0.11342  Biso   1.000  C
  C315     1.0000 0.86303  0.93730  0.02132  Biso   1.000  C
  C316     1.0000 0.78090  0.97583  0.92392  Biso   1.000  C
  C317     1.0000 0.89533  0.89802  0.08194  Biso   1.000  C
  C318     1.0000 0.91622  0.79747  0.17760  Biso   1.000  C
  H382     1.0000 0.87303  0.96450  0.99972  Biso   1.000  H
  C319     1.0000 0.76943  0.88299  0.87848  Biso   1.000  C
  H383     1.0000 0.75231  0.99958  0.91563  Biso   1.000  H
  H384     1.0000 0.79321  0.04138  0.91703  Biso   1.000  H
  O62      1.0000 0.94241  0.90129  0.11482  Biso   1.000  O
  H385     1.0000 0.94411  0.84548  0.20332  Biso   1.000  H
  H386     1.0000 0.90270  0.79470  0.19849  Biso   1.000  H
  C320     1.0000 0.93056  0.67945  0.17544  Biso   1.000  C
  C321     1.0000 0.73314  0.80888  0.85571  Biso   1.000  C
  C322     1.0000 0.79589  0.86461  0.86025  Biso   1.000  C
  C323     1.0000 0.95927  0.96878  0.09084  Biso   1.000  C
  C324     1.0000 0.91046  0.58469  0.17825  Biso   1.000  C
  C325     1.0000 0.96492  0.66460  0.17123  Biso   1.000  C
  C326     1.0000 0.72363  0.72058  0.81636  Biso   1.000  C
  H387     1.0000 0.71451  0.81887  0.86733  Biso   1.000  H
  O63      1.0000 0.83146  0.94032  0.88368  Biso   1.000  O
  C327     1.0000 0.78619  0.77724  0.82095  Biso   1.000  C
  H388     1.0000 0.95450  0.93000  0.05561  Biso   1.000  H
  H389     1.0000 0.94281  0.04163  0.07561  Biso   1.000  H
  C328     1.0000 0.01025  0.98674  0.14424  Biso   1.000  C
  O64      1.0000 0.87638  0.60206  0.18252  Biso   1.000  O
  C329     1.0000 0.92542  0.47851  0.17769  Biso   1.000  C
  C330     1.0000 0.97902  0.55859  0.16940  Biso   1.000  C
  H390     1.0000 0.97908  0.72864  0.16959  Biso   1.000  H
  O65      1.0000 0.68831  0.64596  0.79734  Biso   1.000  O
  C331     1.0000 0.74971  0.70363  0.79814  Biso   1.000  C
  C332     1.0000 0.86221  0.91766  0.87215  Biso   1.000  C
  H391     1.0000 0.80471  0.76700  0.80924  Biso   1.000  H
  H392     1.0000 0.02590  0.91304  0.15961  Biso   1.000  H
  H393     1.0000 0.02368  0.02929  0.12878  Biso   1.000  H
  C333     1.0000 0.01889  0.05086  0.19830  Biso   1.000  C
  C334     1.0000 0.85726  0.50478  0.18744  Biso   1.000  C
  H394     1.0000 0.91180  0.41439  0.18041  Biso   1.000  H
  C335     1.0000 0.95949  0.46391  0.17329  Biso   1.000  C
  O66      1.0000 0.01264  0.53987  0.16406  Biso   1.000  O
  C336     1.0000 0.64408  0.68390  0.74375  Biso   1.000  C
  C337     1.0000 0.74095  0.60567  0.75700  Biso   1.000  C
  H395     1.0000 0.84502  0.91674  0.82695  Biso   1.000  H
  H396     1.0000 0.88604  0.97616  0.89164  Biso   1.000  H
  H397     1.0000 0.87694  0.84447  0.89005  Biso   1.000  H
  H398     1.0000 0.00461  0.00839  0.21250  Biso   1.000  H
  H399     1.0000 0.00280  0.12406  0.18219  Biso   1.000  H
  C338     1.0000 0.06858  0.07252  0.25415  Biso   1.000  C
  H400     1.0000 0.88212  0.45921  0.22290  Biso   1.000  H
  H401     1.0000 0.83570  0.52694  0.19409  Biso   1.000  H
  H402     1.0000 0.84070  0.46089  0.14869  Biso   1.000  H
  C339     1.0000 0.97358  0.34623  0.17066  Biso   1.000  C
  C340     1.0000 0.03157  0.63547  0.15806  Biso   1.000  C
  H403     1.0000 0.64521  0.70379  0.71063  Biso   1.000  H
  H404     1.0000 0.62130  0.62406  0.72880  Biso   1.000  H
  H405     1.0000 0.63521  0.74996  0.75480  Biso   1.000  H
  C341     1.0000 0.77146  0.50579  0.79584  Biso   1.000  C
  H406     1.0000 0.70811  0.58318  0.73063  Biso   1.000  H
  H407     1.0000 0.74710  0.62934  0.72880  Biso   1.000  H
  H408     1.0000 0.08340  0.99983  0.27481  Biso   1.000  H
  Br20     1.0000 0.09605  0.17962  0.23353  Biso   1.000  Br
  H409     1.0000 0.07051  0.10240  0.28891  Biso   1.000  H
  H410     1.0000 0.08599  0.00109  0.26820  Biso   1.000  H
  Br21     1.0000 0.10492  0.14621  0.23648  Biso   1.000  Br
  H411     1.0000 0.06950  0.11927  0.28432  Biso   1.000  H
  H412     1.0000 0.96971  0.29453  0.19479  Biso   1.000  H
  C342     1.0000 0.94472  0.30536  0.10372  Biso   1.000  C
  H413     1.0000 0.00660  0.34598  0.19020  Biso   1.000  H
  H414     1.0000 0.04832  0.68038  0.19652  Biso   1.000  H
  H415     1.0000 0.05291  0.61197  0.15122  Biso   1.000  H
  H416     1.0000 0.00660  0.68071  0.12241  Biso   1.000  H
  C343     1.0000 0.75607  0.42706  0.81580  Biso   1.000  C
  C344     1.0000 0.81444  0.49177  0.81327  Biso   1.000  C
  C345     1.0000 0.90113  0.25894  0.07327  Biso   1.000  C
  C346     1.0000 0.95998  0.31845  0.07041  Biso   1.000  C
  C347     1.0000 0.78322  0.33549  0.85196  Biso   1.000  C
  H417     1.0000 0.72651  0.43621  0.80451  Biso   1.000  H
  O67      1.0000 0.82903  0.57269  0.79354  Biso   1.000  O
  C348     1.0000 0.84160  0.39919  0.84878  Biso   1.000  C
  O68      1.0000 0.88835  0.24391  0.10962  Biso   1.000  O
  C349     1.0000 0.87348  0.23065  0.01040  Biso   1.000  C
  C350     1.0000 0.93242  0.28916  0.00764  Biso   1.000  C
  H418     1.0000 0.98999  0.34808  0.09088  Biso   1.000  H
  O69      1.0000 0.77028  0.25491  0.87323  Biso   1.000  O
  C351     1.0000 0.82627  0.31988  0.86803  Biso   1.000  C
  C352     1.0000 0.87658  0.58150  0.82652  Biso   1.000  C
  H419     1.0000 0.87111  0.39038  0.85993  Biso   1.000  H
  C353     1.0000 0.84283  0.20656  0.07941  Biso   1.000  C
  H420     1.0000 0.84370  0.20010  0.99021  Biso   1.000  H
  C354     1.0000 0.88816  0.24576  0.97639  Biso   1.000  C
  O70      1.0000 0.94607  0.30107  0.97250  Biso   1.000  O
  C355     1.0000 0.72498  0.26389  0.85309  Biso   1.000  C
  C356     1.0000 0.85670  0.21999  0.90720  Biso   1.000  C
  H421     1.0000 0.88732  0.51460  0.81884  Biso   1.000  H
  H422     1.0000 0.88282  0.64831  0.81242  Biso   1.000  H
  H423     1.0000 0.89292  0.58780  0.87140  Biso   1.000  H
  H424     1.0000 0.83841  0.13203  0.06142  Biso   1.000  H
  H425     1.0000 0.83789  0.20262  0.10990  Biso   1.000  H
  H426     1.0000 0.82069  0.25927  0.04600  Biso   1.000  H
  C357     1.0000 0.99125  0.34027  0.00501  Biso   1.000  C
  H427     1.0000 0.70232  0.26272  0.80722  Biso   1.000  H
  H428     1.0000 0.71912  0.20060  0.86972  Biso   1.000  H
  H429     1.0000 0.72212  0.33440  0.86841  Biso   1.000  H
  H430     1.0000 0.87563  0.19926  0.89544  Biso   1.000  H
  H431     1.0000 0.83692  0.15503  0.89811  Biso   1.000  H
  H432     1.0000 0.99160  0.42228  0.00782  Biso   1.000  H
  H433     1.0000 0.00222  0.31769  0.98271  Biso   1.000  H
  H434     1.0000 0.01151  0.30821  0.04732  Biso   1.000  H
  C358     1.0000 0.37484  0.06488  0.00923  Biso   1.000  C
  C359     1.0000 0.32813  0.11583  0.97700  Biso   1.000  C
  Br22     1.0000 0.40822  0.14277  0.98744  Biso   1.000  Br
  H435     1.0000 0.37114  0.98489  0.99724  Biso   1.000  H
  H436     1.0000 0.39310  0.06841  0.05519  Biso   1.000  H
  H437     1.0000 0.30753  0.09804  0.93174  Biso   1.000  H
  H438     1.0000 0.33104  0.19851  0.98164  Biso   1.000  H
  C360     1.0000 0.30693  0.07067  0.00492  Biso   1.000  C
  C361     1.0000 0.25814  0.11314  0.96899  Biso   1.000  C
  H439     1.0000 0.30671  0.98758  0.00379  Biso   1.000  H
  H440     1.0000 0.32600  0.09451  0.04919  Biso   1.000  H
  H441     1.0000 0.25703  0.19532  0.96294  Biso   1.000  H
  H442     1.0000 0.23725  0.07697  0.92725  Biso   1.000  H
  O71      1.0000 0.24376  0.08645  0.00431  Biso   1.000  O
  C362     1.0000 0.19769  0.09913  0.97517  Biso   1.000  C
  C363     1.0000 0.16526  0.14512  0.91535  Biso   1.000  C
  C364     1.0000 0.18396  0.06211  0.00862  Biso   1.000  C
  H443     1.0000 0.17524  0.17400  0.89403  Biso   1.000  H
  C365     1.0000 0.11861  0.14915  0.88658  Biso   1.000  C
  C366     1.0000 0.13701  0.06262  0.97873  Biso   1.000  C
  C367     1.0000 0.21916  0.02417  0.07613  Biso   1.000  C
  C368     1.0000 0.10470  0.10198  0.91811  Biso   1.000  C
  C369     1.0000 0.08379  0.20253  0.82240  Biso   1.000  C
  H444     1.0000 0.12701  0.03550  0.00028  Biso   1.000  H
  H445     1.0000 0.20682  0.95854  0.08301  Biso   1.000  H
  C370     1.0000 0.23060  0.11701  0.12157  Biso   1.000  C
  H446     1.0000 0.24772  0.00042  0.08442  Biso   1.000  H
  O72      1.0000 0.05763  0.09862  0.88522  Biso   1.000  O
  H447     1.0000 0.05592  0.15452  0.79673  Biso   1.000  H
  H448     1.0000 0.09733  0.20530  0.80151  Biso   1.000  H
  C371     1.0000 0.06948  0.32046  0.82460  Biso   1.000  C
  C372     1.0000 0.26690  0.19112  0.14434  Biso   1.000  C
  C373     1.0000 0.20414  0.13539  0.13979  Biso   1.000  C
  C374     1.0000 0.04079  0.03122  0.90921  Biso   1.000  C
  C375     1.0000 0.08960  0.41523  0.82179  Biso   1.000  C
  C376     1.0000 0.03511  0.33532  0.82882  Biso   1.000  C
  C377     1.0000 0.27641  0.27934  0.18369  Biso   1.000  C
  H449     1.0000 0.28552  0.18113  0.13272  Biso   1.000  H
  O73      1.0000 0.16857  0.05959  0.11632  Biso   1.000  O
  C378     1.0000 0.21384  0.22276  0.17910  Biso   1.000  C
  H450     1.0000 0.04554  0.07000  0.94444  Biso   1.000  H
  C379     1.0000 0.98979  0.01318  0.85580  Biso   1.000  C
  H451     1.0000 0.05725  0.95837  0.92444  Biso   1.000  H
  O74      1.0000 0.12363  0.39794  0.81748  Biso   1.000  O
  C380     1.0000 0.07461  0.52140  0.82236  Biso   1.000  C
  C381     1.0000 0.02101  0.44141  0.83065  Biso   1.000  C
  H452     1.0000 0.02093  0.27128  0.83041  Biso   1.000  H
  O75      1.0000 0.31172  0.35404  0.20271  Biso   1.000  O
  C382     1.0000 0.25035  0.29637  0.20191  Biso   1.000  C
  C383     1.0000 0.13782  0.08226  0.12789  Biso   1.000  C
  H453     1.0000 0.19532  0.23300  0.19081  Biso   1.000  H
  H454     1.0000 0.97633  0.97062  0.87122  Biso   1.000  H
  C384     1.0000 0.98114  0.94905  0.80174  Biso   1.000  C
  H455     1.0000 0.97414  0.08687  0.84044  Biso   1.000  H
  C385     1.0000 0.14277  0.49522  0.81261  Biso   1.000  C
  H456     1.0000 0.08823  0.58561  0.81964  Biso   1.000  H
  C386     1.0000 0.04057  0.53609  0.82676  Biso   1.000  C
  O76      1.0000 0.98741  0.46013  0.83599  Biso   1.000  O
  C387     1.0000 0.35595  0.31610  0.25630  Biso   1.000  C
  C388     1.0000 0.25908  0.39424  0.24304  Biso   1.000  C
  H457     1.0000 0.15501  0.08318  0.17310  Biso   1.000  H
  H458     1.0000 0.11402  0.02384  0.10840  Biso   1.000  H
  H459     1.0000 0.12312  0.15553  0.11000  Biso   1.000  H
  H460     1.0000 0.99543  0.99152  0.78750  Biso   1.000  H
  H461     1.0000 0.99721  0.87586  0.81781  Biso   1.000  H
  C389     1.0000 0.93145  0.92748  0.74590  Biso   1.000  C
  H462     1.0000 0.11792  0.54079  0.77710  Biso   1.000  H
  H463     1.0000 0.16431  0.47297  0.80591  Biso   1.000  H
  H464     1.0000 0.15931  0.53911  0.85131  Biso   1.000  H
  C390     1.0000 0.02643  0.65377  0.82934  Biso   1.000  C
  C391     1.0000 0.96846  0.36445  0.84194  Biso   1.000  C
  H465     1.0000 0.35483  0.29621  0.28942  Biso   1.000  H
  H466     1.0000 0.37872  0.37586  0.27120  Biso   1.000  H
  H467     1.0000 0.36480  0.24996  0.24520  Biso   1.000  H
  C392     1.0000 0.22860  0.49421  0.20421  Biso   1.000  C
  H468     1.0000 0.29192  0.41682  0.26942  Biso   1.000  H
  H469     1.0000 0.25291  0.37057  0.27120  Biso   1.000  H
  Br23     1.0000 0.90396  0.82030  0.76647  Biso   1.000  Br
  H470     1.0000 0.92952  0.89760  0.71114  Biso   1.000  H
  H471     1.0000 0.91402  0.99882  0.73180  Biso   1.000  H
  Br24     1.0000 0.89512  0.85379  0.76352  Biso   1.000  Br
  H472     1.0000 0.93053  0.88064  0.71573  Biso   1.000  H
  H473     1.0000 0.91663  0.00008  0.72524  Biso   1.000  H
  H474     1.0000 0.03033  0.70547  0.80521  Biso   1.000  H
  C393     1.0000 0.05531  0.69456  0.89633  Biso   1.000  C
  H475     1.0000 0.99343  0.65394  0.80985  Biso   1.000  H
  H476     1.0000 0.95171  0.31962  0.80352  Biso   1.000  H
  H477     1.0000 0.94712  0.38795  0.84882  Biso   1.000  H
  H478     1.0000 0.99343  0.31929  0.87763  Biso   1.000  H
  C394     1.0000 0.24399  0.57294  0.18425  Biso   1.000  C
  C395     1.0000 0.18559  0.50823  0.18678  Biso   1.000  C
  C396     1.0000 0.09891  0.74098  0.92673  Biso   1.000  C
  C397     1.0000 0.04006  0.68155  0.92964  Biso   1.000  C
  C398     1.0000 0.21681  0.66451  0.14808  Biso   1.000  C
  H479     1.0000 0.27350  0.56379  0.19549  Biso   1.000  H
  O77      1.0000 0.17100  0.42723  0.20650  Biso   1.000  O
  C399     1.0000 0.15844  0.60081  0.15122  Biso   1.000  C
  O78      1.0000 0.11169  0.75609  0.89042  Biso   1.000  O
  C400     1.0000 0.12655  0.76926  0.98965  Biso   1.000  C
  C401     1.0000 0.06761  0.71076  0.99241  Biso   1.000  C
  H480     1.0000 0.01002  0.65184  0.90912  Biso   1.000  H
  O79      1.0000 0.22973  0.74501  0.12677  Biso   1.000  O
  C402     1.0000 0.17376  0.68004  0.13201  Biso   1.000  C
  C403     1.0000 0.12343  0.41850  0.17347  Biso   1.000  C
  H481     1.0000 0.12892  0.60954  0.14012  Biso   1.000  H
  C404     1.0000 0.15721  0.79335  0.92064  Biso   1.000  C
  H482     1.0000 0.15631  0.79990  0.00979  Biso   1.000  H
  C405     1.0000 0.11187  0.75424  0.02366  Biso   1.000  C
  O80      1.0000 0.05394  0.69884  0.02750  Biso   1.000  O
  C406     1.0000 0.27505  0.73611  0.14696  Biso   1.000  C
  C407     1.0000 0.14333  0.77992  0.09285  Biso   1.000  C
  H483     1.0000 0.11271  0.48540  0.18120  Biso   1.000  H
  H484     1.0000 0.11724  0.35169  0.18762  Biso   1.000  H
  H485     1.0000 0.10712  0.41220  0.12860  Biso   1.000  H
  H486     1.0000 0.16163  0.86797  0.93863  Biso   1.000  H
  H487     1.0000 0.16214  0.79738  0.89014  Biso   1.000  H
  H488     1.0000 0.17934  0.74064  0.95404  Biso   1.000  H
  C408     1.0000 0.00881  0.65964  0.99503  Biso   1.000  C
  H489     1.0000 0.29771  0.73728  0.19282  Biso   1.000  H
  H490     1.0000 0.28089  0.79940  0.13028  Biso   1.000  H
  H491     1.0000 0.27791  0.66560  0.13159  Biso   1.000  H
  H492     1.0000 0.12441  0.80065  0.10461  Biso   1.000  H
  H493     1.0000 0.16311  0.84497  0.10189  Biso   1.000  H
  H494     1.0000 0.00843  0.57764  0.99222  Biso   1.000  H
  H495     1.0000 0.98852  0.69179  0.95273  Biso   1.000  H
  H496     1.0000 0.99779  0.68231  0.01729  Biso   1.000  H
