data_image0
_cell_length_a       24.635
_cell_length_b       22.31
_cell_length_c       32.056
_cell_angle_alpha    90
_cell_angle_beta     93.9
_cell_angle_gamma    90

_symmetry_space_group_name_H-M    "P 1"
_symmetry_int_tables_number       1

loop_
  _symmetry_equiv_pos_as_xyz
  'x, y, z'

loop_
  _atom_site_label
  _atom_site_occupancy
  _atom_site_fract_x
  _atom_site_fract_y
  _atom_site_fract_z
  _atom_site_thermal_displace_type
  _atom_site_B_iso_or_equiv
  _atom_site_type_symbol
  O1       1.0000 0.52210  0.59511  0.40592  Biso   1.000  O
  C1       1.0000 0.52700  0.54509  0.38100  Biso   1.000  C
  B1       1.0000 0.48271  0.63088  0.38459  Biso   1.000  B
  C2       1.0000 0.48973  0.54890  0.34651  Biso   1.000  C
  C3       1.0000 0.56081  0.49709  0.38781  Biso   1.000  C
  O2       1.0000 0.46156  0.60296  0.34839  Biso   1.000  O
  C4       1.0000 0.46832  0.69220  0.40179  Biso   1.000  C
  C5       1.0000 0.48580  0.50529  0.31721  Biso   1.000  C
  C6       1.0000 0.55872  0.45298  0.35689  Biso   1.000  C
  H1       1.0000 0.58453  0.49381  0.41230  Biso   1.000  H
  C7       1.0000 0.43463  0.73250  0.37931  Biso   1.000  C
  C8       1.0000 0.48970  0.70968  0.44069  Biso   1.000  C
  C9       1.0000 0.44490  0.49839  0.28028  Biso   1.000  C
  C10      1.0000 0.52260  0.45621  0.32206  Biso   1.000  C
  Br1      1.0000 0.60692  0.38705  0.36396  Biso   1.000  Br
  C11      1.0000 0.42282  0.78879  0.39591  Biso   1.000  C
  H2       1.0000 0.41933  0.72169  0.35229  Biso   1.000  H
  H3       1.0000 0.51331  0.68328  0.45651  Biso   1.000  H
  C12      1.0000 0.47731  0.76432  0.45710  Biso   1.000  C
  C13      1.0000 0.41801  0.43841  0.28610  Biso   1.000  C
  H4       1.0000 0.41832  0.53232  0.27760  Biso   1.000  H
  C14      1.0000 0.47861  0.49220  0.24239  Biso   1.000  C
  C15      1.0000 0.51393  0.41022  0.28694  Biso   1.000  C
  C16      1.0000 0.44363  0.80471  0.43559  Biso   1.000  C
  H5       1.0000 0.40041  0.81623  0.37981  Biso   1.000  H
  H6       1.0000 0.49253  0.77472  0.48409  Biso   1.000  H
  C17      1.0000 0.36403  0.42492  0.29029  Biso   1.000  C
  C18      1.0000 0.45483  0.39000  0.28970  Biso   1.000  C
  C19      1.0000 0.51551  0.44379  0.24570  Biso   1.000  C
  C20      1.0000 0.47681  0.52519  0.20690  Biso   1.000  C
  H7       1.0000 0.54042  0.37629  0.28951  Biso   1.000  H
  B2       1.0000 0.43331  0.86549  0.45620  Biso   1.000  B
  C21      1.0000 0.34742  0.36741  0.29711  Biso   1.000  C
  O3       1.0000 0.32006  0.46410  0.28876  Biso   1.000  O
  C22      1.0000 0.43629  0.33250  0.29679  Biso   1.000  C
  C23      1.0000 0.54751  0.43169  0.21281  Biso   1.000  C
  C24      1.0000 0.51011  0.51300  0.17501  Biso   1.000  C
  O4       1.0000 0.44524  0.57562  0.19655  Biso   1.000  O
  O5       1.0000 0.45992  0.88261  0.49403  Biso   1.000  O
  O6       1.0000 0.39741  0.90982  0.44131  Biso   1.000  O
  O7       1.0000 0.29108  0.36800  0.29980  Biso   1.000  O
  C25      1.0000 0.38180  0.31918  0.30070  Biso   1.000  C
  B3       1.0000 0.27561  0.42712  0.29429  Biso   1.000  B
  Br2      1.0000 0.48805  0.26894  0.30320  Biso   1.000  Br
  Br3      1.0000 0.59774  0.36656  0.21756  Biso   1.000  Br
  C26      1.0000 0.54562  0.46580  0.17669  Biso   1.000  C
  O8       1.0000 0.50064  0.55509  0.14368  Biso   1.000  O
  B4       1.0000 0.46003  0.59251  0.15721  Biso   1.000  B
  C27      1.0000 0.44124  0.93949  0.50219  Biso   1.000  C
  C28      1.0000 0.40370  0.95549  0.47021  Biso   1.000  C
  H8       1.0000 0.36931  0.27970  0.30539  Biso   1.000  H
  C29      1.0000 0.21641  0.44939  0.29551  Biso   1.000  C
  H9       1.0000 0.56783  0.45701  0.15431  Biso   1.000  H
  C30      1.0000 0.43511  0.64469  0.13120  Biso   1.000  C
  C31      1.0000 0.45542  0.97732  0.53449  Biso   1.000  C
  C32      1.0000 0.37804  0.00982  0.47011  Biso   1.000  C
  C33      1.0000 0.20232  0.50879  0.28901  Biso   1.000  C
  C34      1.0000 0.17480  0.40941  0.30239  Biso   1.000  C
  C35      1.0000 0.38929  0.67521  0.14271  Biso   1.000  C
  C36      1.0000 0.45621  0.66051  0.09390  Biso   1.000  C
  H10      1.0000 0.48123  0.96589  0.55641  Biso   1.000  H
  C37      1.0000 0.43051  0.03272  0.53412  Biso   1.000  C
  C38      1.0000 0.33394  0.03299  0.43919  Biso   1.000  C
  C39      1.0000 0.39322  0.05061  0.50219  Biso   1.000  C
  C40      1.0000 0.14841  0.52770  0.28941  Biso   1.000  C
  H11      1.0000 0.22993  0.53720  0.28401  Biso   1.000  H
  H12      1.0000 0.18330  0.36822  0.30671  Biso   1.000  H
  C41      1.0000 0.12120  0.42788  0.30311  Biso   1.000  C
  H13      1.0000 0.37452  0.66589  0.16850  Biso   1.000  H
  C42      1.0000 0.36499  0.71909  0.11719  Biso   1.000  C
  C43      1.0000 0.43141  0.70372  0.06829  Biso   1.000  C
  H14      1.0000 0.48832  0.64142  0.08571  Biso   1.000  H
  Br4      1.0000 0.44916  0.08534  0.57977  Biso   1.000  Br
  H15      1.0000 0.32270  0.00341  0.41680  Biso   1.000  H
  C44      1.0000 0.28721  0.05168  0.46570  Biso   1.000  C
  C45      1.0000 0.35790  0.09050  0.42240  Biso   1.000  C
  C46      1.0000 0.36273  0.11031  0.49710  Biso   1.000  C
  C47      1.0000 0.10739  0.48812  0.29751  Biso   1.000  C
  H16      1.0000 0.13981  0.56862  0.28401  Biso   1.000  H
  H17      1.0000 0.09362  0.39928  0.30749  Biso   1.000  H
  H18      1.0000 0.33380  0.73940  0.12570  Biso   1.000  H
  C48      1.0000 0.38559  0.73371  0.07930  Biso   1.000  C
  H19      1.0000 0.44630  0.71291  0.04249  Biso   1.000  H
  C49      1.0000 0.30343  0.09359  0.49719  Biso   1.000  C
  C50      1.0000 0.23524  0.03079  0.46511  Biso   1.000  C
  C51      1.0000 0.37191  0.13299  0.45360  Biso   1.000  C
  C52      1.0000 0.36842  0.10359  0.38209  Biso   1.000  C
  H20      1.0000 0.37404  0.13989  0.51939  Biso   1.000  H
  B5       1.0000 0.04812  0.50722  0.30111  Biso   1.000  B
  B6       1.0000 0.35850  0.77938  0.04800  Biso   1.000  B
  C53      1.0000 0.26624  0.11412  0.52461  Biso   1.000  C
  O9       1.0000 0.21013  0.98700  0.43959  Biso   1.000  O
  C54      1.0000 0.19884  0.05168  0.49281  Biso   1.000  C
  C55      1.0000 0.39103  0.18830  0.44169  Biso   1.000  C
  C56      1.0000 0.39093  0.15849  0.37181  Biso   1.000  C
  O10      1.0000 0.36197  0.06831  0.34638  Biso   1.000  O
  O11      1.0000 0.00729  0.46652  0.30983  Biso   1.000  O
  O12      1.0000 0.02762  0.56562  0.29880  Biso   1.000  O
  O13      1.0000 0.37232  0.78189  0.00691  Biso   1.000  O
  O14      1.0000 0.32106  0.82322  0.05653  Biso   1.000  O
  Br5      1.0000 0.28617  0.17360  0.56495  Biso   1.000  Br
  C57      1.0000 0.21303  0.09278  0.52330  Biso   1.000  C
  B7       1.0000 0.15791  0.98229  0.45370  Biso   1.000  B
  O15      1.0000 0.15022  0.02178  0.48600  Biso   1.000  O
  Br6      1.0000 0.40243  0.24922  0.48290  Biso   1.000  Br
  C58      1.0000 0.40162  0.20211  0.40079  Biso   1.000  C
  O16      1.0000 0.39881  0.15890  0.32966  Biso   1.000  O
  B8       1.0000 0.38092  0.10381  0.31459  Biso   1.000  B
  C59      1.0000 0.96032  0.50130  0.31212  Biso   1.000  C
  C60      1.0000 0.97303  0.56060  0.30571  Biso   1.000  C
  C61      1.0000 0.34372  0.83079  0.98968  Biso   1.000  C
  C62      1.0000 0.31341  0.85580  0.01970  Biso   1.000  C
  H21      1.0000 0.18794  0.10610  0.54250  Biso   1.000  H
  C63      1.0000 0.11482  0.93649  0.43781  Biso   1.000  C
  H22      1.0000 0.41550  0.24012  0.39351  Biso   1.000  H
  C64      1.0000 0.37991  0.08691  0.26790  Biso   1.000  C
  C65      1.0000 0.90940  0.48189  0.32021  Biso   1.000  C
  C66      1.0000 0.93423  0.60462  0.30630  Biso   1.000  C
  C67      1.0000 0.34563  0.85271  0.95028  Biso   1.000  C
  C68      1.0000 0.28331  0.90650  0.01160  Biso   1.000  C
  C69      1.0000 0.12364  0.89431  0.40811  Biso   1.000  C
  C70      1.0000 0.06562  0.93581  0.45570  Biso   1.000  C
  C71      1.0000 0.35419  0.03451  0.25299  Biso   1.000  C
  C72      1.0000 0.39832  0.12788  0.23920  Biso   1.000  C
  C73      1.0000 0.86973  0.52622  0.32050  Biso   1.000  C
  H23      1.0000 0.90170  0.44101  0.32531  Biso   1.000  H
  C74      1.0000 0.93920  0.67172  0.30139  Biso   1.000  C
  C75      1.0000 0.88082  0.58579  0.31330  Biso   1.000  C
  C76      1.0000 0.31501  0.90489  0.94190  Biso   1.000  C
  H24      1.0000 0.36623  0.83402  0.92990  Biso   1.000  H
  C77      1.0000 0.25080  0.94281  0.04109  Biso   1.000  C
  C78      1.0000 0.28455  0.93182  0.97148  Biso   1.000  C
  C79      1.0000 0.08400  0.85289  0.39551  Biso   1.000  C
  H25      1.0000 0.15771  0.89332  0.39591  Biso   1.000  H
  C80      1.0000 0.02504  0.89700  0.44250  Biso   1.000  C
  H26      1.0000 0.05961  0.96302  0.47771  Biso   1.000  H
  C81      1.0000 0.34409  0.02582  0.21040  Biso   1.000  C
  H27      1.0000 0.34383  0.00471  0.27209  Biso   1.000  H
  C82      1.0000 0.38742  0.11932  0.19680  Biso   1.000  C
  H28      1.0000 0.41863  0.16199  0.24899  Biso   1.000  H
  Br7      1.0000 0.79909  0.50309  0.33513  Biso   1.000  Br
  H29      1.0000 0.97720  0.68530  0.29739  Biso   1.000  H
  C83      1.0000 0.89902  0.68772  0.26531  Biso   1.000  C
  C84      1.0000 0.91554  0.69892  0.33951  Biso   1.000  C
  C85      1.0000 0.84082  0.63738  0.31221  Biso   1.000  C
  Br8      1.0000 0.31595  0.93873  0.88694  Biso   1.000  Br
  H30      1.0000 0.24992  0.92470  0.06960  Biso   1.000  H
  C86      1.0000 0.19419  0.95052  0.01870  Biso   1.000  C
  C87      1.0000 0.27781  0.00359  0.04121  Biso   1.000  C
  C88      1.0000 0.25294  0.99059  0.96748  Biso   1.000  C
  C89      1.0000 0.03351  0.85392  0.41261  Biso   1.000  C
  H31      1.0000 0.09124  0.82380  0.37499  Biso   1.000  H
  H32      1.0000 0.99053  0.89969  0.45391  Biso   1.000  H
  C90      1.0000 0.35869  0.06930  0.18179  Biso   1.000  C
  H33      1.0000 0.32710  0.98991  0.20049  Biso   1.000  H
  H34      1.0000 0.39960  0.14801  0.17760  Biso   1.000  H
  C91      1.0000 0.84481  0.67019  0.27100  Biso   1.000  C
  C92      1.0000 0.90671  0.71941  0.22969  Biso   1.000  C
  C93      1.0000 0.86162  0.68041  0.34579  Biso   1.000  C
  C94      1.0000 0.93742  0.74092  0.36621  Biso   1.000  C
  H35      1.0000 0.80283  0.62380  0.31631  Biso   1.000  H
  C95      1.0000 0.14490  0.93541  0.03239  Biso   1.000  C
  C96      1.0000 0.19513  0.97732  0.97889  Biso   1.000  C
  C97      1.0000 0.27739  0.03102  0.00159  Biso   1.000  C
  C98      1.0000 0.30270  0.03402  0.07389  Biso   1.000  C
  H36      1.0000 0.25404  0.00892  0.93909  Biso   1.000  H
  B9       1.0000 0.98783  0.80950  0.40001  Biso   1.000  B
  B10      1.0000 0.34031  0.06410  0.13511  Biso   1.000  B
  C99      1.0000 0.80269  0.68812  0.24279  Biso   1.000  C
  C100     1.0000 0.86432  0.73510  0.20161  Biso   1.000  C
  O17      1.0000 0.95502  0.74209  0.21550  Biso   1.000  O
  C101     1.0000 0.83382  0.70480  0.37750  Biso   1.000  C
  C102     1.0000 0.90841  0.76432  0.39801  Biso   1.000  C
  O18      1.0000 0.98811  0.76809  0.36746  Biso   1.000  O
  O19      1.0000 0.13222  0.90708  0.06895  Biso   1.000  O
  C103     1.0000 0.09741  0.94671  0.00769  Biso   1.000  C
  C104     1.0000 0.14705  0.98812  0.95529  Biso   1.000  C
  C105     1.0000 0.30144  0.08602  0.99719  Biso   1.000  C
  C106     1.0000 0.32729  0.08969  0.06829  Biso   1.000  C
  O20      1.0000 0.30988  0.01779  0.11557  Biso   1.000  O
  O21      1.0000 0.93981  0.80722  0.41980  Biso   1.000  O
  O22      1.0000 0.35042  0.10982  0.10622  Biso   1.000  O
  Br9      1.0000 0.72975  0.66737  0.25246  Biso   1.000  Br
  C107     1.0000 0.81132  0.72102  0.20721  Biso   1.000  C
  O23      1.0000 0.88346  0.76871  0.16932  Biso   1.000  O
  B11      1.0000 0.94021  0.77181  0.17891  Biso   1.000  B
  Br10     1.0000 0.76065  0.68064  0.38419  Biso   1.000  Br
  C108     1.0000 0.85670  0.74751  0.40489  Biso   1.000  C
  B12      1.0000 0.07550  0.90152  0.06510  Biso   1.000  B
  O24      1.0000 0.05343  0.92680  0.02855  Biso   1.000  O
  C109     1.0000 0.09701  0.97342  0.96970  Biso   1.000  C
  Br11     1.0000 0.14866  0.02443  0.90198  Biso   1.000  Br
  Br12     1.0000 0.29926  0.12205  0.94281  Biso   1.000  Br
  C110     1.0000 0.32650  0.11748  0.03039  Biso   1.000  C
  H37      1.0000 0.78222  0.73299  0.18801  Biso   1.000  H
  C111     1.0000 0.97662  0.80641  0.15049  Biso   1.000  C
  H38      1.0000 0.83764  0.76378  0.42709  Biso   1.000  H
  C112     1.0000 0.04141  0.86930  0.09681  Biso   1.000  C
  H39      1.0000 0.06393  0.98162  0.95369  Biso   1.000  H
  H40      1.0000 0.34210  0.15598  0.02689  Biso   1.000  H
  C113     1.0000 0.03329  0.80412  0.15600  Biso   1.000  C
  C114     1.0000 0.95339  0.84070  0.11779  Biso   1.000  C
  C115     1.0000 0.06442  0.83541  0.12929  Biso   1.000  C
  C116     1.0000 0.98509  0.87100  0.09161  Biso   1.000  C
  H41      1.0000 0.05039  0.78108  0.17810  Biso   1.000  H
  H42      1.0000 0.91490  0.84312  0.11360  Biso   1.000  H
  H43      1.0000 0.10290  0.83348  0.13339  Biso   1.000  H
  H44      1.0000 0.96821  0.89372  0.06920  Biso   1.000  H
  O25      1.0000 0.47795  0.40489  0.59409  Biso   1.000  O
  B13      1.0000 0.51734  0.36912  0.61541  Biso   1.000  B
  C117     1.0000 0.47301  0.45491  0.61901  Biso   1.000  C
  C118     1.0000 0.53173  0.30780  0.59822  Biso   1.000  C
  O26      1.0000 0.53845  0.39704  0.65162  Biso   1.000  O
  C119     1.0000 0.51032  0.45110  0.65350  Biso   1.000  C
  C120     1.0000 0.43924  0.50291  0.61219  Biso   1.000  C
  C121     1.0000 0.56543  0.26750  0.62070  Biso   1.000  C
  C122     1.0000 0.51031  0.29032  0.55929  Biso   1.000  C
  C123     1.0000 0.51422  0.49471  0.68280  Biso   1.000  C
  C124     1.0000 0.44133  0.54702  0.64312  Biso   1.000  C
  H45      1.0000 0.41552  0.50619  0.58771  Biso   1.000  H
  C125     1.0000 0.57723  0.21121  0.60409  Biso   1.000  C
  H46      1.0000 0.58073  0.27831  0.64771  Biso   1.000  H
  C126     1.0000 0.52274  0.23568  0.54290  Biso   1.000  C
  H47      1.0000 0.48671  0.31672  0.54350  Biso   1.000  H
  C127     1.0000 0.55511  0.50161  0.71972  Biso   1.000  C
  C128     1.0000 0.47742  0.54379  0.67795  Biso   1.000  C
  Br13     1.0000 0.39313  0.61295  0.63605  Biso   1.000  Br
  C129     1.0000 0.55643  0.19529  0.56442  Biso   1.000  C
  H48      1.0000 0.59964  0.18382  0.62020  Biso   1.000  H
  H49      1.0000 0.50752  0.22528  0.51589  Biso   1.000  H
  H50      1.0000 0.58174  0.46768  0.72241  Biso   1.000  H
  C130     1.0000 0.58204  0.56159  0.71391  Biso   1.000  C
  C131     1.0000 0.52144  0.50780  0.75759  Biso   1.000  C
  C132     1.0000 0.48612  0.58978  0.71306  Biso   1.000  C
  B14      1.0000 0.56674  0.13451  0.54381  Biso   1.000  B
  C133     1.0000 0.54523  0.61000  0.71031  Biso   1.000  C
  C134     1.0000 0.63602  0.57512  0.70972  Biso   1.000  C
  C135     1.0000 0.48454  0.55621  0.75430  Biso   1.000  C
  C136     1.0000 0.52325  0.47481  0.79311  Biso   1.000  C
  H51      1.0000 0.45963  0.62371  0.71050  Biso   1.000  H
  O27      1.0000 0.54013  0.11739  0.50598  Biso   1.000  O
  O28      1.0000 0.60264  0.09018  0.55869  Biso   1.000  O
  C137     1.0000 0.56372  0.66750  0.70321  Biso   1.000  C
  C138     1.0000 0.65263  0.63259  0.70290  Biso   1.000  C
  O29      1.0000 0.68000  0.53590  0.71125  Biso   1.000  O
  C139     1.0000 0.45254  0.56831  0.78720  Biso   1.000  C
  C140     1.0000 0.48994  0.48700  0.82500  Biso   1.000  C
  O30      1.0000 0.55481  0.42438  0.80346  Biso   1.000  O
  C141     1.0000 0.55881  0.06051  0.49781  Biso   1.000  C
  C142     1.0000 0.59631  0.04451  0.52980  Biso   1.000  C
  Br14     1.0000 0.51200  0.73106  0.69680  Biso   1.000  Br
  C143     1.0000 0.61821  0.68082  0.69930  Biso   1.000  C
  O31      1.0000 0.70898  0.63200  0.70021  Biso   1.000  O
  B15      1.0000 0.72444  0.57288  0.70571  Biso   1.000  B
  Br15     1.0000 0.40227  0.63348  0.78245  Biso   1.000  Br
  C144     1.0000 0.45444  0.53420  0.82331  Biso   1.000  C
  O32      1.0000 0.49941  0.44491  0.85630  Biso   1.000  O
  B16      1.0000 0.54003  0.40749  0.84279  Biso   1.000  B
  C145     1.0000 0.54463  0.02268  0.46552  Biso   1.000  C
  C146     1.0000 0.62201  0.99018  0.52990  Biso   1.000  C
  H52      1.0000 0.63075  0.72030  0.69461  Biso   1.000  H
  C147     1.0000 0.78364  0.55061  0.70450  Biso   1.000  C
  H53      1.0000 0.43223  0.54299  0.84570  Biso   1.000  H
  C148     1.0000 0.56494  0.35531  0.86881  Biso   1.000  C
  H54      1.0000 0.51882  0.03411  0.44360  Biso   1.000  H
  C149     1.0000 0.56951  0.96732  0.46589  Biso   1.000  C
  C150     1.0000 0.60684  0.94939  0.49781  Biso   1.000  C
  C151     1.0000 0.66611  0.96701  0.56079  Biso   1.000  C
  C152     1.0000 0.79773  0.49121  0.71100  Biso   1.000  C
  C153     1.0000 0.82525  0.59059  0.69762  Biso   1.000  C
  C154     1.0000 0.61072  0.32479  0.85730  Biso   1.000  C
  C155     1.0000 0.54384  0.33949  0.90611  Biso   1.000  C
  Br16     1.0000 0.55089  0.91466  0.42021  Biso   1.000  Br
  C156     1.0000 0.63732  0.88969  0.50291  Biso   1.000  C
  H55      1.0000 0.67731  0.99659  0.58321  Biso   1.000  H
  C157     1.0000 0.71280  0.94832  0.53430  Biso   1.000  C
  C158     1.0000 0.64211  0.90950  0.57761  Biso   1.000  C
  C159     1.0000 0.85165  0.47230  0.71059  Biso   1.000  C
  H56      1.0000 0.77013  0.46280  0.71600  Biso   1.000  H
  H57      1.0000 0.81675  0.63182  0.69330  Biso   1.000  H
  C160     1.0000 0.87885  0.57212  0.69690  Biso   1.000  C
  H58      1.0000 0.62553  0.33411  0.83151  Biso   1.000  H
  C161     1.0000 0.63502  0.28091  0.88282  Biso   1.000  C
  C162     1.0000 0.56864  0.29628  0.93169  Biso   1.000  C
  H59      1.0000 0.51173  0.35858  0.91430  Biso   1.000  H
  H60      1.0000 0.62601  0.86011  0.48059  Biso   1.000  H
  C163     1.0000 0.69662  0.90641  0.50279  Biso   1.000  C
  C164     1.0000 0.62814  0.86701  0.54641  Biso   1.000  C
  C165     1.0000 0.76482  0.96921  0.53490  Biso   1.000  C
  C166     1.0000 0.63163  0.89641  0.61791  Biso   1.000  C
  C167     1.0000 0.89262  0.51192  0.70249  Biso   1.000  C
  H61      1.0000 0.86024  0.43142  0.71600  Biso   1.000  H
  H62      1.0000 0.90643  0.60072  0.69249  Biso   1.000  H
  H63      1.0000 0.66626  0.26060  0.87431  Biso   1.000  H
  C168     1.0000 0.61443  0.26629  0.92071  Biso   1.000  C
  H64      1.0000 0.55375  0.28709  0.95751  Biso   1.000  H
  C169     1.0000 0.73381  0.88593  0.47540  Biso   1.000  C
  C170     1.0000 0.60902  0.81170  0.55829  Biso   1.000  C
  O33      1.0000 0.78993  0.01300  0.56041  Biso   1.000  O
  C171     1.0000 0.80121  0.94832  0.50720  Biso   1.000  C
  C172     1.0000 0.60912  0.84151  0.62820  Biso   1.000  C
  O34      1.0000 0.63808  0.93169  0.65362  Biso   1.000  O
  B17      1.0000 0.95193  0.49278  0.69890  Biso   1.000  B
  B18      1.0000 0.64155  0.22062  0.95201  Biso   1.000  B
  Br17     1.0000 0.71384  0.82640  0.43506  Biso   1.000  Br
  C173     1.0000 0.78703  0.90722  0.47671  Biso   1.000  C
  Br18     1.0000 0.59762  0.75078  0.51711  Biso   1.000  Br
  C174     1.0000 0.59844  0.79789  0.59922  Biso   1.000  C
  B19      1.0000 0.84214  0.01771  0.54631  Biso   1.000  B
  O35      1.0000 0.84984  0.97822  0.51401  Biso   1.000  O
  O36      1.0000 0.60124  0.84110  0.67035  Biso   1.000  O
  B20      1.0000 0.61913  0.89619  0.68539  Biso   1.000  B
  O37      1.0000 0.99273  0.53348  0.69017  Biso   1.000  O
  O38      1.0000 0.97243  0.43442  0.70121  Biso   1.000  O
  O39      1.0000 0.62773  0.21811  0.99310  Biso   1.000  O
  O40      1.0000 0.67896  0.17678  0.94348  Biso   1.000  O
  H65      1.0000 0.81212  0.89390  0.45751  Biso   1.000  H
  H66      1.0000 0.58451  0.75988  0.60650  Biso   1.000  H
  C175     1.0000 0.88523  0.06351  0.56220  Biso   1.000  C
  C176     1.0000 0.62014  0.91309  0.73210  Biso   1.000  C
  C177     1.0000 0.03973  0.49870  0.68789  Biso   1.000  C
  C178     1.0000 0.02703  0.43940  0.69430  Biso   1.000  C
  C179     1.0000 0.65633  0.16921  0.01029  Biso   1.000  C
  C180     1.0000 0.68664  0.14420  0.98031  Biso   1.000  C
  C181     1.0000 0.87642  0.10569  0.59190  Biso   1.000  C
  C182     1.0000 0.93443  0.06419  0.54431  Biso   1.000  C
  C183     1.0000 0.64582  0.96549  0.74699  Biso   1.000  C
  C184     1.0000 0.60174  0.87212  0.76081  Biso   1.000  C
  C185     1.0000 0.09065  0.51811  0.67979  Biso   1.000  C
  C186     1.0000 0.06582  0.39538  0.69371  Biso   1.000  C
  C187     1.0000 0.65442  0.14729  0.04969  Biso   1.000  C
  C188     1.0000 0.71675  0.09350  0.98841  Biso   1.000  C
  C189     1.0000 0.91601  0.14711  0.60450  Biso   1.000  C
  H67      1.0000 0.84234  0.10668  0.60409  Biso   1.000  H
  H68      1.0000 0.94044  0.03698  0.52230  Biso   1.000  H
  C190     1.0000 0.97502  0.10300  0.55751  Biso   1.000  C
  C191     1.0000 0.65592  0.97418  0.78961  Biso   1.000  C
  H69      1.0000 0.65622  0.99529  0.72791  Biso   1.000  H
  H70      1.0000 0.58142  0.83801  0.75099  Biso   1.000  H
  C192     1.0000 0.61263  0.88073  0.80321  Biso   1.000  C
  C193     1.0000 0.13032  0.47382  0.67951  Biso   1.000  C
  H71      1.0000 0.09832  0.55899  0.67470  Biso   1.000  H
  C194     1.0000 0.06082  0.32828  0.69862  Biso   1.000  C
  C195     1.0000 0.11923  0.41421  0.68670  Biso   1.000  C
  C196     1.0000 0.68500  0.09511  0.05810  Biso   1.000  C
  H72      1.0000 0.63382  0.16598  0.07011  Biso   1.000  H
  C197     1.0000 0.74925  0.05719  0.95889  Biso   1.000  C
  C198     1.0000 0.71550  0.06822  0.02849  Biso   1.000  C
  C199     1.0000 0.96654  0.14612  0.58740  Biso   1.000  C
  H73      1.0000 0.90882  0.17620  0.62501  Biso   1.000  H
  H74      1.0000 0.00952  0.10031  0.54609  Biso   1.000  H
  H75      1.0000 0.67295  0.01009  0.79949  Biso   1.000  H
  C200     1.0000 0.64132  0.93070  0.81822  Biso   1.000  C
  H76      1.0000 0.60045  0.85199  0.82241  Biso   1.000  H
  Br19     1.0000 0.20096  0.49695  0.66485  Biso   1.000  Br
  C201     1.0000 0.08452  0.30112  0.66050  Biso   1.000  C
  H77      1.0000 0.02285  0.31470  0.70259  Biso   1.000  H
  C202     1.0000 0.10103  0.31228  0.73470  Biso   1.000  C
  C203     1.0000 0.15923  0.36262  0.68780  Biso   1.000  C
  Br20     1.0000 0.68410  0.06127  0.11307  Biso   1.000  Br
  C204     1.0000 0.72224  0.99641  0.95880  Biso   1.000  C
  H78      1.0000 0.75013  0.07530  0.93041  Biso   1.000  H
  C205     1.0000 0.80583  0.04948  0.98131  Biso   1.000  C
  C206     1.0000 0.74711  0.00941  0.03249  Biso   1.000  C
  B21      1.0000 0.01223  0.19050  0.60000  Biso   1.000  B
  B22      1.0000 0.65974  0.93590  0.86490  Biso   1.000  B
  C207     1.0000 0.06263  0.25912  0.63380  Biso   1.000  C
  C208     1.0000 0.13844  0.31959  0.65422  Biso   1.000  C
  C209     1.0000 0.15524  0.32981  0.72901  Biso   1.000  C
  C210     1.0000 0.09334  0.28059  0.77031  Biso   1.000  C
  H79      1.0000 0.19723  0.37620  0.68370  Biso   1.000  H
  C211     1.0000 0.69735  0.96602  0.92609  Biso   1.000  C
  C212     1.0000 0.72266  0.96898  0.99841  Biso   1.000  C
  C213     1.0000 0.85515  0.06459  0.96761  Biso   1.000  C
  C214     1.0000 0.80493  0.02268  0.02111  Biso   1.000  C
  H80      1.0000 0.74602  0.99113  0.06092  Biso   1.000  H
  O41      1.0000 0.06024  0.19278  0.58021  Biso   1.000  O
  O42      1.0000 0.01194  0.23191  0.63255  Biso   1.000  O
  O43      1.0000 0.64963  0.89018  0.89379  Biso   1.000  O
  O44      1.0000 0.69017  0.98221  0.88444  Biso   1.000  O
  C215     1.0000 0.09164  0.23568  0.60200  Biso   1.000  C
  C216     1.0000 0.16624  0.29520  0.62251  Biso   1.000  C
  C217     1.0000 0.19732  0.31192  0.75721  Biso   1.000  C
  C218     1.0000 0.13573  0.26490  0.79839  Biso   1.000  C
  O45      1.0000 0.04504  0.25791  0.78451  Biso   1.000  O
  C219     1.0000 0.67276  0.91031  0.93169  Biso   1.000  C
  C220     1.0000 0.69862  0.91398  0.00282  Biso   1.000  C
  C221     1.0000 0.90264  0.05329  0.99232  Biso   1.000  C
  O46      1.0000 0.86779  0.09292  0.93103  Biso   1.000  O
  C222     1.0000 0.85301  0.01188  0.04472  Biso   1.000  C
  C223     1.0000 0.14331  0.25249  0.59509  Biso   1.000  C
  Br21     1.0000 0.23936  0.31936  0.61582  Biso   1.000  Br
  Br22     1.0000 0.27030  0.33263  0.74755  Biso   1.000  Br
  C224     1.0000 0.18874  0.27902  0.79280  Biso   1.000  C
  O47      1.0000 0.11655  0.23129  0.83069  Biso   1.000  O
  B23      1.0000 0.05984  0.22819  0.82109  Biso   1.000  B
  C225     1.0000 0.67356  0.88252  0.96961  Biso   1.000  C
  Br23     1.0000 0.70075  0.87799  0.05720  Biso   1.000  Br
  O48      1.0000 0.94662  0.07320  0.97146  Biso   1.000  O
  C226     1.0000 0.90300  0.02658  0.03031  Biso   1.000  C
  B24      1.0000 0.92455  0.09852  0.93491  Biso   1.000  B
  Br24     1.0000 0.85139  0.97557  0.09803  Biso   1.000  Br
  H81      1.0000 0.16241  0.23622  0.57289  Biso   1.000  H
  H82      1.0000 0.21784  0.26701  0.81199  Biso   1.000  H
  C227     1.0000 0.02343  0.19359  0.84952  Biso   1.000  C
  H83      1.0000 0.65795  0.84402  0.97312  Biso   1.000  H
  H84      1.0000 0.93612  0.01842  0.04631  Biso   1.000  H
  C228     1.0000 0.95865  0.13070  0.90320  Biso   1.000  C
  C229     1.0000 0.96672  0.19592  0.84401  Biso   1.000  C
  C230     1.0000 0.04666  0.15930  0.88219  Biso   1.000  C
  C231     1.0000 0.93564  0.16459  0.87071  Biso   1.000  C
  C232     1.0000 0.01492  0.12900  0.90839  Biso   1.000  C
  H85      1.0000 0.94962  0.21892  0.82191  Biso   1.000  H
  H86      1.0000 0.08515  0.15688  0.88641  Biso   1.000  H
  H87      1.0000 0.89716  0.16652  0.86659  Biso   1.000  H
  H88      1.0000 0.03184  0.10632  0.93081  Biso   1.000  H
  C233     1.0000 0.67351  0.61748  0.46961  Biso   1.000  C
  C234     1.0000 0.69861  0.58602  0.50279  Biso   1.000  C
  C235     1.0000 0.67271  0.58969  0.43171  Biso   1.000  C
  H89      1.0000 0.65791  0.65598  0.47311  Biso   1.000  H
  C236     1.0000 0.72262  0.53102  0.49841  Biso   1.000  C
  Br25     1.0000 0.70079  0.62205  0.55719  Biso   1.000  Br
  C237     1.0000 0.69730  0.53402  0.42609  Biso   1.000  C
  O49      1.0000 0.64963  0.60982  0.39379  Biso   1.000  O
  C238     1.0000 0.72224  0.50359  0.45879  Biso   1.000  C
  C239     1.0000 0.74711  0.49059  0.53249  Biso   1.000  C
  O50      1.0000 0.69016  0.51779  0.38444  Biso   1.000  O
  B25      1.0000 0.65974  0.56410  0.36490  Biso   1.000  B
  C240     1.0000 0.74924  0.44281  0.45889  Biso   1.000  C
  C241     1.0000 0.71554  0.43182  0.52849  Biso   1.000  C
  C242     1.0000 0.80492  0.47732  0.52111  Biso   1.000  C
  H90      1.0000 0.74601  0.50892  0.56091  Biso   1.000  H
  C243     1.0000 0.64132  0.56930  0.31821  Biso   1.000  C
  C244     1.0000 0.71674  0.40650  0.48840  Biso   1.000  C
  H91      1.0000 0.75013  0.42470  0.43040  Biso   1.000  H
  C245     1.0000 0.80582  0.45052  0.48131  Biso   1.000  C
  C246     1.0000 0.68503  0.40489  0.55810  Biso   1.000  C
  C247     1.0000 0.85304  0.48812  0.54472  Biso   1.000  C
  C248     1.0000 0.65591  0.52582  0.28960  Biso   1.000  C
  C249     1.0000 0.61263  0.61932  0.30320  Biso   1.000  C
  C250     1.0000 0.68663  0.35580  0.48030  Biso   1.000  C
  C251     1.0000 0.85511  0.43541  0.46761  Biso   1.000  C
  C252     1.0000 0.65441  0.35271  0.54969  Biso   1.000  C
  Br26     1.0000 0.68409  0.43873  0.61304  Biso   1.000  Br
  Br27     1.0000 0.85139  0.52443  0.59803  Biso   1.000  Br
  C253     1.0000 0.90303  0.47342  0.53030  Biso   1.000  C
  H92      1.0000 0.67291  0.48991  0.29951  Biso   1.000  H
  C254     1.0000 0.64581  0.53451  0.24702  Biso   1.000  C
  C255     1.0000 0.60173  0.62792  0.26080  Biso   1.000  C
  H93      1.0000 0.60040  0.64801  0.32240  Biso   1.000  H
  O51      1.0000 0.67895  0.32322  0.44347  Biso   1.000  O
  C256     1.0000 0.65633  0.33079  0.51029  Biso   1.000  C
  C257     1.0000 0.90263  0.44671  0.49231  Biso   1.000  C
  O52      1.0000 0.86778  0.40708  0.43103  Biso   1.000  O
  H94      1.0000 0.63381  0.33402  0.57011  Biso   1.000  H
  H95      1.0000 0.93611  0.48162  0.54631  Biso   1.000  H
  H96      1.0000 0.65622  0.50471  0.22791  Biso   1.000  H
  C258     1.0000 0.62010  0.58691  0.23210  Biso   1.000  C
  H97      1.0000 0.58142  0.66199  0.25099  Biso   1.000  H
  B26      1.0000 0.64151  0.27938  0.45201  Biso   1.000  B
  O53      1.0000 0.62773  0.28189  0.49309  Biso   1.000  O
  O54      1.0000 0.94658  0.42680  0.47146  Biso   1.000  O
  B27      1.0000 0.92451  0.40152  0.43490  Biso   1.000  B
  B28      1.0000 0.61913  0.60381  0.18539  Biso   1.000  B
  C259     1.0000 0.61442  0.23371  0.42071  Biso   1.000  C
  C260     1.0000 0.95860  0.36930  0.40320  Biso   1.000  C
  O55      1.0000 0.60119  0.65890  0.17035  Biso   1.000  O
  O56      1.0000 0.63807  0.56831  0.15362  Biso   1.000  O
  C261     1.0000 0.63502  0.21909  0.38281  Biso   1.000  C
  C262     1.0000 0.56863  0.20372  0.43171  Biso   1.000  C
  C263     1.0000 0.93563  0.33541  0.37071  Biso   1.000  C
  C264     1.0000 0.01491  0.37100  0.40839  Biso   1.000  C
  C265     1.0000 0.60911  0.65849  0.12820  Biso   1.000  C
  C266     1.0000 0.63162  0.60359  0.11791  Biso   1.000  C
  C267     1.0000 0.61072  0.17521  0.35730  Biso   1.000  C
  H98      1.0000 0.66621  0.23940  0.37431  Biso   1.000  H
  C268     1.0000 0.54384  0.16051  0.40611  Biso   1.000  C
  H99      1.0000 0.55370  0.21291  0.45751  Biso   1.000  H
  C269     1.0000 0.96672  0.30412  0.34401  Biso   1.000  C
  H100     1.0000 0.89711  0.33348  0.36662  Biso   1.000  H
  H101     1.0000 0.03184  0.39368  0.43081  Biso   1.000  H
  C270     1.0000 0.04661  0.34070  0.38219  Biso   1.000  C
  C271     1.0000 0.59839  0.70211  0.09921  Biso   1.000  C
  C272     1.0000 0.64210  0.59050  0.07761  Biso   1.000  C
  C273     1.0000 0.56493  0.14469  0.36880  Biso   1.000  C
  H102     1.0000 0.62552  0.16589  0.33150  Biso   1.000  H
  H103     1.0000 0.51172  0.14142  0.41430  Biso   1.000  H
  H104     1.0000 0.94962  0.28108  0.32190  Biso   1.000  H
  C274     1.0000 0.02342  0.30641  0.34951  Biso   1.000  C
  H105     1.0000 0.08510  0.34312  0.38641  Biso   1.000  H
  C275     1.0000 0.60902  0.68830  0.05831  Biso   1.000  C
  H106     1.0000 0.58450  0.74012  0.10650  Biso   1.000  H
  C276     1.0000 0.66611  0.53299  0.06078  Biso   1.000  C
  C277     1.0000 0.62810  0.63299  0.04640  Biso   1.000  C
  B29      1.0000 0.54002  0.09251  0.34279  Biso   1.000  B
  B30      1.0000 0.05980  0.27181  0.32109  Biso   1.000  B
  Br28     1.0000 0.59762  0.74922  0.01710  Biso   1.000  Br
  C278     1.0000 0.62201  0.50982  0.02989  Biso   1.000  C
  H107     1.0000 0.67731  0.50341  0.08320  Biso   1.000  H
  C279     1.0000 0.71280  0.55168  0.03430  Biso   1.000  C
  C280     1.0000 0.63732  0.61031  0.00291  Biso   1.000  C
  O57      1.0000 0.49940  0.05509  0.35630  Biso   1.000  O
  O58      1.0000 0.55476  0.07562  0.30345  Biso   1.000  O
  O59      1.0000 0.11654  0.26871  0.33069  Biso   1.000  O
  O60      1.0000 0.04503  0.24209  0.28451  Biso   1.000  O
  C281     1.0000 0.59630  0.45549  0.02980  Biso   1.000  C
  C282     1.0000 0.60683  0.55061  0.99778  Biso   1.000  C
  C283     1.0000 0.69662  0.59359  0.00281  Biso   1.000  C
  C284     1.0000 0.76481  0.53079  0.03489  Biso   1.000  C
  H108     1.0000 0.62605  0.63989  0.98058  Biso   1.000  H
  C285     1.0000 0.48990  0.01300  0.32500  Biso   1.000  C
  C286     1.0000 0.52320  0.02519  0.29310  Biso   1.000  C
  C287     1.0000 0.13572  0.23510  0.29839  Biso   1.000  C
  C288     1.0000 0.09330  0.21941  0.27031  Biso   1.000  C
  O61      1.0000 0.60260  0.40982  0.05869  Biso   1.000  O
  C289     1.0000 0.55885  0.43949  0.99778  Biso   1.000  C
  C290     1.0000 0.56954  0.53272  0.96589  Biso   1.000  C
  C291     1.0000 0.73385  0.61412  0.97539  Biso   1.000  C
  C292     1.0000 0.80120  0.55168  0.00719  Biso   1.000  C
  O62      1.0000 0.78992  0.48700  0.06041  Biso   1.000  O
  C293     1.0000 0.45443  0.96580  0.32331  Biso   1.000  C
  C294     1.0000 0.52140  0.99220  0.25762  Biso   1.000  C
  C295     1.0000 0.18873  0.22102  0.29279  Biso   1.000  C
  C296     1.0000 0.10102  0.18772  0.23470  Biso   1.000  C
  B31      1.0000 0.56669  0.36549  0.04381  Biso   1.000  B
  O63      1.0000 0.54009  0.38261  0.00597  Biso   1.000  O
  C297     1.0000 0.54462  0.47732  0.96548  Biso   1.000  C
  Br29     1.0000 0.55088  0.58534  0.92020  Biso   1.000  Br
  Br30     1.0000 0.71388  0.67360  0.93506  Biso   1.000  Br
  C298     1.0000 0.78702  0.59278  0.97671  Biso   1.000  C
  O64      1.0000 0.84979  0.52178  0.01401  Biso   1.000  O
  B32      1.0000 0.84209  0.48229  0.04631  Biso   1.000  B
  C299     1.0000 0.45249  0.93169  0.28719  Biso   1.000  C
  H109     1.0000 0.43222  0.95701  0.34570  Biso   1.000  H
  C300     1.0000 0.55511  0.99839  0.21972  Biso   1.000  C
  C301     1.0000 0.48453  0.94379  0.25430  Biso   1.000  C
  C302     1.0000 0.19731  0.18812  0.25721  Biso   1.000  C
  H110     1.0000 0.21783  0.23299  0.31199  Biso   1.000  H
  C303     1.0000 0.06081  0.17172  0.19861  Biso   1.000  C
  C304     1.0000 0.15520  0.17019  0.22901  Biso   1.000  C
  C305     1.0000 0.55642  0.30471  0.06441  Biso   1.000  C
  H111     1.0000 0.51882  0.46589  0.94359  Biso   1.000  H
  H112     1.0000 0.81215  0.60610  0.95751  Biso   1.000  H
  C306     1.0000 0.88519  0.43649  0.06219  Biso   1.000  C
  Br31     1.0000 0.40227  0.86656  0.28244  Biso   1.000  Br
  H113     1.0000 0.58173  0.03232  0.22241  Biso   1.000  H
  C307     1.0000 0.51421  0.00529  0.18279  Biso   1.000  C
  C308     1.0000 0.58199  0.93841  0.21390  Biso   1.000  C
  C309     1.0000 0.48612  0.91022  0.21306  Biso   1.000  C
  Br32     1.0000 0.27025  0.16737  0.24755  Biso   1.000  Br
  C310     1.0000 0.06581  0.10462  0.19370  Biso   1.000  C
  H114     1.0000 0.02280  0.18530  0.20262  Biso   1.000  H
  C311     1.0000 0.08451  0.19888  0.16050  Biso   1.000  C
  C312     1.0000 0.15922  0.13738  0.18779  Biso   1.000  C
  C313     1.0000 0.57718  0.28879  0.10409  Biso   1.000  C
  C314     1.0000 0.52269  0.26432  0.04290  Biso   1.000  C
  C315     1.0000 0.87641  0.39431  0.09190  Biso   1.000  C
  C316     1.0000 0.93439  0.43581  0.04431  Biso   1.000  C
  C317     1.0000 0.51032  0.04890  0.15349  Biso   1.000  C
  C318     1.0000 0.47741  0.95621  0.17795  Biso   1.000  C
  C319     1.0000 0.54522  0.89000  0.21031  Biso   1.000  C
  C320     1.0000 0.63602  0.92492  0.20971  Biso   1.000  C
  H115     1.0000 0.45963  0.87629  0.21049  Biso   1.000  H
  C321     1.0000 0.02702  0.06060  0.19430  Biso   1.000  C
  C322     1.0000 0.11922  0.08579  0.18670  Biso   1.000  C
  C323     1.0000 0.13839  0.18041  0.15421  Biso   1.000  C
  C324     1.0000 0.06262  0.24092  0.13379  Biso   1.000  C
  H116     1.0000 0.19722  0.12380  0.18370  Biso   1.000  H
  C325     1.0000 0.56542  0.23250  0.12069  Biso   1.000  C
  H117     1.0000 0.59960  0.31618  0.12019  Biso   1.000  H
  C326     1.0000 0.51030  0.20968  0.05932  Biso   1.000  C
  H118     1.0000 0.50752  0.27472  0.01592  Biso   1.000  H
  C327     1.0000 0.91601  0.35289  0.10450  Biso   1.000  C
  H119     1.0000 0.84230  0.39332  0.10409  Biso   1.000  H
  C328     1.0000 0.97501  0.39700  0.05750  Biso   1.000  C
  H120     1.0000 0.94039  0.46302  0.02229  Biso   1.000  H
  C329     1.0000 0.47300  0.04509  0.11901  Biso   1.000  C
  O65      1.0000 0.53844  0.10296  0.15162  Biso   1.000  O
  C330     1.0000 0.44132  0.95303  0.14311  Biso   1.000  C
  C331     1.0000 0.56371  0.83250  0.20321  Biso   1.000  C
  C332     1.0000 0.65262  0.86741  0.20290  Biso   1.000  C
  O66      1.0000 0.67995  0.96410  0.21125  Biso   1.000  O
  O67      1.0000 0.97238  0.06562  0.20121  Biso   1.000  O
  C333     1.0000 0.03973  0.00130  0.18789  Biso   1.000  C
  C334     1.0000 0.13032  0.02622  0.17951  Biso   1.000  C
  C335     1.0000 0.16619  0.20480  0.12251  Biso   1.000  C
  C336     1.0000 0.09159  0.26432  0.10200  Biso   1.000  C
  O68      1.0000 0.01193  0.26809  0.13254  Biso   1.000  O
  C337     1.0000 0.53169  0.19220  0.09821  Biso   1.000  C
  H121     1.0000 0.58072  0.22169  0.14771  Biso   1.000  H
  H122     1.0000 0.48670  0.18328  0.04349  Biso   1.000  H
  C338     1.0000 0.96649  0.35392  0.08739  Biso   1.000  C
  H123     1.0000 0.90881  0.32380  0.12501  Biso   1.000  H
  H124     1.0000 0.00952  0.39969  0.04609  Biso   1.000  H
  O69      1.0000 0.47794  0.09511  0.09408  Biso   1.000  O
  C339     1.0000 0.43920  0.99709  0.11219  Biso   1.000  C
  B33      1.0000 0.51730  0.13088  0.11541  Biso   1.000  B
  Br33     1.0000 0.39312  0.88705  0.13605  Biso   1.000  Br
  Br34     1.0000 0.51200  0.76894  0.19680  Biso   1.000  Br
  C340     1.0000 0.61821  0.81918  0.19930  Biso   1.000  C
  O70      1.0000 0.70893  0.86800  0.20021  Biso   1.000  O
  B34      1.0000 0.72440  0.92712  0.20571  Biso   1.000  B
  B35      1.0000 0.95192  0.00722  0.19889  Biso   1.000  B
  O71      1.0000 0.99272  0.96652  0.19017  Biso   1.000  O
  C341     1.0000 0.09060  0.98189  0.17979  Biso   1.000  C
  Br35     1.0000 0.20091  0.00305  0.16488  Biso   1.000  Br
  Br36     1.0000 0.23936  0.18064  0.11582  Biso   1.000  Br
  C342     1.0000 0.14330  0.24751  0.09509  Biso   1.000  C
  O72      1.0000 0.06019  0.30722  0.08020  Biso   1.000  O
  B36      1.0000 0.01222  0.30950  0.09999  Biso   1.000  B
  H125     1.0000 0.41552  0.99381  0.08771  Biso   1.000  H
  H126     1.0000 0.63070  0.77970  0.19461  Biso   1.000  H
  C343     1.0000 0.78359  0.94939  0.20449  Biso   1.000  C
  C344     1.0000 0.89261  0.98812  0.20249  Biso   1.000  C
  H127     1.0000 0.09831  0.94101  0.17469  Biso   1.000  H
  H128     1.0000 0.16241  0.26378  0.07289  Biso   1.000  H
  C345     1.0000 0.79773  0.00879  0.21100  Biso   1.000  C
  C346     1.0000 0.82520  0.90941  0.19761  Biso   1.000  C
  C347     1.0000 0.85160  0.02770  0.21059  Biso   1.000  C
  C348     1.0000 0.87880  0.92792  0.19689  Biso   1.000  C
  H129     1.0000 0.77012  0.03720  0.21600  Biso   1.000  H
  H130     1.0000 0.81670  0.86822  0.19330  Biso   1.000  H
  H131     1.0000 0.86020  0.06858  0.21600  Biso   1.000  H
  H132     1.0000 0.90642  0.89928  0.19252  Biso   1.000  H
  C349     1.0000 0.32650  0.38252  0.53040  Biso   1.000  C
  C350     1.0000 0.30140  0.41398  0.49719  Biso   1.000  C
  H133     1.0000 0.34211  0.34402  0.52689  Biso   1.000  H
  C351     1.0000 0.32734  0.41031  0.56829  Biso   1.000  C
  Br37     1.0000 0.29927  0.37799  0.44281  Biso   1.000  Br
  C352     1.0000 0.27744  0.46898  0.50160  Biso   1.000  C
  C353     1.0000 0.30271  0.46602  0.57389  Biso   1.000  C
  O73      1.0000 0.35043  0.39018  0.60622  Biso   1.000  O
  C354     1.0000 0.25291  0.50941  0.46752  Biso   1.000  C
  C355     1.0000 0.27782  0.49641  0.54121  Biso   1.000  C
  O74      1.0000 0.30989  0.48221  0.61554  Biso   1.000  O
  B37      1.0000 0.34032  0.43590  0.63511  Biso   1.000  B
  H134     1.0000 0.25400  0.49108  0.43909  Biso   1.000  H
  C356     1.0000 0.19513  0.52268  0.47890  Biso   1.000  C
  C357     1.0000 0.28451  0.56822  0.47149  Biso   1.000  C
  C358     1.0000 0.25081  0.55719  0.54109  Biso   1.000  C
  C359     1.0000 0.35874  0.43070  0.68179  Biso   1.000  C
  C360     1.0000 0.19423  0.54948  0.51870  Biso   1.000  C
  C361     1.0000 0.14701  0.51192  0.45529  Biso   1.000  C
  C362     1.0000 0.28331  0.59350  0.51160  Biso   1.000  C
  C363     1.0000 0.31502  0.59511  0.44191  Biso   1.000  C
  H135     1.0000 0.24993  0.57530  0.56961  Biso   1.000  H
  C364     1.0000 0.34414  0.47418  0.71040  Biso   1.000  C
  C365     1.0000 0.38743  0.38068  0.69680  Biso   1.000  C
  C366     1.0000 0.14491  0.56459  0.53240  Biso   1.000  C
  Br38     1.0000 0.14867  0.47557  0.40198  Biso   1.000  Br
  C367     1.0000 0.09702  0.52658  0.46971  Biso   1.000  C
  C368     1.0000 0.31342  0.64420  0.51970  Biso   1.000  C
  Br39     1.0000 0.31596  0.56127  0.38694  Biso   1.000  Br
  C369     1.0000 0.34564  0.64729  0.45029  Biso   1.000  C
  H136     1.0000 0.32715  0.51009  0.70049  Biso   1.000  H
  C370     1.0000 0.35424  0.46549  0.75299  Biso   1.000  C
  C371     1.0000 0.39832  0.37212  0.73920  Biso   1.000  C
  H137     1.0000 0.39965  0.35199  0.67760  Biso   1.000  H
  C372     1.0000 0.09742  0.55329  0.50770  Biso   1.000  C
  O75      1.0000 0.13227  0.59292  0.56895  Biso   1.000  O
  H138     1.0000 0.06390  0.51842  0.45370  Biso   1.000  H
  C373     1.0000 0.34373  0.66921  0.48972  Biso   1.000  C
  O76      1.0000 0.32110  0.67678  0.55654  Biso   1.000  O
  H139     1.0000 0.36624  0.66602  0.42990  Biso   1.000  H
  H140     1.0000 0.34384  0.49529  0.77210  Biso   1.000  H
  C374     1.0000 0.37992  0.41309  0.76791  Biso   1.000  C
  H141     1.0000 0.41863  0.33801  0.74899  Biso   1.000  H
  O77      1.0000 0.05348  0.57320  0.52855  Biso   1.000  O
  B38      1.0000 0.07551  0.59852  0.56510  Biso   1.000  B
  O78      1.0000 0.37232  0.71811  0.50691  Biso   1.000  O
  B39      1.0000 0.35851  0.72062  0.54800  Biso   1.000  B
  B40      1.0000 0.38092  0.39619  0.81459  Biso   1.000  B
  C375     1.0000 0.04141  0.63070  0.59681  Biso   1.000  C
  C376     1.0000 0.38563  0.76629  0.57930  Biso   1.000  C
  O79      1.0000 0.39882  0.34110  0.82966  Biso   1.000  O
  O80      1.0000 0.36198  0.43169  0.84639  Biso   1.000  O
  C377     1.0000 0.06442  0.66459  0.62930  Biso   1.000  C
  C378     1.0000 0.98514  0.62900  0.59159  Biso   1.000  C
  C379     1.0000 0.36504  0.78091  0.61720  Biso   1.000  C
  C380     1.0000 0.43142  0.79632  0.56829  Biso   1.000  C
  C381     1.0000 0.39094  0.34151  0.87181  Biso   1.000  C
  C382     1.0000 0.36843  0.39641  0.88210  Biso   1.000  C
  C383     1.0000 0.03334  0.69592  0.65600  Biso   1.000  C
  H142     1.0000 0.10294  0.66652  0.63339  Biso   1.000  H
  H143     1.0000 0.96822  0.60632  0.56920  Biso   1.000  H
  C384     1.0000 0.95344  0.65930  0.61779  Biso   1.000  C
  C385     1.0000 0.38934  0.82479  0.64271  Biso   1.000  C
  H144     1.0000 0.33384  0.76060  0.62570  Biso   1.000  H
  H145     1.0000 0.44631  0.78709  0.54250  Biso   1.000  H
  C386     1.0000 0.45622  0.83949  0.59390  Biso   1.000  C
  C387     1.0000 0.40162  0.29789  0.90079  Biso   1.000  C
  C388     1.0000 0.35795  0.40950  0.92240  Biso   1.000  C
  H146     1.0000 0.05044  0.71892  0.67811  Biso   1.000  H
  C389     1.0000 0.97663  0.69359  0.65050  Biso   1.000  C
  H147     1.0000 0.91491  0.65693  0.61360  Biso   1.000  H
  C390     1.0000 0.43512  0.85531  0.63120  Biso   1.000  C
  H148     1.0000 0.37453  0.83411  0.66851  Biso   1.000  H
  H149     1.0000 0.48833  0.85858  0.58571  Biso   1.000  H
  C391     1.0000 0.39104  0.31170  0.94169  Biso   1.000  C
  H150     1.0000 0.41555  0.25988  0.89351  Biso   1.000  H
  C392     1.0000 0.33394  0.46701  0.93919  Biso   1.000  C
  C393     1.0000 0.37196  0.36701  0.95361  Biso   1.000  C
  B41      1.0000 0.94021  0.72819  0.67889  Biso   1.000  B
  B42      1.0000 0.46003  0.90749  0.65719  Biso   1.000  B
  Br40     1.0000 0.40244  0.25078  0.98290  Biso   1.000  Br
  H151     1.0000 0.32275  0.49659  0.91680  Biso   1.000  H
  C394     1.0000 0.28726  0.44832  0.96571  Biso   1.000  C
  C395     1.0000 0.37805  0.49018  0.97012  Biso   1.000  C
  C396     1.0000 0.36273  0.38969  0.99710  Biso   1.000  C
  O81      1.0000 0.88351  0.73129  0.66932  Biso   1.000  O
  O82      1.0000 0.95502  0.75791  0.71550  Biso   1.000  O
  O83      1.0000 0.50065  0.94491  0.64368  Biso   1.000  O
  O84      1.0000 0.44529  0.92438  0.69655  Biso   1.000  O
  C397     1.0000 0.30344  0.40641  0.99719  Biso   1.000  C
  C398     1.0000 0.23524  0.46921  0.96511  Biso   1.000  C
  C399     1.0000 0.40375  0.54451  0.97021  Biso   1.000  C
  C400     1.0000 0.39322  0.44939  0.00220  Biso   1.000  C
  H152     1.0000 0.37400  0.36011  0.01939  Biso   1.000  H
  C401     1.0000 0.86433  0.76490  0.70159  Biso   1.000  C
  C402     1.0000 0.90672  0.78059  0.72970  Biso   1.000  C
  C403     1.0000 0.51012  0.98700  0.67501  Biso   1.000  C
  C404     1.0000 0.47685  0.97481  0.70690  Biso   1.000  C
  C405     1.0000 0.26621  0.38588  0.02462  Biso   1.000  C
  C406     1.0000 0.19885  0.44832  0.99282  Biso   1.000  C
  O85      1.0000 0.21013  0.51300  0.93960  Biso   1.000  O
  O86      1.0000 0.39746  0.59018  0.94132  Biso   1.000  O
  C407     1.0000 0.44121  0.56051  0.00220  Biso   1.000  C
  C408     1.0000 0.43051  0.46732  0.03412  Biso   1.000  C
  C409     1.0000 0.81132  0.77902  0.70722  Biso   1.000  C
  C410     1.0000 0.89903  0.81228  0.76531  Biso   1.000  C
  C411     1.0000 0.54562  0.03420  0.67670  Biso   1.000  C
  C412     1.0000 0.47861  0.00780  0.74239  Biso   1.000  C
  Br41     1.0000 0.28617  0.32640  0.06495  Biso   1.000  Br
  C413     1.0000 0.21299  0.40722  0.02330  Biso   1.000  C
  O87      1.0000 0.15026  0.47822  0.98600  Biso   1.000  O
  B43      1.0000 0.15796  0.51771  0.95370  Biso   1.000  B
  B44      1.0000 0.43336  0.63451  0.95620  Biso   1.000  B
  O88      1.0000 0.45993  0.61739  0.99404  Biso   1.000  O
  C414     1.0000 0.45543  0.52268  0.03450  Biso   1.000  C
  Br42     1.0000 0.44917  0.41466  0.07980  Biso   1.000  Br
  C415     1.0000 0.80274  0.81192  0.74280  Biso   1.000  C
  H153     1.0000 0.78222  0.76701  0.68802  Biso   1.000  H
  C416     1.0000 0.93924  0.82828  0.80139  Biso   1.000  C
  C417     1.0000 0.84481  0.82981  0.77100  Biso   1.000  C
  C418     1.0000 0.54752  0.06831  0.71281  Biso   1.000  C
  H154     1.0000 0.56783  0.04299  0.65431  Biso   1.000  H
  C419     1.0000 0.44495  0.00161  0.78029  Biso   1.000  C
  C420     1.0000 0.51552  0.05621  0.74571  Biso   1.000  C
  H155     1.0000 0.18790  0.39390  0.04250  Biso   1.000  H
  C421     1.0000 0.11483  0.56351  0.93782  Biso   1.000  C
  C422     1.0000 0.44363  0.69529  0.93560  Biso   1.000  C
  H156     1.0000 0.48120  0.53411  0.05641  Biso   1.000  H
  Br43     1.0000 0.72976  0.83263  0.75246  Biso   1.000  Br
  H157     1.0000 0.97725  0.81470  0.79739  Biso   1.000  H
  C423     1.0000 0.93424  0.89538  0.80630  Biso   1.000  C
  C424     1.0000 0.91554  0.80112  0.83951  Biso   1.000  C
  C425     1.0000 0.84083  0.86262  0.81221  Biso   1.000  C
  Br44     1.0000 0.59779  0.13348  0.71757  Biso   1.000  Br
  H158     1.0000 0.41832  0.96768  0.77760  Biso   1.000  H
  C426     1.0000 0.48584  0.99471  0.81722  Biso   1.000  C
  C427     1.0000 0.41802  0.06159  0.78610  Biso   1.000  C
  C428     1.0000 0.51393  0.08978  0.78695  Biso   1.000  C
  C429     1.0000 0.12364  0.60569  0.90811  Biso   1.000  C
  C430     1.0000 0.06563  0.56419  0.95570  Biso   1.000  C
  C431     1.0000 0.42283  0.71121  0.89592  Biso   1.000  C
  C432     1.0000 0.47736  0.73572  0.95711  Biso   1.000  C
  C433     1.0000 0.88083  0.91421  0.81331  Biso   1.000  C
  C434     1.0000 0.97303  0.93940  0.80571  Biso   1.000  C
  C435     1.0000 0.86162  0.81959  0.84579  Biso   1.000  C
  C436     1.0000 0.93743  0.75912  0.86621  Biso   1.000  C
  H159     1.0000 0.80283  0.87620  0.81631  Biso   1.000  H
  C437     1.0000 0.48974  0.95110  0.84651  Biso   1.000  C
  C438     1.0000 0.52264  0.04379  0.82206  Biso   1.000  C
  C439     1.0000 0.45483  0.11000  0.78970  Biso   1.000  C
  C440     1.0000 0.36404  0.07508  0.79029  Biso   1.000  C
  H160     1.0000 0.54043  0.12371  0.78951  Biso   1.000  H
  C441     1.0000 0.08405  0.64711  0.89551  Biso   1.000  C
  H161     1.0000 0.15776  0.60672  0.89592  Biso   1.000  H
  H162     1.0000 0.05966  0.53702  0.97771  Biso   1.000  H
  C442     1.0000 0.02504  0.60300  0.94251  Biso   1.000  C
  H163     1.0000 0.40046  0.68382  0.87981  Biso   1.000  H
  C443     1.0000 0.43463  0.76750  0.87931  Biso   1.000  C
  C444     1.0000 0.48975  0.79032  0.94069  Biso   1.000  C
  H164     1.0000 0.49254  0.72532  0.98409  Biso   1.000  H
  C445     1.0000 0.86974  0.97382  0.82050  Biso   1.000  C
  O89      1.0000 0.02767  0.93442  0.79880  Biso   1.000  O
  C446     1.0000 0.96032  0.99870  0.81209  Biso   1.000  C
  C447     1.0000 0.83382  0.79520  0.87750  Biso   1.000  C
  C448     1.0000 0.90846  0.73572  0.89801  Biso   1.000  C
  O90      1.0000 0.98812  0.73191  0.86746  Biso   1.000  O
  C449     1.0000 0.52705  0.95491  0.88100  Biso   1.000  C
  O91      1.0000 0.46161  0.89704  0.84839  Biso   1.000  O
  C450     1.0000 0.55873  0.04702  0.85689  Biso   1.000  C
  C451     1.0000 0.43634  0.16750  0.79680  Biso   1.000  C
  C452     1.0000 0.34743  0.13259  0.79711  Biso   1.000  C
  O92      1.0000 0.32006  0.03590  0.78876  Biso   1.000  O
  C453     1.0000 0.03356  0.64612  0.91261  Biso   1.000  C
  H165     1.0000 0.09124  0.67620  0.87500  Biso   1.000  H
  H166     1.0000 0.99053  0.60031  0.95389  Biso   1.000  H
  C454     1.0000 0.46832  0.80780  0.90180  Biso   1.000  C
  H167     1.0000 0.41933  0.77831  0.85230  Biso   1.000  H
  H168     1.0000 0.51335  0.81672  0.95651  Biso   1.000  H
  Br45     1.0000 0.79914  0.99695  0.83513  Biso   1.000  Br
  C455     1.0000 0.90945  0.01811  0.82022  Biso   1.000  C
  B45      1.0000 0.04813  0.99278  0.80111  Biso   1.000  B
  O93      1.0000 0.00733  0.03348  0.80984  Biso   1.000  O
  Br46     1.0000 0.76070  0.81936  0.88419  Biso   1.000  Br
  C456     1.0000 0.85675  0.75249  0.90489  Biso   1.000  C
  O94      1.0000 0.93986  0.69278  0.91981  Biso   1.000  O
  B46      1.0000 0.98783  0.69050  0.90001  Biso   1.000  B
  O95      1.0000 0.52211  0.90489  0.90592  Biso   1.000  O
  C457     1.0000 0.56085  0.00291  0.88779  Biso   1.000  C
  B47      1.0000 0.48276  0.86912  0.88460  Biso   1.000  B
  Br47     1.0000 0.60693  0.11295  0.86396  Biso   1.000  Br
  Br48     1.0000 0.48805  0.23106  0.80318  Biso   1.000  Br
  C458     1.0000 0.38185  0.18082  0.80071  Biso   1.000  C
  O96      1.0000 0.29108  0.13200  0.79977  Biso   1.000  O
  B48      1.0000 0.27562  0.07288  0.79430  Biso   1.000  B
  H169     1.0000 0.90174  0.05899  0.82531  Biso   1.000  H
  C459     1.0000 0.10744  0.01188  0.79752  Biso   1.000  C
  H170     1.0000 0.83764  0.73622  0.92709  Biso   1.000  H
  H171     1.0000 0.58454  0.00619  0.91230  Biso   1.000  H
  H172     1.0000 0.36935  0.22030  0.80540  Biso   1.000  H
  C460     1.0000 0.21642  0.05061  0.79552  Biso   1.000  C
  C461     1.0000 0.14845  0.97230  0.78939  Biso   1.000  C
  C462     1.0000 0.12125  0.07212  0.80311  Biso   1.000  C
  C463     1.0000 0.20233  0.99121  0.78901  Biso   1.000  C
  C464     1.0000 0.17485  0.09059  0.80239  Biso   1.000  C
  H173     1.0000 0.13982  0.93142  0.78401  Biso   1.000  H
  H174     1.0000 0.09363  0.10072  0.80749  Biso   1.000  H
  H175     1.0000 0.22993  0.96280  0.78401  Biso   1.000  H
  H176     1.0000 0.18335  0.13178  0.80671  Biso   1.000  H
  Ne1      1.0000 0.24280  0.78737  0.26667  Biso   1.000  Ne
  He1      1.0000 0.23359  0.71571  0.34807  Biso   1.000  He
  He2      1.0000 0.39064  0.82580  0.24680  Biso   1.000  He
  He3      1.0000 0.16624  0.93476  0.25613  Biso   1.000  He
  He4      1.0000 0.19986  0.68629  0.19376  Biso   1.000  He
  Ar1      1.0000 0.23980  0.78686  0.26465  Biso   1.000  Ar
  Ne2      1.0000 0.75723  0.28737  0.23333  Biso   1.000  Ne
  He5      1.0000 0.80914  0.16638  0.32302  Biso   1.000  He
  He6      1.0000 0.62055  0.32356  0.25261  Biso   1.000  He
  He7      1.0000 0.82736  0.42302  0.24314  Biso   1.000  He
  He8      1.0000 0.76638  0.21641  0.15300  Biso   1.000  He
  Ar2      1.0000 0.76021  0.28686  0.23536  Biso   1.000  Ar
  Ne3      1.0000 0.24281  0.71264  0.76667  Biso   1.000  Ne
  He9      1.0000 0.23285  0.79097  0.85856  Biso   1.000  He
  He10     1.0000 0.39850  0.67265  0.74641  Biso   1.000  He
  He11     1.0000 0.17310  0.57773  0.75691  Biso   1.000  He
  He12     1.0000 0.19955  0.81454  0.69312  Biso   1.000  He
  Ar3      1.0000 0.23985  0.71314  0.76465  Biso   1.000  Ar
  Ne4      1.0000 0.75725  0.21264  0.73333  Biso   1.000  Ne
  He13     1.0000 0.80027  0.31397  0.80642  Biso   1.000  He
  He14     1.0000 0.59594  0.17154  0.75386  Biso   1.000  He
  He15     1.0000 0.83405  0.06476  0.74391  Biso   1.000  He
  He16     1.0000 0.76716  0.29050  0.64218  Biso   1.000  He
  Ar4      1.0000 0.76025  0.21314  0.73534  Biso   1.000  Ar
