
#######################################################################
#
#                 Cambridge Crystallographic Data Centre
#                                CCDC 
#
#######################################################################
#
# If this CIF has been generated from an entry in the Cambridge 
# Structural Database, then it will include bibliographic, chemical, 
# crystal, experimental, refinement or atomic coordinate data resulting 
# from the CCDC's data processing and validation procedures.
#
#######################################################################

data_PAWSEO
_chemical_formula_moiety         'C48 H79 N1 O39 2-,2(Rb1 1+)'
_chemical_name_systematic        
'di-rubidium monoamino-\g-cyclodextrin unknown solvate'
_symmetry_cell_setting           cubic
_symmetry_space_group_name_H-M   'I 4 3 2'
_symmetry_Int_Tables_number      211
_space_group_name_Hall           'I 4 2 3'
loop_
_symmetry_equiv_pos_site_id
_symmetry_equiv_pos_as_xyz
1 x,y,z
2 -y,x,z
3 -x,-y,z
4 y,-x,z
5 x,-z,y
6 x,-y,-z
7 x,z,-y
8 z,y,-x
9 -x,y,-z
10 -z,y,x
11 z,x,y
12 y,z,x
13 -y,-z,x
14 z,-x,-y
15 -y,z,-x
16 -z,-x,y
17 -z,x,-y
18 y,-z,-x
19 y,x,-z
20 -y,-x,-z
21 -x,z,y
22 -x,-z,-y
23 z,-y,x
24 -z,-y,-x
25 1/2+x,1/2+y,1/2+z
26 1/2-y,1/2+x,1/2+z
27 1/2-x,1/2-y,1/2+z
28 1/2+y,1/2-x,1/2+z
29 1/2+x,1/2-z,1/2+y
30 1/2+x,1/2-y,1/2-z
31 1/2+x,1/2+z,1/2-y
32 1/2+z,1/2+y,1/2-x
33 1/2-x,1/2+y,1/2-z
34 1/2-z,1/2+y,1/2+x
35 1/2+z,1/2+x,1/2+y
36 1/2+y,1/2+z,1/2+x
37 1/2-y,1/2-z,1/2+x
38 1/2+z,1/2-x,1/2-y
39 1/2-y,1/2+z,1/2-x
40 1/2-z,1/2-x,1/2+y
41 1/2-z,1/2+x,1/2-y
42 1/2+y,1/2-z,1/2-x
43 1/2+y,1/2+x,1/2-z
44 1/2-y,1/2-x,1/2-z
45 1/2-x,1/2+z,1/2+y
46 1/2-x,1/2-z,1/2-y
47 1/2+z,1/2-y,1/2+x
48 1/2-z,1/2-y,1/2-x
_cell_length_a                   31.0197(11)
_cell_length_b                   31.0197(11)
_cell_length_c                   31.0197(11)
_cell_angle_alpha                90
_cell_angle_beta                 90
_cell_angle_gamma                90
_cell_volume                     29847.8
_exptl_crystal_colour            colorless
_exptl_crystal_description       block
_cell_formula_units_Z            12
loop_
_atom_site_label
_atom_site_type_symbol
_atom_site_fract_x
_atom_site_fract_y
_atom_site_fract_z
Rb1 Rb 0.31410(2) 1.0000 0.31410(2)
O1B O 0.66870(11) 1.14392(13) 0.58264(12)
O2B O 0.72164(13) 1.17990(12) 0.48395(11)
O3B O 0.70445(16) 1.06579(13) 0.55196(14)
H1B H 0.6985 1.0424 0.5397
O4B O 0.71558(14) 1.06437(13) 0.45932(14)
H2B H 0.7122 1.0721 0.4336
O5B O 0.7445(2) 1.2251(2) 0.5579(2)
H3B H 0.7531 1.2506 0.5613
O6B O 0.67476(11) 1.14158(14) 0.43958(13)
O7B O 0.63999(16) 1.19261(16) 0.33815(16)
O8B O 0.68807(17) 1.07430(16) 0.37820(14)
H4B H 0.7085 1.0766 0.3605
O9B O 0.63781(16) 1.0806(2) 0.30189(15)
H5B H 0.6123 1.0756 0.3094
C1B C 0.69911(16) 1.14369(17) 0.54855(16)
H6B H 0.7289 1.1448 0.5609
C2B C 0.69327(18) 1.10110(19) 0.52405(17)
H7B H 0.6625 1.0982 0.5147
C3B C 0.72226(18) 1.10041(17) 0.48496(16)
H8B H 0.7528 1.0998 0.4952
C4B C 0.71557(17) 1.14275(18) 0.45878(17)
H9B H 0.7375 1.1432 0.4352
C5B C 0.69218(18) 1.18228(17) 0.52078(17)
H10B H 0.6619 1.1819 0.5099
C6B C 0.7009(2) 1.22561(19) 0.5417(2)
H11B H 0.6974 1.2490 0.5202
H12B H 0.6803 1.2306 0.5655
C7B C 0.67369(19) 1.1491(2) 0.39435(19)
H13B H 0.7033 1.1565 0.3840
C8B C 0.6583(2) 1.1085(2) 0.37163(18)
H14B H 0.6297 1.1000 0.3838
C9B C 0.6533(2) 1.1174(3) 0.32387(19)
H15B H 0.6824 1.1245 0.3120
C10B C 0.62471(19) 1.1553(2) 0.31647(18)
H16B H 0.6234 1.1614 0.2848
C11B C 0.6433(2) 1.1862(2) 0.3844(2)
H17B H 0.6140 1.1788 0.3959
C12B C 0.6575(2) 1.2288(3) 0.4041(3)
H18B H 0.6380 1.2524 0.3949
H19B H 0.6569 1.2270 0.4360
N1B N 0.6909(9) 1.2570(10) 0.3813(10)
H20B H 0.7020 1.2487 0.3566
H21B H 0.6990 1.2817 0.3929
O1W O 0.41736(12) 1.14392(13) 0.66870(11)
O2W O 0.51605(11) 1.17990(12) 0.72164(13)
O3W O 0.44804(14) 1.06579(13) 0.70445(16)
H1W H 0.4603 1.0424 0.6985
O4W O 0.54068(14) 1.06437(13) 0.71558(14)
H2W H 0.5664 1.0721 0.7122
O5W O 0.4421(2) 1.2251(2) 0.7445(2)
H3W H 0.4387 1.2506 0.7531
O6W O 0.56042(13) 1.14158(14) 0.67476(11)
O7W O 0.66185(16) 1.19261(16) 0.63999(16)
O8W O 0.62180(14) 1.07430(16) 0.68807(17)
H4W H 0.6395 1.0766 0.7085
O9W O 0.69811(15) 1.0806(2) 0.63781(16)
H5W H 0.6906 1.0756 0.6123
C1W C 0.45145(16) 1.14369(17) 0.69911(16)
H6W H 0.4391 1.1448 0.7289
C2W C 0.47595(17) 1.10110(19) 0.69327(18)
H7W H 0.4853 1.0982 0.6625
C3W C 0.51504(16) 1.10041(17) 0.72226(18)
H8W H 0.5048 1.0998 0.7528
C4W C 0.54122(17) 1.14275(18) 0.71557(17)
H9W H 0.5648 1.1432 0.7375
C5W C 0.47922(17) 1.18228(17) 0.69218(18)
H10W H 0.4901 1.1819 0.6619
C6W C 0.4583(2) 1.22561(19) 0.7009(2)
H11W H 0.4798 1.2490 0.6974
H12W H 0.4345 1.2306 0.6803
C7W C 0.60565(19) 1.1491(2) 0.67369(19)
H13W H 0.6160 1.1565 0.7033
C8W C 0.62837(18) 1.1085(2) 0.6583(2)
H14W H 0.6162 1.1000 0.6297
C9W C 0.67613(19) 1.1174(3) 0.6533(2)
H15W H 0.6880 1.1245 0.6824
C10W C 0.68353(18) 1.1553(2) 0.62471(19)
H16W H 0.7152 1.1614 0.6234
C11W C 0.6156(2) 1.1862(2) 0.6433(2)
H17W H 0.6041 1.1788 0.6140
C12W C 0.5959(3) 1.2288(3) 0.6575(2)
H18W H 0.6051 1.2524 0.6380
H19W H 0.5640 1.2270 0.6569
N1W N 0.6187(10) 1.2570(10) 0.6909(9)
H20W H 0.6434 1.2487 0.7020
H21W H 0.6071 1.2817 0.6990
O1V O 0.58264(12) 1.14392(13) 0.33130(11)
O2V O 0.48395(11) 1.17990(12) 0.27836(13)
O3V O 0.55196(14) 1.06579(13) 0.29555(16)
H1V H 0.5397 1.0424 0.3015
O4V O 0.45932(14) 1.06437(13) 0.28442(14)
H2V H 0.4336 1.0721 0.2878
O5V O 0.5579(2) 1.2251(2) 0.2555(2)
H3V H 0.5613 1.2506 0.2469
O6V O 0.43958(13) 1.14158(14) 0.32524(11)
O7V O 0.33815(16) 1.19261(16) 0.36001(16)
O8V O 0.37820(14) 1.07430(16) 0.31193(17)
H4V H 0.3605 1.0766 0.2915
O9V O 0.30189(15) 1.0806(2) 0.36219(16)
H5V H 0.3094 1.0756 0.3877
C1V C 0.54855(16) 1.14369(17) 0.30089(16)
H6V H 0.5609 1.1448 0.2711
C2V C 0.52405(17) 1.10110(19) 0.30673(18)
H7V H 0.5147 1.0982 0.3375
C3V C 0.48496(16) 1.10041(17) 0.27774(18)
H8V H 0.4952 1.0998 0.2472
C4V C 0.45878(17) 1.14275(18) 0.28443(17)
H9V H 0.4352 1.1432 0.2625
C5V C 0.52078(17) 1.18228(17) 0.30782(18)
H10V H 0.5099 1.1819 0.3381
C6V C 0.5417(2) 1.22561(19) 0.2991(2)
H11V H 0.5202 1.2490 0.3026
H12V H 0.5655 1.2306 0.3197
C7V C 0.39435(19) 1.1491(2) 0.32631(19)
H13V H 0.3840 1.1565 0.2967
C8V C 0.37163(18) 1.1085(2) 0.3417(2)
H14V H 0.3838 1.1000 0.3703
C9V C 0.32387(19) 1.1174(3) 0.3467(2)
H15V H 0.3120 1.1245 0.3176
C10V C 0.31647(18) 1.1553(2) 0.37529(19)
H16V H 0.2848 1.1614 0.3766
C11V C 0.3844(2) 1.1862(2) 0.3567(2)
H17V H 0.3959 1.1788 0.3860
C12V C 0.4041(3) 1.2288(3) 0.3425(2)
H18V H 0.3949 1.2524 0.3620
H19V H 0.4360 1.2270 0.3431
N1V N 0.3813(10) 1.2570(10) 0.3091(9)
H20V H 0.3566 1.2487 0.2980
H21V H 0.3929 1.2817 0.3010
O1E O 0.33130(11) 1.14392(13) 0.41736(12)
O2E O 0.27836(13) 1.17990(12) 0.51605(11)
O3E O 0.29555(16) 1.06579(13) 0.44804(14)
H1E H 0.3015 1.0424 0.4603
O4E O 0.28442(14) 1.06437(13) 0.54068(14)
H2E H 0.2878 1.0721 0.5664
O5E O 0.2555(2) 1.2251(2) 0.4421(2)
H3E H 0.2469 1.2506 0.4387
O6E O 0.32524(11) 1.14158(14) 0.56042(13)
O7E O 0.36001(16) 1.19261(16) 0.66185(16)
O8E O 0.31193(17) 1.07430(16) 0.62180(14)
H4E H 0.2915 1.0766 0.6395
O9E O 0.36219(16) 1.0806(2) 0.69811(15)
H5E H 0.3877 1.0756 0.6906
C1E C 0.30089(16) 1.14369(17) 0.45145(16)
H6E H 0.2711 1.1448 0.4391
C2E C 0.30673(18) 1.10110(19) 0.47595(17)
H7E H 0.3375 1.0982 0.4853
C3E C 0.27774(18) 1.10041(17) 0.51504(16)
H8E H 0.2472 1.0998 0.5048
C4E C 0.28443(17) 1.14275(18) 0.54122(17)
H9E H 0.2625 1.1432 0.5648
C5E C 0.30782(18) 1.18228(17) 0.47922(17)
H10E H 0.3381 1.1819 0.4901
C6E C 0.2991(2) 1.22561(19) 0.4583(2)
H11E H 0.3026 1.2490 0.4798
H12E H 0.3197 1.2306 0.4345
C7E C 0.32631(19) 1.1491(2) 0.60565(19)
H13E H 0.2967 1.1565 0.6160
C8E C 0.3417(2) 1.1085(2) 0.62837(18)
H14E H 0.3703 1.1000 0.6162
C9E C 0.3467(2) 1.1174(3) 0.67613(19)
H15E H 0.3176 1.1245 0.6880
C10E C 0.37529(19) 1.1553(2) 0.68353(18)
H16E H 0.3766 1.1614 0.7152
C11E C 0.3567(2) 1.1862(2) 0.6156(2)
H17E H 0.3860 1.1788 0.6041
C12E C 0.3425(2) 1.2288(3) 0.5959(3)
H18E H 0.3620 1.2524 0.6051
H19E H 0.3431 1.2270 0.5640
N1E N 0.3091(9) 1.2570(10) 0.6187(10)
H20E H 0.2980 1.2487 0.6434
H21E H 0.3010 1.2817 0.6071
O1 O 0.33130(11) 0.85608(13) 0.58264(12)
O2 O 0.27836(13) 0.82010(12) 0.48395(11)
O3 O 0.29555(16) 0.93421(13) 0.55196(14)
H1 H 0.3015 0.9576 0.5397
O4 O 0.28442(14) 0.93563(13) 0.45932(14)
H2 H 0.2878 0.9279 0.4336
O5 O 0.2555(2) 0.7749(2) 0.5579(2)
H3 H 0.2469 0.7494 0.5613
O6 O 0.32524(11) 0.85842(14) 0.43958(13)
O7 O 0.36001(16) 0.80739(16) 0.33815(16)
O8 O 0.31193(17) 0.92570(16) 0.37820(14)
H4 H 0.2915 0.9234 0.3605
O9 O 0.36219(16) 0.9194(2) 0.30189(15)
H5 H 0.3877 0.9244 0.3094
C1 C 0.30089(16) 0.85631(17) 0.54855(16)
H6 H 0.2711 0.8552 0.5609
C2 C 0.30673(18) 0.89890(19) 0.52405(17)
H7 H 0.3375 0.9018 0.5147
C3 C 0.27774(18) 0.89959(17) 0.48496(16)
H8 H 0.2472 0.9002 0.4952
C4 C 0.28443(17) 0.85725(18) 0.45878(17)
H9 H 0.2625 0.8568 0.4352
C5 C 0.30782(18) 0.81772(17) 0.52078(17)
H10 H 0.3381 0.8181 0.5099
C6 C 0.2991(2) 0.77439(19) 0.5417(2)
H11 H 0.3026 0.7510 0.5202
H12 H 0.3197 0.7694 0.5655
C7 C 0.32631(19) 0.8509(2) 0.39435(19)
H13 H 0.2967 0.8435 0.3840
C8 C 0.3417(2) 0.8915(2) 0.37163(18)
H14 H 0.3703 0.9000 0.3838
C9 C 0.3467(2) 0.8826(3) 0.32387(19)
H15 H 0.3176 0.8755 0.3120
C10 C 0.37529(19) 0.8447(2) 0.31647(18)
H16 H 0.3766 0.8386 0.2848
C11 C 0.3567(2) 0.8138(2) 0.3844(2)
H17 H 0.3860 0.8212 0.3959
C12 C 0.3425(2) 0.7712(3) 0.4041(3)
H18 H 0.3620 0.7476 0.3949
H19 H 0.3431 0.7730 0.4360
N1 N 0.3091(9) 0.7430(10) 0.3813(10)
H20 H 0.2980 0.7513 0.3566
H21 H 0.3010 0.7183 0.3929
O1G O 0.58264(12) 0.85608(13) 0.66870(11)
O2G O 0.48395(11) 0.82010(12) 0.72164(13)
O3G O 0.55196(14) 0.93421(13) 0.70445(16)
H1G H 0.5397 0.9576 0.6985
O4G O 0.45932(14) 0.93563(13) 0.71558(14)
H2G H 0.4336 0.9279 0.7122
O5G O 0.5579(2) 0.7749(2) 0.7445(2)
H3G H 0.5613 0.7494 0.7531
O6G O 0.43958(13) 0.85842(14) 0.67476(11)
O7G O 0.33815(16) 0.80739(16) 0.63999(16)
O8G O 0.37820(14) 0.92570(16) 0.68807(17)
H4G H 0.3605 0.9234 0.7085
O9G O 0.30189(15) 0.9194(2) 0.63781(16)
H5G H 0.3094 0.9244 0.6123
C1G C 0.54855(16) 0.85631(17) 0.69911(16)
H6G H 0.5609 0.8552 0.7289
C2G C 0.52405(17) 0.89890(19) 0.69327(18)
H7G H 0.5147 0.9018 0.6625
C3G C 0.48496(16) 0.89959(17) 0.72226(18)
H8G H 0.4952 0.9002 0.7528
C4G C 0.45878(17) 0.85725(18) 0.71557(17)
H9G H 0.4352 0.8568 0.7375
C5G C 0.52078(17) 0.81772(17) 0.69218(18)
H10G H 0.5099 0.8181 0.6619
C6G C 0.5417(2) 0.77439(19) 0.7009(2)
H11G H 0.5202 0.7510 0.6974
H12G H 0.5655 0.7694 0.6803
C7G C 0.39435(19) 0.8509(2) 0.67369(19)
H13G H 0.3840 0.8435 0.7033
C8G C 0.37163(18) 0.8915(2) 0.6583(2)
H14G H 0.3838 0.9000 0.6297
C9G C 0.32387(19) 0.8826(3) 0.6533(2)
H15G H 0.3120 0.8755 0.6824
C10G C 0.31647(18) 0.8447(2) 0.62471(19)
H16G H 0.2848 0.8386 0.6234
C11G C 0.3844(2) 0.8138(2) 0.6433(2)
H17G H 0.3959 0.8212 0.6140
C12G C 0.4041(3) 0.7712(3) 0.6575(2)
H18G H 0.3949 0.7476 0.6380
H19G H 0.4360 0.7730 0.6569
N1G N 0.3813(10) 0.7430(10) 0.6909(9)
H20G H 0.3566 0.7513 0.7020
H21G H 0.3929 0.7183 0.6990
O1I O 0.41736(12) 0.85608(13) 0.33130(11)
O2I O 0.51605(11) 0.82010(12) 0.27836(13)
O3I O 0.44804(14) 0.93421(13) 0.29555(16)
H1I H 0.4603 0.9576 0.3015
O4I O 0.54068(14) 0.93563(13) 0.28442(14)
H2I H 0.5664 0.9279 0.2878
O5I O 0.4421(2) 0.7749(2) 0.2555(2)
H3I H 0.4387 0.7494 0.2469
O6I O 0.56042(13) 0.85842(14) 0.32524(11)
O7I O 0.66185(16) 0.80739(16) 0.36001(16)
O8I O 0.62180(14) 0.92570(16) 0.31193(17)
H4I H 0.6395 0.9234 0.2915
O9I O 0.69811(15) 0.9194(2) 0.36219(16)
H5I H 0.6906 0.9244 0.3877
C1I C 0.45145(16) 0.85631(17) 0.30089(16)
H6I H 0.4391 0.8552 0.2711
C2I C 0.47595(17) 0.89890(19) 0.30673(18)
H7I H 0.4853 0.9018 0.3375
C3I C 0.51504(16) 0.89959(17) 0.27774(18)
H8I H 0.5048 0.9002 0.2472
C4I C 0.54122(17) 0.85725(18) 0.28443(17)
H9I H 0.5648 0.8568 0.2625
C5I C 0.47922(17) 0.81772(17) 0.30782(18)
H10I H 0.4901 0.8181 0.3381
C6I C 0.4583(2) 0.77439(19) 0.2991(2)
H11I H 0.4798 0.7510 0.3026
H12I H 0.4345 0.7694 0.3197
C7I C 0.60565(19) 0.8509(2) 0.32631(19)
H13I H 0.6160 0.8435 0.2967
C8I C 0.62837(18) 0.8915(2) 0.3417(2)
H14I H 0.6162 0.9000 0.3703
C9I C 0.67613(19) 0.8826(3) 0.3467(2)
H15I H 0.6880 0.8755 0.3176
C10I C 0.68353(18) 0.8447(2) 0.37529(19)
H16I H 0.7152 0.8386 0.3766
C11I C 0.6156(2) 0.8138(2) 0.3567(2)
H17I H 0.6041 0.8212 0.3860
C12I C 0.5959(3) 0.7712(3) 0.3425(2)
H18I H 0.6051 0.7476 0.3620
H19I H 0.5640 0.7730 0.3431
N1I N 0.6187(10) 0.7430(10) 0.3091(9)
H20I H 0.6434 0.7513 0.2980
H21I H 0.6071 0.7183 0.3010
O1H O 0.66870(11) 0.85608(13) 0.41736(12)
O2H O 0.72164(13) 0.82010(12) 0.51605(11)
O3H O 0.70445(16) 0.93421(13) 0.44804(14)
H1H H 0.6985 0.9576 0.4603
O4H O 0.71558(14) 0.93563(13) 0.54068(14)
H2H H 0.7122 0.9279 0.5664
O5H O 0.7445(2) 0.7749(2) 0.4421(2)
H3H H 0.7531 0.7494 0.4387
O6H O 0.67476(11) 0.85842(14) 0.56042(13)
O7H O 0.63999(16) 0.80739(16) 0.66185(16)
O8H O 0.68807(17) 0.92570(16) 0.62180(14)
H4H H 0.7085 0.9234 0.6395
O9H O 0.63781(16) 0.9194(2) 0.69811(15)
H5H H 0.6123 0.9244 0.6906
C1H C 0.69911(16) 0.85631(17) 0.45145(16)
H6H H 0.7289 0.8552 0.4391
C2H C 0.69327(18) 0.89890(19) 0.47595(17)
H7H H 0.6625 0.9018 0.4853
C3H C 0.72226(18) 0.89959(17) 0.51504(16)
H8H H 0.7528 0.9002 0.5048
C4H C 0.71557(17) 0.85725(18) 0.54122(17)
H9H H 0.7375 0.8568 0.5648
C5H C 0.69218(18) 0.81772(17) 0.47922(17)
H10H H 0.6619 0.8181 0.4901
C6H C 0.7009(2) 0.77439(19) 0.4583(2)
H11H H 0.6974 0.7510 0.4798
H12H H 0.6803 0.7694 0.4345
C7H C 0.67369(19) 0.8509(2) 0.60565(19)
H13H H 0.7033 0.8435 0.6160
C8H C 0.6583(2) 0.8915(2) 0.62837(18)
H14H H 0.6297 0.9000 0.6162
C9H C 0.6533(2) 0.8826(3) 0.67613(19)
H15H H 0.6824 0.8755 0.6880
C10H C 0.62471(19) 0.8447(2) 0.68353(18)
H16H H 0.6234 0.8386 0.7152
C11H C 0.6433(2) 0.8138(2) 0.6156(2)
H17H H 0.6140 0.8212 0.6041
C12H C 0.6575(2) 0.7712(3) 0.5959(3)
H18H H 0.6380 0.7476 0.6051
H19H H 0.6569 0.7730 0.5640
N1H N 0.6909(9) 0.7430(10) 0.6187(10)
H20H H 0.7020 0.7513 0.6434
H21H H 0.6990 0.7183 0.6071
loop_
_geom_bond_atom_site_label_1
_geom_bond_atom_site_label_2
_geom_bond_site_symmetry_1
_geom_bond_site_symmetry_2
O1 C1 1_555 1_555
O2 C4 1_555 1_555
O3 H1 1_555 1_555
O4 H2 1_555 1_555
O5 H3 1_555 1_555
O6 C4 1_555 1_555
O7 C10 1_555 1_555
O8 H4 1_555 1_555
O9 H5 1_555 1_555
C1 H6 1_555 1_555
C2 O3 1_555 1_555
H7 C2 1_555 1_555
C3 O4 1_555 1_555
H8 C3 1_555 1_555
C4 C3 1_555 1_555
H9 C4 1_555 1_555
C5 O2 1_555 1_555
H10 C5 1_555 1_555
C6 O5 1_555 1_555
H11 C6 1_555 1_555
H12 C6 1_555 1_555
C7 O6 1_555 1_555
H13 C7 1_555 1_555
C8 O8 1_555 1_555
H14 C8 1_555 1_555
C9 O9 1_555 1_555
H15 C9 1_555 1_555
C10 C9 1_555 1_555
H16 C10 1_555 1_555
C11 O7 1_555 1_555
H17 C11 1_555 1_555
C12 C11 1_555 1_555
H18 C12 1_555 1_555
H19 C12 1_555 1_555
N1 C12 1_555 1_555
H20 N1 1_555 1_555
H21 N1 1_555 1_555
O1G C1G 1_555 1_555
O2G C4G 1_555 1_555
O3G H1G 1_555 1_555
O4G H2G 1_555 1_555
O5G H3G 1_555 1_555
O6G C4G 1_555 1_555
O7G C10G 1_555 1_555
O8G H4G 1_555 1_555
O9G H5G 1_555 1_555
C1G H6G 1_555 1_555
C2G O3G 1_555 1_555
H7G C2G 1_555 1_555
C3G O4G 1_555 1_555
H8G C3G 1_555 1_555
C4G C3G 1_555 1_555
H9G C4G 1_555 1_555
C5G O2G 1_555 1_555
H10G C5G 1_555 1_555
C6G O5G 1_555 1_555
H11G C6G 1_555 1_555
H12G C6G 1_555 1_555
C7G O6G 1_555 1_555
H13G C7G 1_555 1_555
C8G O8G 1_555 1_555
H14G C8G 1_555 1_555
C9G O9G 1_555 1_555
H15G C9G 1_555 1_555
C10G O1 1_555 1_555
H16G C10G 1_555 1_555
C11G O7G 1_555 1_555
H17G C11G 1_555 1_555
C12G C11G 1_555 1_555
H18G C12G 1_555 1_555
H19G C12G 1_555 1_555
N1G C12G 1_555 1_555
H20G N1G 1_555 1_555
H21G N1G 1_555 1_555
O1I C10 1_555 1_555
O2I C4I 1_555 1_555
O3I H1I 1_555 1_555
O4I H2I 1_555 1_555
O5I H3I 1_555 1_555
O6I C4I 1_555 1_555
O7I C10I 1_555 1_555
O8I H4I 1_555 1_555
O9I H5I 1_555 1_555
C1I O1I 1_555 1_555
H6I C1I 1_555 1_555
C2I O3I 1_555 1_555
H7I C2I 1_555 1_555
C3I O4I 1_555 1_555
H8I C3I 1_555 1_555
C4I C3I 1_555 1_555
H9I C4I 1_555 1_555
C5I O2I 1_555 1_555
H10I C5I 1_555 1_555
C6I O5I 1_555 1_555
H11I C6I 1_555 1_555
H12I C6I 1_555 1_555
C7I O6I 1_555 1_555
H13I C7I 1_555 1_555
C8I O8I 1_555 1_555
H14I C8I 1_555 1_555
C9I O9I 1_555 1_555
H15I C9I 1_555 1_555
C10I C9I 1_555 1_555
H16I C10I 1_555 1_555
C11I O7I 1_555 1_555
H17I C11I 1_555 1_555
C12I C11I 1_555 1_555
H18I C12I 1_555 1_555
H19I C12I 1_555 1_555
N1I C12I 1_555 1_555
H20I N1I 1_555 1_555
H21I N1I 1_555 1_555
O1H C10I 1_555 1_555
O2H C4H 1_555 1_555
O3H H1H 1_555 1_555
O4H H2H 1_555 1_555
O5H H3H 1_555 1_555
O6H C4H 1_555 1_555
O7H C10H 1_555 1_555
O8H H4H 1_555 1_555
O9H H5H 1_555 1_555
C1H O1H 1_555 1_555
H6H C1H 1_555 1_555
C2H O3H 1_555 1_555
H7H C2H 1_555 1_555
C3H O4H 1_555 1_555
H8H C3H 1_555 1_555
C4H C3H 1_555 1_555
H9H C4H 1_555 1_555
C5H O2H 1_555 1_555
H10H C5H 1_555 1_555
C6H O5H 1_555 1_555
H11H C6H 1_555 1_555
H12H C6H 1_555 1_555
C7H O6H 1_555 1_555
H13H C7H 1_555 1_555
C8H O8H 1_555 1_555
H14H C8H 1_555 1_555
C9H O9H 1_555 1_555
H15H C9H 1_555 1_555
C10H O1G 1_555 1_555
H16H C10H 1_555 1_555
C11H O7H 1_555 1_555
H17H C11H 1_555 1_555
C12H C11H 1_555 1_555
H18H C12H 1_555 1_555
H19H C12H 1_555 1_555
N1H C12H 1_555 1_555
H20H N1H 1_555 1_555
H21H N1H 1_555 1_555
O1B C1B 1_555 1_555
O2B C4B 1_555 1_555
O3B H1B 1_555 1_555
O4B H2B 1_555 1_555
O5B H3B 1_555 1_555
O6B C4B 1_555 1_555
O7B C10B 1_555 1_555
O8B H4B 1_555 1_555
O9B H5B 1_555 1_555
C1B H6B 1_555 1_555
C2B O3B 1_555 1_555
H7B C2B 1_555 1_555
C3B O4B 1_555 1_555
H8B C3B 1_555 1_555
C4B C3B 1_555 1_555
H9B C4B 1_555 1_555
C5B O2B 1_555 1_555
H10B C5B 1_555 1_555
C6B O5B 1_555 1_555
H11B C6B 1_555 1_555
H12B C6B 1_555 1_555
C7B O6B 1_555 1_555
H13B C7B 1_555 1_555
C8B O8B 1_555 1_555
H14B C8B 1_555 1_555
C9B O9B 1_555 1_555
H15B C9B 1_555 1_555
C10B C9B 1_555 1_555
H16B C10B 1_555 1_555
C11B O7B 1_555 1_555
H17B C11B 1_555 1_555
C12B C11B 1_555 1_555
H18B C12B 1_555 1_555
H19B C12B 1_555 1_555
N1B C12B 1_555 1_555
H20B N1B 1_555 1_555
H21B N1B 1_555 1_555
O1W C1W 1_555 1_555
O2W C4W 1_555 1_555
O3W H1W 1_555 1_555
O4W H2W 1_555 1_555
O5W H3W 1_555 1_555
O6W C4W 1_555 1_555
O7W C10W 1_555 1_555
O8W H4W 1_555 1_555
O9W H5W 1_555 1_555
C1W H6W 1_555 1_555
C2W O3W 1_555 1_555
H7W C2W 1_555 1_555
C3W O4W 1_555 1_555
H8W C3W 1_555 1_555
C4W C3W 1_555 1_555
H9W C4W 1_555 1_555
C5W O2W 1_555 1_555
H10W C5W 1_555 1_555
C6W O5W 1_555 1_555
H11W C6W 1_555 1_555
H12W C6W 1_555 1_555
C7W O6W 1_555 1_555
H13W C7W 1_555 1_555
C8W O8W 1_555 1_555
H14W C8W 1_555 1_555
C9W O9W 1_555 1_555
H15W C9W 1_555 1_555
C10W O1B 1_555 1_555
H16W C10W 1_555 1_555
C11W O7W 1_555 1_555
H17W C11W 1_555 1_555
C12W C11W 1_555 1_555
H18W C12W 1_555 1_555
H19W C12W 1_555 1_555
N1W C12W 1_555 1_555
H20W N1W 1_555 1_555
H21W N1W 1_555 1_555
O1V C10B 1_555 1_555
O2V C4V 1_555 1_555
O3V H1V 1_555 1_555
O4V H2V 1_555 1_555
O5V H3V 1_555 1_555
O6V C4V 1_555 1_555
O7V C10V 1_555 1_555
O8V H4V 1_555 1_555
O9V H5V 1_555 1_555
C1V O1V 1_555 1_555
H6V C1V 1_555 1_555
C2V O3V 1_555 1_555
H7V C2V 1_555 1_555
C3V O4V 1_555 1_555
H8V C3V 1_555 1_555
C4V C3V 1_555 1_555
H9V C4V 1_555 1_555
C5V O2V 1_555 1_555
H10V C5V 1_555 1_555
C6V O5V 1_555 1_555
H11V C6V 1_555 1_555
H12V C6V 1_555 1_555
C7V O6V 1_555 1_555
H13V C7V 1_555 1_555
C8V O8V 1_555 1_555
H14V C8V 1_555 1_555
C9V O9V 1_555 1_555
H15V C9V 1_555 1_555
C10V C9V 1_555 1_555
H16V C10V 1_555 1_555
C11V O7V 1_555 1_555
H17V C11V 1_555 1_555
C12V C11V 1_555 1_555
H18V C12V 1_555 1_555
H19V C12V 1_555 1_555
N1V C12V 1_555 1_555
H20V N1V 1_555 1_555
H21V N1V 1_555 1_555
O1E C10V 1_555 1_555
O2E C4E 1_555 1_555
O3E H1E 1_555 1_555
O4E H2E 1_555 1_555
O5E H3E 1_555 1_555
O6E C4E 1_555 1_555
O7E C10E 1_555 1_555
O8E H4E 1_555 1_555
O9E H5E 1_555 1_555
C1E O1E 1_555 1_555
H6E C1E 1_555 1_555
C2E O3E 1_555 1_555
H7E C2E 1_555 1_555
C3E O4E 1_555 1_555
H8E C3E 1_555 1_555
C4E C3E 1_555 1_555
H9E C4E 1_555 1_555
C5E O2E 1_555 1_555
H10E C5E 1_555 1_555
C6E O5E 1_555 1_555
H11E C6E 1_555 1_555
H12E C6E 1_555 1_555
C7E O6E 1_555 1_555
H13E C7E 1_555 1_555
C8E O8E 1_555 1_555
H14E C8E 1_555 1_555
C9E O9E 1_555 1_555
H15E C9E 1_555 1_555
C10E O1W 1_555 1_555
H16E C10E 1_555 1_555
C11E O7E 1_555 1_555
H17E C11E 1_555 1_555
C12E C11E 1_555 1_555
H18E C12E 1_555 1_555
H19E C12E 1_555 1_555
N1E C12E 1_555 1_555
H20E N1E 1_555 1_555
H21E N1E 1_555 1_555
C1 C2 1_555 1_555
C1 C5 1_555 1_555
C2 C3 1_555 1_555
C5 C6 1_555 1_555
C7 C8 1_555 1_555
C7 C11 1_555 1_555
C8 C9 1_555 1_555
C1G C2G 1_555 1_555
C1G C5G 1_555 1_555
C2G C3G 1_555 1_555
C5G C6G 1_555 1_555
C7G C8G 1_555 1_555
C7G C11G 1_555 1_555
C8G C9G 1_555 1_555
C9G C10G 1_555 1_555
C1I C2I 1_555 1_555
C1I C5I 1_555 1_555
C2I C3I 1_555 1_555
C5I C6I 1_555 1_555
C7I C8I 1_555 1_555
C7I C11I 1_555 1_555
C8I C9I 1_555 1_555
C1H C2H 1_555 1_555
C1H C5H 1_555 1_555
C2H C3H 1_555 1_555
C5H C6H 1_555 1_555
C7H C8H 1_555 1_555
C7H C11H 1_555 1_555
C8H C9H 1_555 1_555
C9H C10H 1_555 1_555
C1B C2B 1_555 1_555
C1B C5B 1_555 1_555
C2B C3B 1_555 1_555
C5B C6B 1_555 1_555
C7B C8B 1_555 1_555
C7B C11B 1_555 1_555
C8B C9B 1_555 1_555
C1W C2W 1_555 1_555
C1W C5W 1_555 1_555
C2W C3W 1_555 1_555
C5W C6W 1_555 1_555
C7W C8W 1_555 1_555
C7W C11W 1_555 1_555
C8W C9W 1_555 1_555
C9W C10W 1_555 1_555
C1V C2V 1_555 1_555
C1V C5V 1_555 1_555
C2V C3V 1_555 1_555
C5V C6V 1_555 1_555
C7V C8V 1_555 1_555
C7V C11V 1_555 1_555
C8V C9V 1_555 1_555
C1E C2E 1_555 1_555
C1E C5E 1_555 1_555
C2E C3E 1_555 1_555
C5E C6E 1_555 1_555
C7E C8E 1_555 1_555
C7E C11E 1_555 1_555
C8E C9E 1_555 1_555
C9E C10E 1_555 1_555

#END
