
#######################################################################
#
#                 Cambridge Crystallographic Data Centre
#                                CCDC 
#
#######################################################################
#
# If this CIF has been generated from an entry in the Cambridge 
# Structural Database, then it will include bibliographic, chemical, 
# crystal, experimental, refinement or atomic coordinate data resulting 
# from the CCDC's data processing and validation procedures.
#
#######################################################################

data_WOSMUO02
_chemical_formula_moiety         
'C3 H12 N2 2+,6(C1 H1 O2 1-),0.5(H2 O1),2(Mg1 2+)'
_chemical_name_systematic        
'di-magnesium propane-1,3-diammonium hexaformate hemihydrate'
_symmetry_cell_setting           rhombohedral
_symmetry_space_group_name_H-M   'R -3 c'
_symmetry_Int_Tables_number      167
_space_group_name_Hall           '-R 3 2"c'
loop_
_symmetry_equiv_pos_site_id
_symmetry_equiv_pos_as_xyz
1 x,y,z
2 -y,x-y,z
3 -x+y,-x,z
4 y,x,1/2-z
5 x-y,-y,1/2-z
6 -x,-x+y,1/2-z
7 2/3+x,1/3+y,1/3+z
8 2/3-y,1/3+x-y,1/3+z
9 2/3-x+y,1/3-x,1/3+z
10 2/3+y,1/3+x,5/6-z
11 2/3+x-y,1/3-y,5/6-z
12 2/3-x,1/3-x+y,5/6-z
13 1/3+x,2/3+y,2/3+z
14 1/3-y,2/3+x-y,2/3+z
15 1/3-x+y,2/3-x,2/3+z
16 1/3+y,2/3+x,1/6-z
17 1/3+x-y,2/3-y,1/6-z
18 1/3-x,2/3-x+y,1/6-z
19 -x,-y,-z
20 y,-x+y,-z
21 x-y,x,-z
22 -y,-x,1/2+z
23 -x+y,y,1/2+z
24 x,x-y,1/2+z
25 1/3-x,2/3-y,2/3-z
26 1/3+y,2/3-x+y,2/3-z
27 1/3+x-y,2/3+x,2/3-z
28 1/3-y,2/3-x,1/6+z
29 1/3-x+y,2/3+y,1/6+z
30 1/3+x,2/3+x-y,1/6+z
31 2/3-x,1/3-y,1/3-z
32 2/3+y,1/3-x+y,1/3-z
33 2/3+x-y,1/3+x,1/3-z
34 2/3-y,1/3-x,5/6+z
35 2/3-x+y,1/3+y,5/6+z
36 2/3+x,1/3+x-y,5/6+z
_cell_length_a                   28.45630(10)
_cell_length_b                   28.45630(10)
_cell_length_c                   86.6845(6)
_cell_angle_alpha                90
_cell_angle_beta                 90
_cell_angle_gamma                120
_cell_volume                     60789.6
_exptl_crystal_colour            colorless
_exptl_crystal_description       'hexagonal plate'
_cell_formula_units_Z            144
_chemical_properties_physical    Moisture-sensitive
loop_
_atom_site_label
_atom_site_type_symbol
_atom_site_fract_x
_atom_site_fract_y
_atom_site_fract_z
Mg1 Mg 0.5000 0.5000 0.5000
Mg2 Mg 0.66541(2) 0.49599(2) 0.45629(2)
Mg3 Mg 0.50123(2) 0.33624(2) 0.54297(2)
Mg4 Mg 0.33120(2) 0.33203(2) 0.45843(2)
Mg5 Mg 0.49891(2) 0.49685(2) 0.41563(2)
Mg6 Mg 0.6667 0.3333 0.49994(2)
Mg7 Mg 0.34509(2) 0.17350(2) 0.49962(2)
Mg8 Mg 0.6667 0.3333 0.41108(2)
Mg9 Mg 0.6667 0.3333 0.5833
Mg10 Mg 0.3333 0.16505(2) 0.4167
Mg11 Mg 0.17187(2) 0.17394(2) 0.53991(2)
Mg12 Mg 0.0000 0.0000 0.5000
O1 O 0.57369(4) 0.53047(4) 0.48796(2)
O2 O 0.63855(4) 0.52858(4) 0.47431(2)
C1 C 0.59034(6) 0.50864(6) 0.47875(2)
H1 H 0.5645 0.4741 0.4747
O3 O 0.52781(4) 0.46223(4) 0.51362(2)
O4 O 0.53245(4) 0.40410(4) 0.52935(2)
C2 C 0.51410(6) 0.43352(6) 0.52526(2)
H2 H 0.4872 0.4340 0.5316
O5 O 0.46281(4) 0.42857(4) 0.48764(2)
O6 O 0.39640(4) 0.36646(4) 0.47331(2)
C3 C 0.42434(6) 0.41348(6) 0.47820(2)
H3 H 0.4161 0.4400 0.4745
O7 O 0.63477(4) 0.42964(4) 0.47020(2)
O8 O 0.64091(4) 0.37604(4) 0.48729(2)
C4 C 0.65325(6) 0.40096(6) 0.47490(2)
H4 H 0.6787 0.3979 0.4685
O9 O 0.59113(4) 0.46164(4) 0.44569(2)
O10 O 0.52813(4) 0.45830(4) 0.43002(2)
C5 C 0.57415(6) 0.48217(6) 0.43619(2)
H5 H 0.5979 0.5189 0.4334
O11 O 0.69626(4) 0.46361(4) 0.44061(2)
O12 O 0.69884(4) 0.40468(4) 0.42432(2)
C6 C 0.67533(6) 0.41930(6) 0.43392(2)
H6 H 0.6384 0.3941 0.4362
O13 O 0.69591(4) 0.56684(4) 0.44390(2)
O14 O 0.76058(4) 0.63304(4) 0.42996(2)
C7 C 0.74064(6) 0.58887(5) 0.43686(2)
H7 H 0.7607 0.5703 0.4368
O15 O 0.53161(4) 0.30690(4) 0.52594(2)
O16 O 0.59540(4) 0.30265(4) 0.51240(2)
C8 C 0.57959(6) 0.32531(6) 0.52178(2)
H8 H 0.6061 0.3590 0.5260
O17 O 0.43326(4) 0.30441(4) 0.52923(2)
O18 O 0.38465(4) 0.24732(4) 0.51067(2)
C9 C 0.40655(6) 0.25790(6) 0.52368(2)
H9 H 0.4025 0.2284 0.5298
O19 O 0.57347(4) 0.37191(4) 0.55470(2)
O20 O 0.63724(4) 0.37325(4) 0.56965(2)
C10 C 0.59072(6) 0.35016(6) 0.56379(2)
H10 H 0.5669 0.3133 0.5665
O21 O 0.46917(4) 0.26337(4) 0.55531(2)
O22 O 0.40190(4) 0.19717(4) 0.56877(2)
C11 C 0.42518(6) 0.24304(6) 0.56285(2)
H11 H 0.4086 0.2647 0.5641
O23 O 0.46566(4) 0.36691(4) 0.55740(2)
O24 O 0.46653(4) 0.43499(4) 0.57015(2)
C12 C 0.48916(6) 0.41094(6) 0.56461(2)
H12 H 0.5273 0.4273 0.5660
O25 O 0.36368(4) 0.39807(4) 0.44384(2)
O26 O 0.42437(4) 0.45838(4) 0.42760(2)
C13 C 0.41023(6) 0.42457(6) 0.43845(2)
H13 H 0.4375 0.4188 0.4429
O27 O 0.29957(4) 0.26636(4) 0.47322(2)
O28 O 0.30425(4) 0.20156(4) 0.48609(2)
C14 C 0.32470(6) 0.24510(6) 0.47862(2)
H14 H 0.3628 0.2633 0.4770
O29 O 0.37005(4) 0.29798(4) 0.44566(2)
O30 O 0.36893(4) 0.23383(4) 0.43074(2)
C15 C 0.34611(6) 0.25498(6) 0.43780(2)
H15 H 0.3077 0.2374 0.4372
O31 O 0.25962(4) 0.29180(4) 0.44632(2)
O32 O 0.19487(4) 0.29210(4) 0.43221(2)
C16 C 0.24151(6) 0.31492(6) 0.43794(2)
H16 H 0.2647 0.3523 0.4358
O33 O 0.30031(4) 0.37002(4) 0.47269(2)
O34 O 0.24058(4) 0.37912(4) 0.48692(2)
C17 C 0.25307(6) 0.35799(6) 0.47613(2)
H17 H 0.2244 0.3308 0.4701
O35 O 0.27657(4) 0.14360(4) 0.51300(2)
O36 O 0.20852(4) 0.14577(4) 0.52461(2)
C18 C 0.25799(6) 0.16313(6) 0.52239(2)
H18 H 0.2832 0.1934 0.5283
O37 O 0.41618(4) 0.20691(4) 0.48702(2)
O38 O 0.47334(4) 0.20937(4) 0.46929(2)
C19 C 0.42675(6) 0.19393(6) 0.47423(2)
H19 H 0.3971 0.1706 0.4678
O39 O 0.10345(4) 0.14040(4) 0.52516(2)
O40 O 0.03556(4) 0.07127(4) 0.51288(2)
C20 C 0.07790(5) 0.09176(6) 0.52072(2)
H20 H 0.0920 0.0690 0.5236
O41 O 0.24017(4) 0.20823(4) 0.55405(2)
O42 O 0.29921(5) 0.20489(4) 0.57019(2)
C21 C 0.25935(6) 0.18532(6) 0.56170(2)
H21 H 0.2405 0.1469 0.5609
O43 O 0.20652(4) 0.24384(4) 0.52667(2)
O44 O 0.20899(4) 0.31135(4) 0.51309(2)
C22 C 0.18714(6) 0.27201(6) 0.52240(2)
H22 H 0.1527 0.2633 0.5265
O45 O 0.13366(4) 0.20269(4) 0.55391(2)
O46 O 0.13170(4) 0.26060(4) 0.57074(2)
C23 C 0.15520(6) 0.24669(6) 0.56098(2)
H23 H 0.1923 0.2717 0.5588
O47 O 0.13883(4) 0.10072(4) 0.55190(2)
O48 O 0.07071(4) 0.03200(4) 0.56433(2)
C24 C 0.09293(6) 0.07798(6) 0.55849(2)
H24 H 0.0741 0.0976 0.5590
O49 O 0.45861(5) 0.12527(5) 0.5833
H25 H 0.4255(5) 0.1214(6) 0.58586(18)
H25O H 0.4547(6) 0.0922(5) 0.58081(18)
N1 N 0.50733(5) 0.19817(5) 0.50231(2)
H26 H 0.4761 0.1996 0.5020
H27 H 0.5120 0.1851 0.4932
H28 H 0.5359 0.2321 0.5039
N2 N 0.51038(5) 0.19011(5) 0.55841(2)
H29 H 0.5468 0.2101 0.5600
H30 H 0.4943 0.1687 0.5668
H31 H 0.4968 0.2127 0.5570
C25 C 0.49914(6) 0.15529(6) 0.54444(2)
H32 H 0.4611 0.1252 0.5446
H33 H 0.5233 0.1395 0.5443
C26 C 0.50916(6) 0.19023(6) 0.53033(2)
H34 H 0.5461 0.2222 0.5310
H35 H 0.4830 0.2036 0.5304
C27 C 0.50405(6) 0.16165(6) 0.51516(2)
H36 H 0.5336 0.1531 0.5142
H37 H 0.4689 0.1272 0.5147
O50 O 0.50104(4) 0.29360(4) 0.41452(2)
H38 H 0.5300(5) 0.2900(6) 0.41705(18)
H39 H 0.4711(5) 0.2620(6) 0.41230(19)
N3 N 0.48170(5) 0.34229(5) 0.49654(2)
H40 H 0.4761 0.3707 0.4949
H41 H 0.5010 0.3480 0.5054
H42 H 0.4492 0.3111 0.4974
N4 N 0.48569(5) 0.34246(5) 0.44018(2)
H43 H 0.4495 0.3274 0.4419
H44 H 0.4911 0.3270 0.4317
H45 H 0.5006 0.3788 0.4386
C28 C 0.51283(6) 0.33753(6) 0.48325(2)
H46 H 0.5111 0.3019 0.4836
H47 H 0.5514 0.3664 0.4839
C29 C 0.48847(6) 0.34295(6) 0.46829(2)
H48 H 0.4489 0.3171 0.4685
H49 H 0.4936 0.3800 0.4677
C30 C 0.51191(6) 0.33284(6) 0.45385(2)
H50 H 0.5517 0.3577 0.4535
H51 H 0.5048 0.2950 0.4538
N5 N 0.47647(5) 0.28276(5) 0.34215(2)
H52 H 0.4905 0.2655 0.3477
H53 H 0.4785 0.2769 0.3319
H54 H 0.4412 0.2696 0.3449
N6 N 0.51672(5) 0.35833(5) 0.38901(2)
H55 H 0.5502 0.3885 0.3891
H56 H 0.5133 0.3369 0.3972
H57 H 0.4909 0.3683 0.3896
C31 C 0.50800(6) 0.34198(6) 0.34538(2)
H58 H 0.4981 0.3614 0.3377
H59 H 0.5472 0.3547 0.3442
C32 C 0.49799(6) 0.35608(6) 0.36139(2)
H60 H 0.4596 0.3469 0.3621
H61 H 0.5208 0.3958 0.3629
C33 C 0.50961(6) 0.32774(6) 0.37438(2)
H62 H 0.4791 0.2901 0.3755
H63 H 0.5430 0.3264 0.3721
O51 O 0.29613(9) 0.29253(9) 0.58437(2)
H64 H 0.2626(9) 0.2904(13) 0.5865(4)
H65 H 0.2893(12) 0.2582(9) 0.5811(4)
O52 O 0.3741(9) 0.3333 0.5833
H66 H 0.4098(19) 0.363(3) 0.581(3)
H66P H 0.3801(36) 0.304(3) 0.586(3)
N7? N 0.32828(19) 0.36324(18) 0.50514(4)
H67? H 0.3032 0.3401 0.4983
H68? H 0.3602 0.3846 0.5002
H69? H 0.3163 0.3844 0.5095
N8? N 0.34989(11) 0.36368(11) 0.56065(3)
H70? H 0.3462 0.3440 0.5693
H71? H 0.3265 0.3767 0.5611
H72? H 0.3845 0.3919 0.5600
C34? C 0.33664(17) 0.33140(18) 0.51738(5)
H73? H 0.3695 0.3290 0.5151
H74? H 0.3050 0.2942 0.5179
C35? C 0.34332(16) 0.36069(16) 0.53277(4)
H75? H 0.3797 0.3936 0.5330
H76? H 0.3161 0.3726 0.5333
C36? C 0.33723(17) 0.3276(2) 0.54651(4)
H77? H 0.3625 0.3132 0.5459
H78? H 0.2997 0.2965 0.5471
N9? N 0.31657(17) 0.36853(16) 0.50790(6)
H79? H 0.3262 0.3820 0.4982
H80? H 0.3253 0.3963 0.5146
H81? H 0.2802 0.3450 0.5083
N10? N 0.35344(12) 0.33031(12) 0.55605(3)
H82? H 0.3666 0.3550 0.5639
H83? H 0.3750 0.3154 0.5548
H84? H 0.3191 0.3038 0.5583
C37? C 0.34625(15) 0.33938(15) 0.51230(4)
H85? H 0.3858 0.3650 0.5118
H86? H 0.3374 0.3098 0.5048
C38? C 0.33128(13) 0.31580(12) 0.52842(4)
H87? H 0.3455 0.2907 0.5300
H88? H 0.2912 0.2943 0.5292
C39? C 0.35296(14) 0.35828(14) 0.54125(4)
H89? H 0.3901 0.3876 0.5387
H90? H 0.3295 0.3745 0.5424
N11? N 0.323(2) 0.3639(19) 0.5084(4)
H91? H 0.3350 0.3658 0.4987
H92? H 0.3319 0.3978 0.5118
H93? H 0.2858 0.3426 0.5086
N12? N 0.3056(8) 0.3221(9) 0.5603(2)
H94? H 0.3177 0.3205 0.5699
H95? H 0.2756 0.2898 0.5580
H96? H 0.2971 0.3490 0.5600
C40? C 0.3471(15) 0.3400(16) 0.5189(3)
H97? H 0.3866 0.3652 0.5200
H98? H 0.3414 0.3052 0.5147
C41? C 0.3185(11) 0.3311(12) 0.5344(2)
H99? H 0.3069 0.3585 0.5354
H100? H 0.2851 0.2950 0.5341
C42? C 0.3487(11) 0.3336(17) 0.5488(3)
H101? H 0.3597 0.3056 0.5489
H102? H 0.3810 0.3699 0.5504
loop_
_geom_bond_atom_site_label_1
_geom_bond_atom_site_label_2
_geom_bond_site_symmetry_1
_geom_bond_site_symmetry_2
O1 C1 1_555 1_555
O2 C1 1_555 1_555
C1 H1 1_555 1_555
O3 C2 1_555 1_555
O4 C2 1_555 1_555
C2 H2 1_555 1_555
O5 C3 1_555 1_555
O6 C3 1_555 1_555
C3 H3 1_555 1_555
O7 C4 1_555 1_555
O8 C4 1_555 1_555
C4 H4 1_555 1_555
O9 C5 1_555 1_555
O10 C5 1_555 1_555
C5 H5 1_555 1_555
O11 C6 1_555 1_555
O12 C6 1_555 1_555
C6 H6 1_555 1_555
O13 C7 1_555 1_555
O14 C7 1_555 1_555
C7 H7 1_555 1_555
O15 C8 1_555 1_555
O16 C8 1_555 1_555
C8 H8 1_555 1_555
O17 C9 1_555 1_555
O18 C9 1_555 1_555
C9 H9 1_555 1_555
O19 C10 1_555 1_555
O20 C10 1_555 1_555
C10 H10 1_555 1_555
O21 C11 1_555 1_555
O22 C11 1_555 1_555
C11 H11 1_555 1_555
O23 C12 1_555 1_555
O24 C12 1_555 1_555
C12 H12 1_555 1_555
O25 C13 1_555 1_555
O26 C13 1_555 1_555
C13 H13 1_555 1_555
O27 C14 1_555 1_555
O28 C14 1_555 1_555
C14 H14 1_555 1_555
O29 C15 1_555 1_555
O30 C15 1_555 1_555
C15 H15 1_555 1_555
O31 C16 1_555 1_555
O32 C16 1_555 1_555
C16 H16 1_555 1_555
O33 C17 1_555 1_555
O34 C17 1_555 1_555
C17 H17 1_555 1_555
O35 C18 1_555 1_555
O36 C18 1_555 1_555
C18 H18 1_555 1_555
O37 C19 1_555 1_555
O38 C19 1_555 1_555
C19 H19 1_555 1_555
O39 C20 1_555 1_555
O40 C20 1_555 1_555
C20 H20 1_555 1_555
O41 C21 1_555 1_555
O42 C21 1_555 1_555
C21 H21 1_555 1_555
O43 C22 1_555 1_555
O44 C22 1_555 1_555
C22 H22 1_555 1_555
O45 C23 1_555 1_555
O46 C23 1_555 1_555
C23 H23 1_555 1_555
O47 C24 1_555 1_555
O48 C24 1_555 1_555
C24 H24 1_555 1_555
O49 H25 1_555 1_555
N1 H26 1_555 1_555
H27 N1 1_555 1_555
H28 N1 1_555 1_555
N2 H29 1_555 1_555
H30 N2 1_555 1_555
H31 N2 1_555 1_555
C25 N2 1_555 1_555
H32 C25 1_555 1_555
H33 C25 1_555 1_555
C26 C25 1_555 1_555
H34 C26 1_555 1_555
H35 C26 1_555 1_555
C27 N1 1_555 1_555
H36 C27 1_555 1_555
H37 C27 1_555 1_555
O50 H38 1_555 1_555
H39 O50 1_555 1_555
N3 H40 1_555 1_555
H41 N3 1_555 1_555
H42 N3 1_555 1_555
N4 H43 1_555 1_555
H44 N4 1_555 1_555
H45 N4 1_555 1_555
C28 N3 1_555 1_555
H46 C28 1_555 1_555
H47 C28 1_555 1_555
C29 C28 1_555 1_555
H48 C29 1_555 1_555
H49 C29 1_555 1_555
C30 N4 1_555 1_555
H50 C30 1_555 1_555
H51 C30 1_555 1_555
N5 H52 1_555 1_555
H53 N5 1_555 1_555
H54 N5 1_555 1_555
N6 H55 1_555 1_555
H56 N6 1_555 1_555
H57 N6 1_555 1_555
C31 N5 1_555 1_555
H58 C31 1_555 1_555
H59 C31 1_555 1_555
C32 C31 1_555 1_555
H60 C32 1_555 1_555
H61 C32 1_555 1_555
C33 N6 1_555 1_555
H62 C33 1_555 1_555
H63 C33 1_555 1_555
O51 H64 1_555 1_555
H65 O51 1_555 1_555
O52 H66 1_555 1_555
H25O O49 1_555 1_555
H66P O52 1_555 1_555
C26 C27 1_555 1_555
C29 C30 1_555 1_555
C32 C33 1_555 1_555

#END
