# Electronic Supplementary Material (ESI) for ChemComm.
# This journal is Â© The Royal Society of Chemistry 2014

####################################################################### 
# 
# This file contains crystal structure data downloaded from the 
# Cambridge Structural Database (CSD) hosted by the Cambridge 
# Crystallographic Data Centre (CCDC).
# 
# Full information about CCDC data access policies and citation 
# guidelines are available at http://www.ccdc.cam.ac.uk/access/V1 
# 
# Audit and citation data items may have been added by the CCDC. 
# Please retain this information to preserve the provenance of 
# this file and to allow appropriate attribution of the data. 
# 
#######################################################################

data_Cage-1
_database_code_depnum_ccdc_archive 'CCDC 1022375'
_audit_update_record             
;
2014-09-01 deposited with the CCDC.
2014-12-16 downloaded from the CCDC.
;

_audit_creation_method           SHELXL-2014
_chemical_name_systematic        
;
 ?
;
_chemical_name_common            ?
_chemical_melting_point          ?
_chemical_formula_moiety         ?
_chemical_formula_sum            'C132 H120 N24'
_chemical_formula_weight         2042.51

loop_
_atom_type_symbol
_atom_type_description
_atom_type_scat_dispersion_real
_atom_type_scat_dispersion_imag
_atom_type_scat_source
C C -0.0020 0.0021 'International Tables Vol C Tables 4.2.6.8 and 6.1.1.4'
H H 0.0000 0.0000 'International Tables Vol C Tables 4.2.6.8 and 6.1.1.4'
N N -0.0031 0.0043 'International Tables Vol C Tables 4.2.6.8 and 6.1.1.4'

_space_group_crystal_system      orthorhombic
_space_group_IT_number           19
_space_group_name_H-M_alt        'P 21 21 21'
_space_group_name_Hall           'P 2ac 2ab'

_shelx_space_group_comment       
;
The symmetry employed for this shelxl refinement is uniquely defined
by the following loop, which should always be used as a source of
symmetry information in preference to the above space-group names.
They are only intended as comments.
;

loop_
_space_group_symop_operation_xyz
'x, y, z'
'-x+1/2, -y, z+1/2'
'x+1/2, -y+1/2, -z'
'-x, y+1/2, -z+1/2'

_cell_length_a                   23.855(5)
_cell_length_b                   26.655(5)
_cell_length_c                   27.082(5)
_cell_angle_alpha                90
_cell_angle_beta                 90
_cell_angle_gamma                90
_cell_volume                     17220(6)
_cell_formula_units_Z            4
_cell_measurement_temperature    293(2)
_cell_measurement_reflns_used    149926
_cell_measurement_theta_min      0.45
_cell_measurement_theta_max      28.44

_exptl_crystal_description       rod
_exptl_crystal_colour            colourless
_exptl_crystal_density_meas      ?
_exptl_crystal_density_method    ?
_exptl_crystal_density_diffrn    0.788
_exptl_crystal_F_000             4320
_exptl_transmission_factor_min   ?
_exptl_transmission_factor_max   ?
_exptl_crystal_size_max          0.300
_exptl_crystal_size_mid          0.200
_exptl_crystal_size_min          0.050
_exptl_absorpt_coefficient_mu    0.061
_shelx_estimated_absorpt_T_min   0.982
_shelx_estimated_absorpt_T_max   0.997
_exptl_absorpt_correction_type   none
_exptl_absorpt_correction_T_min  ?
_exptl_absorpt_correction_T_max  ?
_exptl_absorpt_process_details   ?

_exptl_special_details           
;
Scattering factors for the wavelength of 8 Angstroms for use in 
Shelxl2014 were calculated for all elements using the program 
WCROMER (Cromer Liberman method with Kissel-Pratt correction', 
see Acta Cryst A46, 170 (1990)) and were implemented in Shelxl2014 
using DISP commands.

Several low angle reflections were affected by the beam stop and 
were omitted from the refinement. The reflections in question are 
1 0 2, 2 1 0, 0 1 2, 2 2 0, -1 2 1, -1 1 2, -1 2 2, 1 1 2, 1 3 0, 
1 2 2, 3 1 0, 2 3 0.

Large sections of the structure, 7745 cubic Angstrom or 44.98% of 
the unit cell volume, consist of solvent filled voids. The content 
of the voids is partially recognizable as mostly disordered 
acetontrile and some water molecules (hydrogen bound to some of the 
Schiff base nitrogen atoms), while other sections show only 
featureless electron density. Attempts to include solvent molecules 
in the structural model yielded less than satisfactory results, with 
R1 values around 12%. The data were thus instead corrected for using 
back Fourier transform methods as implemented in the Squeeze 
algorithm of the Platon program package. Correction for unresolved 
electron density yielded 1363 electrons for the void volume. See the 
squeeze report appended to this cif file for details. 
;

_diffrn_ambient_temperature      293(2)
_diffrn_radiation_wavelength     0.800
_diffrn_radiation_type           synchrotron
_diffrn_source                   synchrotron
_diffrn_measurement_device_type  
; 
Beijing Synchrotron Radiation Facility, beam line station 
3W1A equipped with a MarCCD-165 detector (the monochrome 
x-ray source is produced by accelerator and selected by 
a double crystal monochromator)
;
_diffrn_measurement_method       'omega and phi scans'
_diffrn_detector_area_resol_mean ?
_diffrn_reflns_number            40104
_diffrn_reflns_av_unetI/netI     0.0427
_diffrn_reflns_av_R_equivalents  0.0243
_diffrn_reflns_limit_h_min       0
_diffrn_reflns_limit_h_max       26
_diffrn_reflns_limit_k_min       -30
_diffrn_reflns_limit_k_max       29
_diffrn_reflns_limit_l_min       -32
_diffrn_reflns_limit_l_max       31
_diffrn_reflns_theta_min         1.917
_diffrn_reflns_theta_max         28.381
_diffrn_reflns_theta_full        28.685
_diffrn_measured_fraction_theta_max 0.767
_diffrn_measured_fraction_theta_full 0.745
_diffrn_reflns_Laue_measured_fraction_max 0.767
_diffrn_reflns_Laue_measured_fraction_full 0.745
_diffrn_reflns_point_group_measured_fraction_max 0.728
_diffrn_reflns_point_group_measured_fraction_full 0.707
_reflns_number_total             22034
_reflns_number_gt                15201
_reflns_threshold_expression     'I > 2\s(I)'
_reflns_Friedel_coverage         0.772
_reflns_Friedel_fraction_max     0.683
_reflns_Friedel_fraction_full    0.663

_reflns_special_details          
;
 Reflections were merged by SHELXL according to the crystal
 class for the calculation of statistics and refinement.
 
 _reflns_Friedel_fraction is defined as the number of unique
 Friedel pairs measured divided by the number that would be
 possible theoretically, ignoring centric projections and
 systematic absences.
;

_computing_data_collection       
; 
marccd, control software for MarCCD-165 detector
;
_computing_cell_refinement       'HKL2000 (Z. Otwinowski and W. Minor, 1997)'
_computing_data_reduction        'HKL2000 (Z. Otwinowski and W. Minor, 1997)'
_computing_structure_solution    'SHELXD / XM (Sheldrick, 2008)'
_computing_structure_refinement  
;  
SHELXL-2014 (Sheldrick, 2014), 
SHELXLE Rev609 (H\"ubschle et al., 2011)
;
_computing_molecular_graphics    ?
_computing_publication_material  ?

_refine_special_details          SQUEEZE
_refine_ls_structure_factor_coef Fsqd
_refine_ls_matrix_type           full
_refine_ls_weighting_scheme      calc
_refine_ls_weighting_details     
'w=1/[\s^2^(Fo^2^)+(0.1217P)^2^] where P=(Fo^2^+2Fc^2^)/3'
_atom_sites_solution_primary     ?
_atom_sites_solution_secondary   ?
_atom_sites_solution_hydrogens   geom
_refine_ls_hydrogen_treatment    constr
_refine_ls_extinction_method     SHELXL
_refine_ls_extinction_coef       0.0022(3)
_refine_ls_extinction_expression Fc^*^=kFc[1+0.001xFc^2^\l^3^/sin(2\q)]^-1/4^
_chemical_absolute_configuration unk
_refine_ls_number_reflns         22034
_refine_ls_number_parameters     1406
_refine_ls_number_restraints     0
_refine_ls_R_factor_all          0.0798
_refine_ls_R_factor_gt           0.0603
_refine_ls_wR_factor_ref         0.1734
_refine_ls_wR_factor_gt          0.1583
_refine_ls_goodness_of_fit_ref   0.958
_refine_ls_restrained_S_all      0.958
_refine_ls_shift/su_max          0.000
_refine_ls_shift/su_mean         0.000

loop_
_platon_squeeze_void_nr
_platon_squeeze_void_average_x
_platon_squeeze_void_average_y
_platon_squeeze_void_average_z
_platon_squeeze_void_volume
_platon_squeeze_void_count_electrons
_platon_squeeze_void_content
1 0.225 -0.020 -0.070 7745 1363 ' '
2 0.531 -0.004 0.220 16 1 ' '
3 0.969 0.004 0.720 16 0 ' '
4 0.469 0.496 0.280 16 0 ' '
5 0.031 0.503 0.780 15 0 ' '
_platon_squeeze_details          ?

loop_
_atom_site_label
_atom_site_type_symbol
_atom_site_fract_x
_atom_site_fract_y
_atom_site_fract_z
_atom_site_U_iso_or_equiv
_atom_site_adp_type
_atom_site_occupancy
_atom_site_site_symmetry_order
_atom_site_calc_flag
_atom_site_refinement_flags_posn
_atom_site_refinement_flags_adp
_atom_site_refinement_flags_occupancy
_atom_site_disorder_assembly
_atom_site_disorder_group
N1 N 0.12315(18) 0.45793(16) 0.95633(13) 0.0843(11) Uani 1 1 d . . . . .
N2 N 0.15104(18) 0.54452(16) 0.96229(14) 0.0825(11) Uani 1 1 d . . . . .
N3 N 0.11643(18) 0.51106(17) 0.88652(14) 0.0834(11) Uani 1 1 d . . . . .
N4 N 0.04487(19) 0.25065(18) 0.81430(14) 0.0896(12) Uani 1 1 d . . . . .
N5 N 0.17291(18) 0.52530(15) 1.21431(14) 0.0820(11) Uani 1 1 d . . . . .
N6 N 0.1003(2) 0.76531(17) 0.80617(15) 0.0966(13) Uani 1 1 d . . . . .
N7 N 0.49213(18) 0.34257(14) 0.74986(15) 0.0820(11) Uani 1 1 d . . . . .
N8 N 0.39592(18) 0.33362(14) 0.72875(14) 0.0798(10) Uani 1 1 d . . . . .
N9 N 0.4291(2) 0.30323(14) 0.80533(15) 0.0838(11) Uani 1 1 d . . . . .
N10 N 0.5291(2) 0.43190(15) 0.50198(14) 0.0879(12) Uani 1 1 d . . . . .
N11 N 0.14418(18) 0.20288(16) 0.77909(14) 0.0848(11) Uani 1 1 d . . . . .
N12 N 0.65572(18) 0.22548(15) 0.94613(14) 0.0812(11) Uani 1 1 d . . . . .
N13 N 0.5315(2) 0.67156(17) 0.71637(16) 0.0975(13) Uani 1 1 d . . . . .
N14 N 0.4417(2) 0.66827(16) 0.68013(15) 0.0917(12) Uani 1 1 d . . . . .
N15 N 0.4539(2) 0.70734(15) 0.75856(15) 0.0868(11) Uani 1 1 d . . . . .
N16 N 0.5497(2) 0.53461(15) 0.48027(15) 0.0916(12) Uani 1 1 d . . . . .
N17 N 0.1828(2) 0.80264(18) 0.74020(16) 0.0953(12) Uani 1 1 d . . . . .
N18 N 0.7014(2) 0.77855(14) 0.90373(14) 0.0814(11) Uani 1 1 d . . . . .
N19 N 0.5881(2) 0.50492(19) 1.0730(2) 0.1108(15) Uani 1 1 d . . . . .
N20 N 0.50424(19) 0.47963(17) 1.11346(16) 0.0898(12) Uani 1 1 d . . . . .
N21 N 0.5243(2) 0.56690(17) 1.10257(17) 0.0988(13) Uani 1 1 d . . . . .
N22 N 0.6714(2) 0.25580(17) 1.04561(14) 0.0932(12) Uani 1 1 d . . . . .
N23 N 0.27376(19) 0.54381(18) 1.26382(16) 0.0934(12) Uani 1 1 d . . . . .
N24 N 0.72083(19) 0.74151(19) 1.00243(15) 0.0921(12) Uani 1 1 d . . . . .
C1 C 0.1122(2) 0.4673(2) 0.90793(16) 0.0808(13) Uani 1 1 d . . . . .
C2 C 0.1359(2) 0.5493(2) 0.91495(18) 0.0857(14) Uani 1 1 d . . . . .
C3 C 0.1433(2) 0.4985(2) 0.98064(17) 0.0898(15) Uani 1 1 d . . . . .
C4 C 0.0958(2) 0.4232(2) 0.87913(16) 0.0810(13) Uani 1 1 d . . . . .
C5 C 0.0771(2) 0.3796(2) 0.90198(17) 0.0906(15) Uani 1 1 d . . . . .
H5 H 0.0722 0.3792 0.9360 0.109 Uiso 1 1 calc R U . . .
C6 C 0.0657(2) 0.3372(2) 0.87523(17) 0.0918(15) Uani 1 1 d . . . . .
H6 H 0.0530 0.3086 0.8914 0.110 Uiso 1 1 calc R U . . .
C7 C 0.0727(2) 0.3362(2) 0.82497(17) 0.0856(14) Uani 1 1 d . . . . .
C8 C 0.0911(3) 0.3804(2) 0.80243(19) 0.1062(19) Uani 1 1 d . . . . .
H8 H 0.0962 0.3807 0.7684 0.127 Uiso 1 1 calc R U . . .
C9 C 0.1018(3) 0.4223(2) 0.82816(17) 0.1000(17) Uani 1 1 d . . . . .
H9 H 0.1133 0.4511 0.8116 0.120 Uiso 1 1 calc R U . . .
C10 C 0.0642(2) 0.2914(2) 0.79599(19) 0.0931(16) Uani 1 1 d . . . . .
H10 H 0.0731 0.2923 0.7626 0.112 Uiso 1 1 calc R U . . .
C11 C 0.1356(2) 0.60123(19) 0.89414(17) 0.0835(14) Uani 1 1 d . . . . .
C12 C 0.1132(3) 0.6108(2) 0.84781(18) 0.0977(16) Uani 1 1 d . . . . .
H12 H 0.0989 0.5848 0.8287 0.117 Uiso 1 1 calc R U . . .
C13 C 0.1123(3) 0.6594(2) 0.83062(19) 0.1018(17) Uani 1 1 d . . . . .
H13 H 0.0963 0.6660 0.8000 0.122 Uiso 1 1 calc R U . . .
C14 C 0.1347(2) 0.6986(2) 0.85784(18) 0.0907(15) Uani 1 1 d . . . . .
C15 C 0.1580(3) 0.6884(2) 0.9038(2) 0.1044(18) Uani 1 1 d . . . . .
H15 H 0.1734 0.7140 0.9227 0.125 Uiso 1 1 calc R U . . .
C16 C 0.1579(3) 0.6397(2) 0.92061(19) 0.0993(17) Uani 1 1 d . . . . .
H16 H 0.1737 0.6328 0.9513 0.119 Uiso 1 1 calc R U . . .
C17 C 0.1333(3) 0.7519(2) 0.84113(19) 0.0945(15) Uani 1 1 d . . . . .
H17 H 0.1565 0.7755 0.8561 0.113 Uiso 1 1 calc R U . . .
C18 C 0.1549(2) 0.4907(2) 1.03426(16) 0.0856(14) Uani 1 1 d . . . . .
C19 C 0.1886(2) 0.5258(2) 1.05895(18) 0.0919(15) Uani 1 1 d . . . . .
H19 H 0.2072 0.5508 1.0415 0.110 Uiso 1 1 calc R U . . .
C20 C 0.1939(2) 0.5225(2) 1.11041(17) 0.0871(14) Uani 1 1 d . . . . .
H20 H 0.2157 0.5459 1.1272 0.105 Uiso 1 1 calc R U . . .
C21 C 0.1676(2) 0.48541(18) 1.13606(16) 0.0800(13) Uani 1 1 d . . . . .
C22 C 0.1370(2) 0.44904(19) 1.11084(17) 0.0895(15) Uani 1 1 d . . . . .
H22 H 0.1210 0.4224 1.1280 0.107 Uiso 1 1 calc R U . . .
C23 C 0.1306(3) 0.4526(2) 1.06027(18) 0.0944(16) Uani 1 1 d . . . . .
H23 H 0.1093 0.4287 1.0437 0.113 Uiso 1 1 calc R U . . .
C24 C 0.1691(2) 0.48447(19) 1.19060(17) 0.0831(13) Uani 1 1 d . . . . .
H24 H 0.1673 0.4541 1.2074 0.100 Uiso 1 1 calc R U . . .
C25 C 0.4485(3) 0.34834(18) 0.71954(18) 0.0836(13) Uani 1 1 d . . . . .
C26 C 0.3894(2) 0.31006(17) 0.77182(18) 0.0790(13) Uani 1 1 d . . . . .
C27 C 0.4809(2) 0.31952(18) 0.79284(19) 0.0837(13) Uani 1 1 d . . . . .
C28 C 0.4593(2) 0.37136(17) 0.67043(17) 0.0805(13) Uani 1 1 d . . . . .
C29 C 0.5138(2) 0.37636(19) 0.65213(18) 0.0885(14) Uani 1 1 d . . . . .
H29 H 0.5440 0.3677 0.6721 0.106 Uiso 1 1 calc R U . . .
C30 C 0.5238(2) 0.39395(19) 0.60492(19) 0.0885(14) Uani 1 1 d . . . . .
H30 H 0.5601 0.3963 0.5928 0.106 Uiso 1 1 calc R U . . .
C31 C 0.4775(2) 0.40821(19) 0.57558(18) 0.0852(14) Uani 1 1 d . . . . .
C32 C 0.4241(3) 0.4027(2) 0.5932(2) 0.0985(16) Uani 1 1 d . . . . .
H32 H 0.3939 0.4113 0.5731 0.118 Uiso 1 1 calc R U . . .
C33 C 0.4139(2) 0.3845(2) 0.6403(2) 0.0947(16) Uani 1 1 d . . . . .
H33 H 0.3773 0.3811 0.6518 0.114 Uiso 1 1 calc R U . . .
C34 C 0.4829(3) 0.42703(19) 0.52467(18) 0.0892(14) Uani 1 1 d . . . . .
H34 H 0.4502 0.4359 0.5080 0.107 Uiso 1 1 calc R U . . .
C35 C 0.3332(2) 0.28861(16) 0.78310(18) 0.0791(13) Uani 1 1 d . . . . .
C36 C 0.2888(2) 0.29198(18) 0.74966(19) 0.0825(13) Uani 1 1 d . . . . .
H36 H 0.2936 0.3099 0.7205 0.099 Uiso 1 1 calc R U . . .
C37 C 0.2391(2) 0.26963(17) 0.75885(18) 0.0792(13) Uani 1 1 d . . . . .
H37 H 0.2099 0.2725 0.7362 0.095 Uiso 1 1 calc R U . . .
C38 C 0.2311(2) 0.24185(19) 0.80278(17) 0.0847(14) Uani 1 1 d . . . . .
C39 C 0.2746(3) 0.2410(3) 0.83641(19) 0.115(2) Uani 1 1 d . . . . .
H39 H 0.2688 0.2256 0.8668 0.138 Uiso 1 1 calc R U . . .
C40 C 0.3258(3) 0.2617(2) 0.82672(18) 0.0991(16) Uani 1 1 d . . . . .
H40 H 0.3552 0.2580 0.8489 0.119 Uiso 1 1 calc R U . . .
C41 C 0.1797(3) 0.2148(2) 0.81224(19) 0.0928(15) Uani 1 1 d . . . . .
H41 H 0.1721 0.2054 0.8446 0.111 Uiso 1 1 calc R U . . .
C42 C 0.5267(2) 0.30957(18) 0.82745(18) 0.0813(13) Uani 1 1 d . . . . .
C43 C 0.5164(2) 0.2795(2) 0.86861(18) 0.0903(15) Uani 1 1 d . . . . .
H43 H 0.4803 0.2684 0.8754 0.108 Uiso 1 1 calc R U . . .
C44 C 0.5604(2) 0.26639(19) 0.89930(18) 0.0872(14) Uani 1 1 d . . . . .
H44 H 0.5535 0.2460 0.9265 0.105 Uiso 1 1 calc R U . . .
C45 C 0.6152(2) 0.28323(18) 0.89028(17) 0.0811(13) Uani 1 1 d . . . . .
C46 C 0.6239(2) 0.3144(2) 0.8503(2) 0.1006(17) Uani 1 1 d . . . . .
H46 H 0.6595 0.3270 0.8441 0.121 Uiso 1 1 calc R U . . .
C47 C 0.5794(3) 0.3272(2) 0.8190(2) 0.0972(16) Uani 1 1 d . . . . .
H47 H 0.5859 0.3481 0.7920 0.117 Uiso 1 1 calc R U . . .
C48 C 0.6615(2) 0.26466(19) 0.91903(18) 0.0859(14) Uani 1 1 d . . . . .
H48 H 0.6959 0.2811 0.9180 0.103 Uiso 1 1 calc R U . . .
C49 C 0.4970(3) 0.6593(2) 0.6807(2) 0.0955(16) Uani 1 1 d . . . . .
C50 C 0.4216(3) 0.69406(19) 0.71988(18) 0.0903(15) Uani 1 1 d . . . . .
C51 C 0.5080(3) 0.69565(18) 0.75536(18) 0.0839(14) Uani 1 1 d . . . . .
C52 C 0.5203(3) 0.6325(2) 0.63722(19) 0.1000(17) Uani 1 1 d . . . . .
C53 C 0.4879(3) 0.6302(2) 0.59319(18) 0.0936(15) Uani 1 1 d . . . . .
H53 H 0.4539 0.6471 0.5902 0.112 Uiso 1 1 calc R U . . .
C54 C 0.5096(3) 0.6014(2) 0.55484(19) 0.0954(16) Uani 1 1 d . . . . .
H54 H 0.4891 0.5988 0.5258 0.115 Uiso 1 1 calc R U . . .
C55 C 0.5596(3) 0.5771(2) 0.5580(2) 0.1095(19) Uani 1 1 d . . . . .
C56 C 0.5922(3) 0.5831(3) 0.6009(2) 0.143(3) Uani 1 1 d . . . . .
H56 H 0.6274 0.5681 0.6029 0.172 Uiso 1 1 calc R U . . .
C57 C 0.5727(3) 0.6107(3) 0.6394(2) 0.136(3) Uani 1 1 d . . . . .
H57 H 0.5948 0.6150 0.6673 0.164 Uiso 1 1 calc R U . . .
C58 C 0.5801(3) 0.5419(2) 0.5185(2) 0.1071(18) Uani 1 1 d . . . . .
H58 H 0.6145 0.5257 0.5218 0.129 Uiso 1 1 calc R U . . .
C59 C 0.3628(2) 0.7079(2) 0.72078(19) 0.0912(14) Uani 1 1 d . . . . .
C60 C 0.3440(3) 0.7410(2) 0.7574(2) 0.1044(17) Uani 1 1 d . . . . .
H60 H 0.3683 0.7522 0.7819 0.125 Uiso 1 1 calc R U . . .
C61 C 0.2904(3) 0.7565(2) 0.7566(2) 0.1099(19) Uani 1 1 d . . . . .
H61 H 0.2778 0.7772 0.7819 0.132 Uiso 1 1 calc R U . . .
C62 C 0.2527(3) 0.7430(2) 0.71965(19) 0.0977(16) Uani 1 1 d . . . . .
C63 C 0.2724(3) 0.7089(2) 0.68396(19) 0.0993(17) Uani 1 1 d . . . . .
H63 H 0.2480 0.6978 0.6595 0.119 Uiso 1 1 calc R U . . .
C64 C 0.3259(3) 0.6916(2) 0.68407(18) 0.0892(14) Uani 1 1 d . . . . .
H64 H 0.3378 0.6691 0.6600 0.107 Uiso 1 1 calc R U . . .
C65 C 0.1963(3) 0.7628(2) 0.71795(18) 0.0980(16) Uani 1 1 d . . . . .
H65 H 0.1691 0.7458 0.6999 0.118 Uiso 1 1 calc R U . . .
C66 C 0.5439(3) 0.7115(2) 0.79687(19) 0.0914(15) Uani 1 1 d . . . . .
C67 C 0.6027(2) 0.70327(19) 0.79520(19) 0.0882(14) Uani 1 1 d . . . . .
H67 H 0.6184 0.6850 0.7694 0.106 Uiso 1 1 calc R U . . .
C68 C 0.6367(2) 0.72253(18) 0.83206(18) 0.0849(13) Uani 1 1 d . . . . .
H68 H 0.6752 0.7170 0.8311 0.102 Uiso 1 1 calc R U . . .
C69 C 0.6130(3) 0.75062(19) 0.87125(17) 0.0867(14) Uani 1 1 d . . . . .
C70 C 0.5552(3) 0.7568(2) 0.87354(18) 0.0905(15) Uani 1 1 d . . . . .
H70 H 0.5394 0.7735 0.9002 0.109 Uiso 1 1 calc R U . . .
C71 C 0.5205(2) 0.73804(19) 0.83591(18) 0.0882(14) Uani 1 1 d . . . . .
H71 H 0.4820 0.7434 0.8371 0.106 Uiso 1 1 calc R U . . .
C72 C 0.6480(3) 0.77673(19) 0.90667(18) 0.0844(13) Uani 1 1 d . . . . .
H72 H 0.6306 0.7930 0.9329 0.101 Uiso 1 1 calc R U . . .
C73 C 0.5715(3) 0.5527(2) 1.0807(2) 0.1032(17) Uani 1 1 d . . . . .
C74 C 0.4922(2) 0.5282(2) 1.1197(2) 0.0925(15) Uani 1 1 d . . . . .
C75 C 0.5527(3) 0.4698(2) 1.0897(2) 0.0963(16) Uani 1 1 d . . . . .
C76 C 0.6076(3) 0.5908(2) 1.0573(3) 0.119(2) Uani 1 1 d . . . . .
C77 C 0.5970(3) 0.6423(2) 1.0620(2) 0.1030(17) Uani 1 1 d . . . . .
H77 H 0.5654 0.6531 1.0791 0.124 Uiso 1 1 calc R U . . .
C78 C 0.6334(3) 0.6775(2) 1.0411(2) 0.0975(16) Uani 1 1 d . . . . .
H78 H 0.6252 0.7116 1.0428 0.117 Uiso 1 1 calc R U . . .
C79 C 0.6811(3) 0.6611(3) 1.0182(3) 0.139(3) Uani 1 1 d . . . . .
C80 C 0.6897(4) 0.6088(3) 1.0093(5) 0.210(6) Uani 1 1 d . . . . .
H80 H 0.7174 0.5979 0.9876 0.252 Uiso 1 1 calc R U . . .
C81 C 0.6568(4) 0.5758(3) 1.0332(4) 0.195(5) Uani 1 1 d . . . . .
H81 H 0.6670 0.5421 1.0337 0.234 Uiso 1 1 calc R U . . .
C82 C 0.7229(3) 0.6967(3) 0.9943(3) 0.137(3) Uani 1 1 d . . . . .
H82 H 0.7503 0.6840 0.9732 0.165 Uiso 1 1 calc R U . . .
C83 C 0.5684(3) 0.4179(2) 1.0812(2) 0.0954(15) Uani 1 1 d . . . . .
C84 C 0.6272(3) 0.4071(2) 1.0755(2) 0.1057(18) Uani 1 1 d . . . . .
H84 H 0.6539 0.4324 1.0778 0.127 Uiso 1 1 calc R U . . .
C85 C 0.6429(3) 0.3570(2) 1.0663(2) 0.1078(18) Uani 1 1 d . . . . .
H85 H 0.6808 0.3490 1.0644 0.129 Uiso 1 1 calc R U . . .
C86 C 0.6037(3) 0.3200(2) 1.06005(17) 0.0865(14) Uani 1 1 d . . . . .
C87 C 0.5453(3) 0.3315(2) 1.06542(18) 0.0927(15) Uani 1 1 d . . . . .
H87 H 0.5185 0.3065 1.0615 0.111 Uiso 1 1 calc R U . . .
C88 C 0.5288(3) 0.3804(2) 1.07659(18) 0.0932(15) Uani 1 1 d . . . . .
H88 H 0.4910 0.3877 1.0810 0.112 Uiso 1 1 calc R U . . .
C89 C 0.6202(3) 0.2696(2) 1.04776(17) 0.0873(14) Uani 1 1 d . . . . .
H89 H 0.5924 0.2461 1.0411 0.105 Uiso 1 1 calc R U . . .
C90 C 0.4407(2) 0.5405(2) 1.14805(18) 0.0848(14) Uani 1 1 d . . . . .
C91 C 0.4178(3) 0.5042(2) 1.1790(2) 0.0947(15) Uani 1 1 d . . . . .
H91 H 0.4350 0.4730 1.1815 0.114 Uiso 1 1 calc R U . . .
C92 C 0.3703(2) 0.5139(2) 1.2060(2) 0.0910(15) Uani 1 1 d . . . . .
H92 H 0.3552 0.4894 1.2265 0.109 Uiso 1 1 calc R U . . .
C93 C 0.3449(2) 0.5609(2) 1.20241(18) 0.0864(14) Uani 1 1 d . . . . .
C94 C 0.3683(2) 0.5973(2) 1.17132(19) 0.0894(15) Uani 1 1 d . . . . .
H94 H 0.3515 0.6286 1.1683 0.107 Uiso 1 1 calc R U . . .
C95 C 0.4165(2) 0.5864(2) 1.14517(18) 0.0908(15) Uani 1 1 d . . . . .
H95 H 0.4326 0.6110 1.1253 0.109 Uiso 1 1 calc R U . . .
C96 C 0.2927(2) 0.5736(2) 1.2309(2) 0.0957(15) Uani 1 1 d . . . . .
H96 H 0.2740 0.6036 1.2245 0.115 Uiso 1 1 calc R U . . .
C97 C 0.0426(2) 0.2063(2) 0.78263(17) 0.0918(16) Uani 1 1 d . . . . .
H97 H 0.0436 0.2170 0.7480 0.110 Uiso 1 1 calc R U . . .
C98 C -0.0112(2) 0.1773(2) 0.79183(19) 0.1034(18) Uani 1 1 d . . . . .
H98A H -0.0430 0.1972 0.7811 0.124 Uiso 1 1 calc R U . . .
H98B H -0.0153 0.1711 0.8269 0.124 Uiso 1 1 calc R U . . .
C99 C -0.0114(3) 0.1269(2) 0.7640(2) 0.1008(17) Uani 1 1 d . . . . .
H99A H -0.0448 0.1082 0.7728 0.121 Uiso 1 1 calc R U . . .
H99B H -0.0125 0.1332 0.7288 0.121 Uiso 1 1 calc R U . . .
C100 C 0.0385(3) 0.0963(2) 0.7756(2) 0.109(2) Uani 1 1 d . . . . .
H10A H 0.0380 0.0661 0.7556 0.131 Uiso 1 1 calc R U . . .
H10B H 0.0371 0.0862 0.8100 0.131 Uiso 1 1 calc R U . . .
C101 C 0.0939(3) 0.1251(2) 0.76599(18) 0.1027(17) Uani 1 1 d . . . . .
H10C H 0.1254 0.1048 0.7766 0.123 Uiso 1 1 calc R U . . .
H10D H 0.0978 0.1313 0.7309 0.123 Uiso 1 1 calc R U . . .
C102 C 0.0948(2) 0.1746(2) 0.79345(18) 0.0926(15) Uani 1 1 d . . . . .
H102 H 0.0965 0.1679 0.8290 0.111 Uiso 1 1 calc R U . . .
C103 C 0.1747(2) 0.5233(2) 1.26772(17) 0.0853(14) Uani 1 1 d . . . . .
H103 H 0.1838 0.4891 1.2783 0.102 Uiso 1 1 calc R U . . .
C104 C 0.1176(2) 0.5386(2) 1.28909(19) 0.0973(16) Uani 1 1 d . . . . .
H10E H 0.1075 0.5717 1.2772 0.117 Uiso 1 1 calc R U . . .
H10F H 0.0892 0.5151 1.2783 0.117 Uiso 1 1 calc R U . . .
C105 C 0.1203(3) 0.5390(3) 1.3448(2) 0.120(2) Uani 1 1 d . . . . .
H10G H 0.0846 0.5501 1.3579 0.144 Uiso 1 1 calc R U . . .
H10H H 0.1271 0.5052 1.3567 0.144 Uiso 1 1 calc R U . . .
C106 C 0.1651(3) 0.5725(3) 1.3629(2) 0.149(3) Uani 1 1 d . . . . .
H10I H 0.1668 0.5706 1.3987 0.179 Uiso 1 1 calc R U . . .
H10J H 0.1564 0.6068 1.3539 0.179 Uiso 1 1 calc R U . . .
C107 C 0.2219(3) 0.5579(4) 1.3412(2) 0.151(3) Uani 1 1 d . . . . .
H10K H 0.2504 0.5811 1.3529 0.182 Uiso 1 1 calc R U . . .
H10L H 0.2320 0.5245 1.3524 0.182 Uiso 1 1 calc R U . . .
C108 C 0.2200(2) 0.5589(2) 1.28548(18) 0.0934(16) Uani 1 1 d . . . . .
H108 H 0.2110 0.5930 1.2745 0.112 Uiso 1 1 calc R U . . .
C109 C 0.1001(3) 0.8184(2) 0.79115(18) 0.0930(15) Uani 1 1 d . . . . .
H109 H 0.1247 0.8375 0.8132 0.112 Uiso 1 1 calc R U . . .
C110 C 0.0423(3) 0.8400(2) 0.7931(2) 0.1028(17) Uani 1 1 d . . . . .
H11A H 0.0300 0.8417 0.8272 0.123 Uiso 1 1 calc R U . . .
H11B H 0.0167 0.8183 0.7754 0.123 Uiso 1 1 calc R U . . .
C111 C 0.0404(3) 0.8919(2) 0.7709(2) 0.122(2) Uani 1 1 d . . . . .
H11C H 0.0019 0.9035 0.7710 0.146 Uiso 1 1 calc R U . . .
H11D H 0.0621 0.9144 0.7915 0.146 Uiso 1 1 calc R U . . .
C112 C 0.0621(3) 0.8947(2) 0.7200(2) 0.1125(19) Uani 1 1 d . . . . .
H11E H 0.0625 0.9294 0.7091 0.135 Uiso 1 1 calc R U . . .
H11F H 0.0378 0.8759 0.6980 0.135 Uiso 1 1 calc R U . . .
C113 C 0.1220(3) 0.8730(2) 0.7182(2) 0.120(2) Uani 1 1 d . . . . .
H11G H 0.1351 0.8730 0.6843 0.144 Uiso 1 1 calc R U . . .
H11H H 0.1468 0.8942 0.7373 0.144 Uiso 1 1 calc R U . . .
C114 C 0.1244(3) 0.8193(2) 0.7386(2) 0.0967(16) Uani 1 1 d . . . . .
H114 H 0.1027 0.7968 0.7173 0.116 Uiso 1 1 calc R U . . .
C115 C 0.5257(3) 0.45281(18) 0.45143(16) 0.0884(15) Uani 1 1 d . . . . .
H115 H 0.4880 0.4665 0.4461 0.106 Uiso 1 1 calc R U . . .
C116 C 0.5365(3) 0.4109(2) 0.41361(18) 0.113(2) Uani 1 1 d . . . . .
H11I H 0.5724 0.3953 0.4203 0.135 Uiso 1 1 calc R U . . .
H11J H 0.5077 0.3854 0.4166 0.135 Uiso 1 1 calc R U . . .
C117 C 0.5363(4) 0.4314(3) 0.36264(19) 0.128(2) Uani 1 1 d . . . . .
H11K H 0.4994 0.4447 0.3550 0.154 Uiso 1 1 calc R U . . .
H11L H 0.5445 0.4048 0.3393 0.154 Uiso 1 1 calc R U . . .
C118 C 0.5806(3) 0.4736(2) 0.35746(19) 0.121(2) Uani 1 1 d . . . . .
H11M H 0.6176 0.4601 0.3638 0.146 Uiso 1 1 calc R U . . .
H11N H 0.5801 0.4866 0.3240 0.146 Uiso 1 1 calc R U . . .
C119 C 0.5683(3) 0.5155(2) 0.39357(18) 0.1062(18) Uani 1 1 d . . . . .
H11O H 0.5320 0.5302 0.3862 0.127 Uiso 1 1 calc R U . . .
H11P H 0.5965 0.5416 0.3905 0.127 Uiso 1 1 calc R U . . .
C120 C 0.5682(3) 0.49468(19) 0.44694(16) 0.0882(15) Uani 1 1 d . . . . .
H120 H 0.6057 0.4828 0.4562 0.106 Uiso 1 1 calc R U . . .
C121 C 0.7028(2) 0.20761(18) 0.97509(17) 0.0851(14) Uani 1 1 d . . . . .
H121 H 0.7344 0.2309 0.9722 0.102 Uiso 1 1 calc R U . . .
C122 C 0.7195(3) 0.1562(2) 0.9573(2) 0.1004(17) Uani 1 1 d . . . . .
H12A H 0.6866 0.1349 0.9561 0.120 Uiso 1 1 calc R U . . .
H12B H 0.7344 0.1588 0.9241 0.120 Uiso 1 1 calc R U . . .
C123 C 0.7625(3) 0.1325(3) 0.9900(3) 0.122(2) Uani 1 1 d . . . . .
H12C H 0.7965 0.1525 0.9897 0.147 Uiso 1 1 calc R U . . .
H12D H 0.7717 0.0993 0.9776 0.147 Uiso 1 1 calc R U . . .
C124 C 0.7405(4) 0.1285(3) 1.0421(2) 0.135(3) Uani 1 1 d . . . . .
H12E H 0.7684 0.1130 1.0631 0.162 Uiso 1 1 calc R U . . .
H12F H 0.7071 0.1077 1.0425 0.162 Uiso 1 1 calc R U . . .
C125 C 0.7266(3) 0.1805(3) 1.0614(2) 0.118(2) Uani 1 1 d . . . . .
H12G H 0.7127 0.1780 1.0950 0.142 Uiso 1 1 calc R U . . .
H12H H 0.7602 0.2009 1.0617 0.142 Uiso 1 1 calc R U . . .
C126 C 0.6828(2) 0.2049(2) 1.02920(16) 0.0906(15) Uani 1 1 d . . . . .
H126 H 0.6481 0.1852 1.0308 0.109 Uiso 1 1 calc R U . . .
C127 C 0.7313(2) 0.80761(17) 0.94091(18) 0.0805(13) Uani 1 1 d . . . . .
H127 H 0.7041 0.8271 0.9601 0.097 Uiso 1 1 calc R U . . .
C128 C 0.7714(3) 0.8432(2) 0.9160(2) 0.0976(16) Uani 1 1 d . . . . .
H12I H 0.7504 0.8661 0.8952 0.117 Uiso 1 1 calc R U . . .
H12J H 0.7966 0.8242 0.8949 0.117 Uiso 1 1 calc R U . . .
C129 C 0.8056(3) 0.8732(2) 0.9529(2) 0.1014(16) Uani 1 1 d . . . . .
H12K H 0.7810 0.8943 0.9725 0.122 Uiso 1 1 calc R U . . .
H12L H 0.8320 0.8947 0.9357 0.122 Uiso 1 1 calc R U . . .
C130 C 0.8381(2) 0.8356(2) 0.9875(2) 0.1029(17) Uani 1 1 d . . . . .
H13A H 0.8648 0.8164 0.9681 0.123 Uiso 1 1 calc R U . . .
H13B H 0.8588 0.8542 1.0123 0.123 Uiso 1 1 calc R U . . .
C131 C 0.7988(3) 0.8012(2) 1.0119(2) 0.1009(16) Uani 1 1 d . . . . .
H13C H 0.7747 0.8203 1.0338 0.121 Uiso 1 1 calc R U . . .
H13D H 0.8199 0.7776 1.0318 0.121 Uiso 1 1 calc R U . . .
C132 C 0.7628(2) 0.77239(19) 0.97558(19) 0.0870(14) Uani 1 1 d . . . . .
H132 H 0.7868 0.7502 0.9560 0.104 Uiso 1 1 calc R U . . .

loop_
_atom_site_aniso_label
_atom_site_aniso_U_11
_atom_site_aniso_U_22
_atom_site_aniso_U_33
_atom_site_aniso_U_23
_atom_site_aniso_U_13
_atom_site_aniso_U_12
N1 0.102(3) 0.100(3) 0.050(2) -0.013(2) -0.0008(19) 0.003(2)
N2 0.097(3) 0.091(3) 0.060(2) -0.001(2) -0.004(2) 0.004(2)
N3 0.096(3) 0.097(3) 0.057(2) -0.008(2) 0.003(2) -0.004(2)
N4 0.101(3) 0.110(3) 0.058(2) 0.000(2) -0.003(2) -0.012(3)
N5 0.097(3) 0.084(3) 0.065(2) -0.008(2) -0.012(2) 0.004(2)
N6 0.123(4) 0.099(3) 0.068(2) 0.003(2) -0.010(3) 0.007(3)
N7 0.096(3) 0.079(2) 0.071(2) 0.018(2) 0.000(2) 0.005(2)
N8 0.091(3) 0.075(2) 0.074(2) 0.020(2) 0.012(2) 0.005(2)
N9 0.098(3) 0.077(3) 0.076(3) 0.015(2) 0.004(2) 0.000(2)
N10 0.114(3) 0.088(3) 0.062(2) 0.007(2) 0.000(2) 0.014(2)
N11 0.093(3) 0.101(3) 0.061(2) -0.009(2) 0.003(2) -0.023(2)
N12 0.100(3) 0.084(3) 0.060(2) 0.004(2) -0.006(2) 0.009(2)
N13 0.111(3) 0.109(3) 0.073(3) -0.031(2) 0.011(3) -0.019(3)
N14 0.106(4) 0.097(3) 0.072(3) -0.025(2) 0.012(2) -0.014(3)
N15 0.100(3) 0.087(3) 0.073(3) -0.021(2) 0.007(2) -0.009(2)
N16 0.128(4) 0.088(3) 0.059(2) -0.008(2) 0.019(2) 0.003(2)
N17 0.109(4) 0.095(3) 0.082(3) -0.003(2) 0.005(2) 0.001(3)
N18 0.097(3) 0.072(2) 0.075(2) -0.0080(19) 0.004(2) -0.005(2)
N19 0.113(4) 0.089(3) 0.131(4) 0.021(3) 0.031(3) 0.001(3)
N20 0.093(3) 0.089(3) 0.087(3) 0.003(2) 0.010(2) -0.005(2)
N21 0.111(4) 0.090(3) 0.095(3) 0.016(2) 0.019(3) -0.011(3)
N22 0.122(4) 0.102(3) 0.056(2) 0.005(2) -0.004(2) 0.008(3)
N23 0.099(3) 0.118(3) 0.063(2) -0.019(2) -0.001(2) -0.015(3)
N24 0.104(3) 0.091(3) 0.081(3) 0.008(2) 0.003(2) -0.007(3)
C1 0.092(3) 0.095(4) 0.055(3) -0.001(3) 0.006(2) 0.002(3)
C2 0.097(4) 0.098(4) 0.062(3) 0.008(3) 0.005(3) 0.014(3)
C3 0.102(4) 0.112(4) 0.056(3) -0.006(3) 0.002(3) 0.007(3)
C4 0.086(3) 0.098(4) 0.059(3) -0.007(3) 0.005(2) -0.006(3)
C5 0.123(4) 0.094(4) 0.055(3) -0.002(3) 0.004(3) -0.007(3)
C6 0.124(4) 0.093(3) 0.058(3) 0.001(3) 0.003(3) -0.009(3)
C7 0.091(3) 0.110(4) 0.056(3) -0.005(3) 0.003(2) -0.012(3)
C8 0.138(5) 0.124(5) 0.057(3) -0.006(3) 0.004(3) -0.048(4)
C9 0.137(5) 0.110(4) 0.053(3) -0.009(3) 0.011(3) -0.028(4)
C10 0.114(4) 0.106(4) 0.059(3) 0.001(3) 0.001(3) -0.029(3)
C11 0.102(4) 0.088(3) 0.060(3) -0.010(3) 0.002(3) 0.005(3)
C12 0.139(5) 0.089(4) 0.064(3) 0.003(3) -0.021(3) -0.011(3)
C13 0.133(5) 0.107(4) 0.065(3) -0.001(3) -0.013(3) -0.004(4)
C14 0.114(4) 0.092(4) 0.067(3) -0.002(3) -0.006(3) 0.012(3)
C15 0.136(5) 0.101(4) 0.077(3) -0.011(3) -0.020(3) 0.019(4)
C16 0.144(5) 0.088(4) 0.066(3) -0.008(3) -0.023(3) 0.020(3)
C17 0.118(4) 0.094(4) 0.072(3) -0.009(3) -0.009(3) 0.014(3)
C18 0.114(4) 0.094(3) 0.049(2) -0.007(2) 0.000(3) 0.004(3)
C19 0.112(4) 0.100(4) 0.063(3) 0.005(3) -0.001(3) -0.011(3)
C20 0.102(4) 0.098(4) 0.061(3) -0.001(3) -0.007(3) -0.013(3)
C21 0.108(4) 0.074(3) 0.057(3) -0.004(2) -0.009(3) 0.004(3)
C22 0.134(4) 0.078(3) 0.057(3) -0.007(2) 0.001(3) -0.011(3)
C23 0.128(5) 0.094(3) 0.061(3) -0.010(3) 0.000(3) -0.018(3)
C24 0.116(4) 0.075(3) 0.058(3) -0.008(2) 0.000(3) 0.003(3)
C25 0.101(4) 0.076(3) 0.074(3) 0.016(2) 0.004(3) 0.005(3)
C26 0.095(4) 0.067(3) 0.074(3) 0.003(2) 0.005(3) 0.010(3)
C27 0.091(4) 0.078(3) 0.082(3) 0.017(3) 0.004(3) 0.006(3)
C28 0.093(4) 0.075(3) 0.074(3) 0.018(2) 0.000(3) -0.002(3)
C29 0.097(4) 0.100(4) 0.069(3) 0.020(3) 0.002(3) 0.001(3)
C30 0.089(4) 0.098(4) 0.078(3) 0.012(3) 0.008(3) 0.015(3)
C31 0.095(4) 0.088(3) 0.073(3) 0.022(3) 0.004(3) 0.005(3)
C32 0.095(4) 0.097(4) 0.103(4) 0.036(3) -0.015(3) 0.001(3)
C33 0.086(4) 0.104(4) 0.094(4) 0.038(3) 0.011(3) 0.023(3)
C34 0.106(4) 0.095(4) 0.066(3) 0.009(3) 0.005(3) 0.007(3)
C35 0.095(4) 0.067(3) 0.076(3) 0.003(2) 0.009(3) -0.003(3)
C36 0.088(4) 0.077(3) 0.082(3) 0.013(3) 0.013(3) 0.008(3)
C37 0.085(4) 0.077(3) 0.075(3) 0.002(2) -0.001(3) 0.006(3)
C38 0.096(4) 0.092(3) 0.066(3) -0.007(3) 0.012(3) -0.021(3)
C39 0.136(5) 0.150(5) 0.059(3) 0.000(3) -0.002(3) -0.053(4)
C40 0.113(4) 0.121(4) 0.063(3) 0.006(3) 0.001(3) -0.034(4)
C41 0.117(4) 0.095(4) 0.066(3) -0.004(3) 0.012(3) -0.020(3)
C42 0.090(4) 0.079(3) 0.075(3) 0.014(2) -0.002(3) 0.000(3)
C43 0.098(4) 0.102(4) 0.070(3) 0.023(3) 0.005(3) -0.001(3)
C44 0.105(4) 0.087(3) 0.070(3) 0.019(2) 0.000(3) 0.000(3)
C45 0.095(4) 0.079(3) 0.069(3) 0.011(2) -0.001(3) 0.011(3)
C46 0.090(4) 0.125(4) 0.087(4) 0.036(3) 0.002(3) 0.006(3)
C47 0.110(5) 0.094(4) 0.087(3) 0.033(3) 0.002(3) 0.004(3)
C48 0.098(4) 0.086(3) 0.074(3) 0.012(3) -0.002(3) 0.005(3)
C49 0.103(5) 0.106(4) 0.078(3) -0.026(3) 0.013(3) -0.016(3)
C50 0.120(5) 0.086(3) 0.065(3) -0.016(3) 0.007(3) -0.018(3)
C51 0.100(4) 0.081(3) 0.071(3) -0.017(3) 0.006(3) -0.012(3)
C52 0.103(4) 0.123(4) 0.074(3) -0.037(3) 0.011(3) -0.008(3)
C53 0.124(4) 0.093(3) 0.064(3) -0.020(3) 0.014(3) -0.011(3)
C54 0.111(5) 0.103(4) 0.072(3) -0.023(3) 0.010(3) -0.001(3)
C55 0.126(5) 0.129(5) 0.074(3) -0.043(3) 0.010(3) -0.010(4)
C56 0.111(5) 0.215(8) 0.103(5) -0.081(5) -0.006(4) 0.022(5)
C57 0.107(5) 0.205(7) 0.098(4) -0.068(5) 0.001(4) 0.012(5)
C58 0.104(4) 0.142(5) 0.075(3) -0.035(3) 0.016(3) 0.007(4)
C59 0.090(4) 0.103(4) 0.081(3) -0.018(3) 0.009(3) 0.002(3)
C60 0.107(5) 0.131(4) 0.076(3) -0.034(3) -0.004(3) 0.014(4)
C61 0.109(5) 0.138(5) 0.082(4) -0.041(3) 0.010(3) 0.004(4)
C62 0.109(4) 0.112(4) 0.072(3) -0.016(3) 0.002(3) -0.002(4)
C63 0.120(5) 0.108(4) 0.070(3) -0.022(3) 0.005(3) -0.011(4)
C64 0.104(4) 0.093(3) 0.070(3) -0.014(3) 0.006(3) 0.001(3)
C65 0.115(5) 0.116(4) 0.063(3) -0.016(3) 0.003(3) 0.007(4)
C66 0.108(4) 0.091(3) 0.075(3) -0.025(3) 0.012(3) -0.016(3)
C67 0.097(4) 0.089(3) 0.078(3) -0.022(3) 0.009(3) -0.014(3)
C68 0.095(3) 0.083(3) 0.076(3) -0.012(3) 0.003(3) 0.004(3)
C69 0.107(4) 0.091(3) 0.062(3) -0.016(3) 0.005(3) -0.006(3)
C70 0.098(4) 0.099(4) 0.074(3) -0.015(3) 0.012(3) -0.011(3)
C71 0.091(3) 0.096(3) 0.078(3) -0.021(3) 0.008(3) -0.005(3)
C72 0.093(4) 0.090(3) 0.070(3) -0.011(2) 0.008(3) -0.006(3)
C73 0.102(4) 0.098(4) 0.110(4) 0.015(3) 0.026(4) -0.004(4)
C74 0.098(4) 0.093(4) 0.087(3) 0.008(3) -0.006(3) -0.013(3)
C75 0.108(4) 0.081(4) 0.099(4) 0.016(3) 0.026(3) -0.002(3)
C76 0.108(5) 0.093(4) 0.156(6) 0.037(4) 0.038(4) 0.001(4)
C77 0.117(5) 0.098(4) 0.094(4) 0.002(3) 0.019(3) -0.022(4)
C78 0.108(4) 0.093(4) 0.091(4) -0.002(3) 0.014(3) -0.001(3)
C79 0.115(5) 0.106(5) 0.196(7) 0.045(5) 0.072(5) 0.001(4)
C80 0.177(8) 0.097(5) 0.356(16) 0.048(7) 0.142(10) 0.008(5)
C81 0.165(7) 0.097(5) 0.323(14) 0.059(6) 0.128(9) 0.015(5)
C82 0.133(6) 0.096(5) 0.182(7) 0.023(5) 0.058(5) 0.014(4)
C83 0.104(5) 0.099(4) 0.083(3) 0.006(3) 0.016(3) 0.000(4)
C84 0.105(5) 0.097(4) 0.115(4) 0.006(3) 0.020(4) -0.007(3)
C85 0.127(5) 0.100(4) 0.097(4) -0.011(3) 0.023(4) 0.011(4)
C86 0.106(4) 0.094(4) 0.060(3) 0.003(3) 0.003(3) -0.001(4)
C87 0.114(5) 0.091(4) 0.073(3) -0.001(3) 0.007(3) -0.001(3)
C88 0.103(4) 0.102(4) 0.075(3) 0.004(3) 0.005(3) -0.003(4)
C89 0.101(4) 0.102(4) 0.060(3) 0.005(3) -0.002(3) 0.004(3)
C90 0.097(4) 0.079(3) 0.078(3) -0.004(3) 0.005(3) 0.000(3)
C91 0.109(4) 0.082(3) 0.093(3) 0.004(3) 0.014(3) -0.001(3)
C92 0.101(4) 0.087(4) 0.086(3) -0.007(3) 0.016(3) -0.003(3)
C93 0.100(4) 0.093(4) 0.066(3) -0.003(3) -0.006(3) -0.012(3)
C94 0.106(4) 0.086(3) 0.077(3) -0.007(3) -0.010(3) 0.001(3)
C95 0.100(4) 0.102(4) 0.070(3) 0.015(3) 0.006(3) -0.007(3)
C96 0.097(4) 0.112(4) 0.078(3) -0.026(3) 0.000(3) -0.004(3)
C97 0.107(4) 0.118(4) 0.051(2) -0.004(3) -0.004(3) -0.027(4)
C98 0.100(4) 0.142(5) 0.069(3) 0.001(3) -0.003(3) -0.043(4)
C99 0.117(5) 0.115(4) 0.071(3) 0.002(3) -0.012(3) -0.026(4)
C100 0.141(6) 0.118(4) 0.068(3) 0.006(3) -0.016(3) -0.050(4)
C101 0.132(5) 0.114(4) 0.062(3) -0.008(3) 0.000(3) -0.023(4)
C102 0.108(4) 0.107(4) 0.062(3) -0.003(3) -0.003(3) -0.014(4)
C103 0.098(4) 0.096(3) 0.062(3) -0.004(2) -0.008(3) 0.001(3)
C104 0.101(4) 0.111(4) 0.080(3) -0.013(3) 0.004(3) -0.010(3)
C105 0.108(4) 0.167(6) 0.084(4) -0.028(4) 0.018(3) -0.040(4)
C106 0.123(5) 0.239(8) 0.085(4) -0.081(5) 0.032(4) -0.048(6)
C107 0.142(6) 0.247(9) 0.065(3) -0.060(5) 0.012(4) -0.058(6)
C108 0.098(4) 0.113(4) 0.068(3) -0.034(3) 0.010(3) -0.016(3)
C109 0.123(5) 0.094(4) 0.062(3) 0.003(3) 0.001(3) 0.006(3)
C110 0.130(5) 0.103(4) 0.075(3) 0.007(3) 0.009(3) 0.022(4)
C111 0.148(6) 0.116(5) 0.101(4) 0.002(4) -0.007(4) 0.029(4)
C112 0.129(5) 0.118(5) 0.090(4) 0.018(3) -0.008(4) 0.018(4)
C113 0.158(6) 0.112(4) 0.090(4) 0.012(3) 0.006(4) 0.024(4)
C114 0.116(5) 0.093(4) 0.081(3) 0.003(3) -0.003(3) 0.009(3)
C115 0.131(4) 0.083(3) 0.051(2) 0.006(2) 0.001(3) 0.005(3)
C116 0.183(6) 0.095(4) 0.060(3) -0.011(3) 0.000(3) -0.005(4)
C117 0.204(7) 0.121(5) 0.059(3) -0.026(3) 0.016(4) -0.002(5)
C118 0.196(7) 0.116(4) 0.052(3) -0.007(3) 0.026(4) 0.026(5)
C119 0.150(5) 0.105(4) 0.063(3) 0.003(3) 0.035(3) 0.005(4)
C120 0.117(4) 0.093(3) 0.054(2) -0.010(2) 0.017(3) 0.005(3)
C121 0.107(4) 0.085(3) 0.063(3) 0.012(2) 0.007(3) 0.009(3)
C122 0.135(5) 0.085(3) 0.081(3) 0.006(3) 0.001(3) 0.024(3)
C123 0.129(5) 0.111(4) 0.127(5) 0.018(4) -0.002(4) 0.031(4)
C124 0.174(7) 0.123(5) 0.108(5) 0.032(4) 0.008(5) 0.058(5)
C125 0.137(5) 0.148(6) 0.070(3) 0.030(4) -0.007(3) 0.021(4)
C126 0.113(4) 0.101(4) 0.058(3) 0.017(3) 0.002(3) 0.019(3)
C127 0.091(3) 0.070(3) 0.081(3) 0.003(3) 0.001(3) -0.003(3)
C128 0.115(4) 0.088(3) 0.090(3) 0.009(3) -0.011(3) -0.007(3)
C129 0.111(4) 0.083(3) 0.111(4) 0.006(3) -0.007(3) -0.011(3)
C130 0.090(4) 0.107(4) 0.111(4) 0.008(3) -0.015(3) -0.021(3)
C131 0.105(4) 0.101(4) 0.097(4) 0.008(3) -0.013(3) -0.011(3)
C132 0.087(3) 0.084(3) 0.090(3) 0.005(3) 0.011(3) -0.008(3)

_geom_special_details            
;
 All esds (except the esd in the dihedral angle between two l.s. planes)
 are estimated using the full covariance matrix.  The cell esds are taken
 into account individually in the estimation of esds in distances, angles
 and torsion angles; correlations between esds in cell parameters are only
 used when they are defined by crystal symmetry.  An approximate (isotropic)
 treatment of cell esds is used for estimating esds involving l.s. planes.
;

loop_
_geom_bond_atom_site_label_1
_geom_bond_atom_site_label_2
_geom_bond_distance
_geom_bond_site_symmetry_2
_geom_bond_publ_flag
N1 C3 1.355(7) . ?
N1 C1 1.359(6) . ?
N2 C3 1.336(7) . ?
N2 C2 1.338(6) . ?
N3 C1 1.308(6) . ?
N3 C2 1.360(6) . ?
N4 C10 1.281(6) . ?
N4 C97 1.461(7) . ?
N5 C24 1.267(6) . ?
N5 C103 1.448(6) . ?
N6 C17 1.282(6) . ?
N6 C109 1.472(7) . ?
N7 C25 1.334(6) . ?
N7 C27 1.343(6) . ?
N8 C26 1.334(6) . ?
N8 C25 1.338(6) . ?
N9 C26 1.325(6) . ?
N9 C27 1.352(6) . ?
N10 C34 1.270(6) . ?
N10 C115 1.481(6) . ?
N11 C41 1.275(6) . ?
N11 C102 1.452(7) . ?
N12 C48 1.284(6) . ?
N12 C121 1.450(6) . ?
N13 C49 1.309(7) . ?
N13 C51 1.357(6) . ?
N14 C49 1.341(7) . ?
N14 C50 1.364(6) . ?
N15 C51 1.330(7) . ?
N15 C50 1.348(6) . ?
N16 C58 1.280(7) . ?
N16 C120 1.464(6) . ?
N17 C65 1.262(7) . ?
N17 C114 1.461(7) . ?
N18 C72 1.278(6) . ?
N18 C127 1.457(6) . ?
N19 C75 1.338(7) . ?
N19 C73 1.350(7) . ?
N20 C74 1.338(7) . ?
N20 C75 1.349(7) . ?
N21 C73 1.326(7) . ?
N21 C74 1.365(7) . ?
N22 C89 1.278(7) . ?
N22 C126 1.454(7) . ?
N23 C96 1.277(7) . ?
N23 C108 1.466(7) . ?
N24 C82 1.217(7) . ?
N24 C132 1.486(6) . ?
C1 C4 1.462(7) . ?
C2 C11 1.494(7) . ?
C3 C18 1.493(7) . ?
C4 C9 1.388(6) . ?
C4 C5 1.392(7) . ?
C5 C6 1.369(7) . ?
C5 H5 0.9300 . ?
C6 C7 1.372(7) . ?
C6 H6 0.9300 . ?
C7 C8 1.398(7) . ?
C7 C10 1.442(7) . ?
C8 C9 1.341(7) . ?
C8 H8 0.9300 . ?
C9 H9 0.9300 . ?
C10 H10 0.9300 . ?
C11 C16 1.359(7) . ?
C11 C12 1.388(7) . ?
C12 C13 1.375(7) . ?
C12 H12 0.9300 . ?
C13 C14 1.387(7) . ?
C13 H13 0.9300 . ?
C14 C15 1.389(7) . ?
C14 C17 1.492(8) . ?
C15 C16 1.376(8) . ?
C15 H15 0.9300 . ?
C16 H16 0.9300 . ?
C17 H17 0.9300 . ?
C18 C23 1.365(7) . ?
C18 C19 1.403(7) . ?
C19 C20 1.402(7) . ?
C19 H19 0.9300 . ?
C20 C21 1.361(7) . ?
C20 H20 0.9300 . ?
C21 C22 1.393(7) . ?
C21 C24 1.478(6) . ?
C22 C23 1.382(7) . ?
C22 H22 0.9300 . ?
C23 H23 0.9300 . ?
C24 H24 0.9300 . ?
C25 C28 1.487(7) . ?
C26 C35 1.490(7) . ?
C27 C42 1.464(7) . ?
C28 C29 1.397(7) . ?
C28 C33 1.401(7) . ?
C29 C30 1.382(7) . ?
C29 H29 0.9300 . ?
C30 C31 1.413(7) . ?
C30 H30 0.9300 . ?
C31 C32 1.368(8) . ?
C31 C34 1.473(7) . ?
C32 C33 1.387(7) . ?
C32 H32 0.9300 . ?
C33 H33 0.9300 . ?
C34 H34 0.9300 . ?
C35 C40 1.393(7) . ?
C35 C36 1.396(7) . ?
C36 C37 1.351(7) . ?
C36 H36 0.9300 . ?
C37 C38 1.414(7) . ?
C37 H37 0.9300 . ?
C38 C39 1.380(8) . ?
C38 C41 1.445(7) . ?
C39 C40 1.366(8) . ?
C39 H39 0.9300 . ?
C40 H40 0.9300 . ?
C41 H41 0.9300 . ?
C42 C47 1.361(7) . ?
C42 C43 1.394(7) . ?
C43 C44 1.383(7) . ?
C43 H43 0.9300 . ?
C44 C45 1.404(7) . ?
C44 H44 0.9300 . ?
C45 C46 1.381(7) . ?
C45 C48 1.439(7) . ?
C46 C47 1.401(8) . ?
C46 H46 0.9300 . ?
C47 H47 0.9300 . ?
C48 H48 0.9300 . ?
C49 C52 1.486(7) . ?
C50 C59 1.450(8) . ?
C51 C66 1.475(7) . ?
C52 C57 1.379(9) . ?
C52 C53 1.422(8) . ?
C53 C54 1.391(7) . ?
C53 H53 0.9300 . ?
C54 C55 1.360(8) . ?
C54 H54 0.9300 . ?
C55 C56 1.408(9) . ?
C55 C58 1.505(8) . ?
C56 C57 1.357(8) . ?
C56 H56 0.9300 . ?
C57 H57 0.9300 . ?
C58 H58 0.9300 . ?
C59 C64 1.398(7) . ?
C59 C60 1.403(7) . ?
C60 C61 1.345(8) . ?
C60 H60 0.9300 . ?
C61 C62 1.393(8) . ?
C61 H61 0.9300 . ?
C62 C63 1.409(7) . ?
C62 C65 1.446(8) . ?
C63 C64 1.356(8) . ?
C63 H63 0.9300 . ?
C64 H64 0.9300 . ?
C65 H65 0.9300 . ?
C66 C71 1.389(7) . ?
C66 C67 1.421(8) . ?
C67 C68 1.385(7) . ?
C67 H67 0.9300 . ?
C68 C69 1.417(7) . ?
C68 H68 0.9300 . ?
C69 C70 1.390(7) . ?
C69 C72 1.449(7) . ?
C70 C71 1.405(7) . ?
C70 H70 0.9300 . ?
C71 H71 0.9300 . ?
C72 H72 0.9300 . ?
C73 C76 1.475(8) . ?
C74 C90 1.485(8) . ?
C75 C83 1.451(8) . ?
C76 C77 1.401(8) . ?
C76 C81 1.401(10) . ?
C77 C78 1.398(8) . ?
C77 H77 0.9300 . ?
C78 C79 1.369(8) . ?
C78 H78 0.9300 . ?
C79 C80 1.431(10) . ?
C79 C82 1.519(9) . ?
C80 C81 1.344(10) . ?
C80 H80 0.9300 . ?
C81 H81 0.9300 . ?
C82 H82 0.9300 . ?
C83 C88 1.381(8) . ?
C83 C84 1.441(8) . ?
C84 C85 1.409(8) . ?
C84 H84 0.9300 . ?
C85 C86 1.371(8) . ?
C85 H85 0.9300 . ?
C86 C87 1.434(8) . ?
C86 C89 1.439(8) . ?
C87 C88 1.394(7) . ?
C87 H87 0.9300 . ?
C88 H88 0.9300 . ?
C89 H89 0.9300 . ?
C90 C95 1.357(7) . ?
C90 C91 1.391(7) . ?
C91 C92 1.374(7) . ?
C91 H91 0.9300 . ?
C92 C93 1.394(7) . ?
C92 H92 0.9300 . ?
C93 C94 1.401(7) . ?
C93 C96 1.505(8) . ?
C94 C95 1.381(7) . ?
C94 H94 0.9300 . ?
C95 H95 0.9300 . ?
C96 H96 0.9300 . ?
C97 C98 1.520(7) . ?
C97 C102 1.532(8) . ?
C97 H97 0.9800 . ?
C98 C99 1.540(8) . ?
C98 H98A 0.9700 . ?
C98 H98B 0.9700 . ?
C99 C100 1.477(9) . ?
C99 H99A 0.9700 . ?
C99 H99B 0.9700 . ?
C100 C101 1.551(8) . ?
C100 H10A 0.9700 . ?
C100 H10B 0.9700 . ?
C101 C102 1.515(7) . ?
C101 H10C 0.9700 . ?
C101 H10D 0.9700 . ?
C102 H102 0.9800 . ?
C103 C108 1.516(7) . ?
C103 C104 1.535(8) . ?
C103 H103 0.9800 . ?
C104 C105 1.511(8) . ?
C104 H10E 0.9700 . ?
C104 H10F 0.9700 . ?
C105 C106 1.475(8) . ?
C105 H10G 0.9700 . ?
C105 H10H 0.9700 . ?
C106 C107 1.528(10) . ?
C106 H10I 0.9700 . ?
C106 H10J 0.9700 . ?
C107 C108 1.511(8) . ?
C107 H10K 0.9700 . ?
C107 H10L 0.9700 . ?
C108 H108 0.9800 . ?
C109 C110 1.495(8) . ?
C109 C114 1.538(7) . ?
C109 H109 0.9800 . ?
C110 C111 1.508(8) . ?
C110 H11A 0.9700 . ?
C110 H11B 0.9700 . ?
C111 C112 1.474(9) . ?
C111 H11C 0.9700 . ?
C111 H11D 0.9700 . ?
C112 C113 1.543(9) . ?
C112 H11E 0.9700 . ?
C112 H11F 0.9700 . ?
C113 C114 1.535(8) . ?
C113 H11G 0.9700 . ?
C113 H11H 0.9700 . ?
C114 H114 0.9800 . ?
C115 C120 1.513(7) . ?
C115 C116 1.538(7) . ?
C115 H115 0.9800 . ?
C116 C117 1.485(8) . ?
C116 H11I 0.9700 . ?
C116 H11J 0.9700 . ?
C117 C118 1.549(10) . ?
C117 H11K 0.9700 . ?
C117 H11L 0.9700 . ?
C118 C119 1.514(8) . ?
C118 H11M 0.9700 . ?
C118 H11N 0.9700 . ?
C119 C120 1.548(7) . ?
C119 H11O 0.9700 . ?
C119 H11P 0.9700 . ?
C120 H120 0.9800 . ?
C121 C122 1.506(7) . ?
C121 C126 1.543(7) . ?
C121 H121 0.9800 . ?
C122 C123 1.496(8) . ?
C122 H12A 0.9700 . ?
C122 H12B 0.9700 . ?
C123 C124 1.510(9) . ?
C123 H12C 0.9700 . ?
C123 H12D 0.9700 . ?
C124 C125 1.518(9) . ?
C124 H12E 0.9700 . ?
C124 H12F 0.9700 . ?
C125 C126 1.508(8) . ?
C125 H12G 0.9700 . ?
C125 H12H 0.9700 . ?
C126 H126 0.9800 . ?
C127 C128 1.507(7) . ?
C127 C132 1.525(7) . ?
C127 H127 0.9800 . ?
C128 C129 1.520(8) . ?
C128 H12I 0.9700 . ?
C128 H12J 0.9700 . ?
C129 C130 1.577(8) . ?
C129 H12K 0.9700 . ?
C129 H12L 0.9700 . ?
C130 C131 1.466(8) . ?
C130 H13A 0.9700 . ?
C130 H13B 0.9700 . ?
C131 C132 1.516(7) . ?
C131 H13C 0.9700 . ?
C131 H13D 0.9700 . ?
C132 H132 0.9800 . ?

loop_
_geom_angle_atom_site_label_1
_geom_angle_atom_site_label_2
_geom_angle_atom_site_label_3
_geom_angle
_geom_angle_site_symmetry_1
_geom_angle_site_symmetry_3
_geom_angle_publ_flag
C3 N1 C1 113.0(4) . . ?
C3 N2 C2 114.0(4) . . ?
C1 N3 C2 116.4(4) . . ?
C10 N4 C97 118.2(4) . . ?
C24 N5 C103 118.5(4) . . ?
C17 N6 C109 118.3(5) . . ?
C25 N7 C27 115.5(4) . . ?
C26 N8 C25 114.2(4) . . ?
C26 N9 C27 116.0(4) . . ?
C34 N10 C115 115.9(5) . . ?
C41 N11 C102 118.7(4) . . ?
C48 N12 C121 119.5(4) . . ?
C49 N13 C51 115.6(5) . . ?
C49 N14 C50 115.2(5) . . ?
C51 N15 C50 116.3(4) . . ?
C58 N16 C120 115.9(5) . . ?
C65 N17 C114 118.9(5) . . ?
C72 N18 C127 117.7(4) . . ?
C75 N19 C73 115.1(5) . . ?
C74 N20 C75 115.6(5) . . ?
C73 N21 C74 114.3(5) . . ?
C89 N22 C126 117.5(5) . . ?
C96 N23 C108 114.7(5) . . ?
C82 N24 C132 115.4(5) . . ?
N3 C1 N1 125.2(5) . . ?
N3 C1 C4 120.0(4) . . ?
N1 C1 C4 114.8(5) . . ?
N2 C2 N3 124.3(5) . . ?
N2 C2 C11 116.8(5) . . ?
N3 C2 C11 118.6(4) . . ?
N2 C3 N1 127.0(4) . . ?
N2 C3 C18 117.7(5) . . ?
N1 C3 C18 115.3(5) . . ?
C9 C4 C5 117.4(5) . . ?
C9 C4 C1 121.2(5) . . ?
C5 C4 C1 121.3(4) . . ?
C6 C5 C4 121.2(4) . . ?
C6 C5 H5 119.4 . . ?
C4 C5 H5 119.4 . . ?
C5 C6 C7 121.2(5) . . ?
C5 C6 H6 119.4 . . ?
C7 C6 H6 119.4 . . ?
C6 C7 C8 117.1(5) . . ?
C6 C7 C10 122.6(5) . . ?
C8 C7 C10 120.2(4) . . ?
C9 C8 C7 122.3(5) . . ?
C9 C8 H8 118.8 . . ?
C7 C8 H8 118.8 . . ?
C8 C9 C4 120.8(5) . . ?
C8 C9 H9 119.6 . . ?
C4 C9 H9 119.6 . . ?
N4 C10 C7 122.8(5) . . ?
N4 C10 H10 118.6 . . ?
C7 C10 H10 118.6 . . ?
C16 C11 C12 119.2(5) . . ?
C16 C11 C2 119.8(5) . . ?
C12 C11 C2 120.9(5) . . ?
C13 C12 C11 119.0(5) . . ?
C13 C12 H12 120.5 . . ?
C11 C12 H12 120.5 . . ?
C12 C13 C14 121.6(5) . . ?
C12 C13 H13 119.2 . . ?
C14 C13 H13 119.2 . . ?
C13 C14 C15 118.8(5) . . ?
C13 C14 C17 123.3(5) . . ?
C15 C14 C17 117.9(5) . . ?
C16 C15 C14 118.8(5) . . ?
C16 C15 H15 120.6 . . ?
C14 C15 H15 120.6 . . ?
C11 C16 C15 122.5(5) . . ?
C11 C16 H16 118.7 . . ?
C15 C16 H16 118.7 . . ?
N6 C17 C14 120.2(5) . . ?
N6 C17 H17 119.9 . . ?
C14 C17 H17 119.9 . . ?
C23 C18 C19 119.6(4) . . ?
C23 C18 C3 121.8(5) . . ?
C19 C18 C3 118.5(5) . . ?
C20 C19 C18 118.9(5) . . ?
C20 C19 H19 120.5 . . ?
C18 C19 H19 120.5 . . ?
C21 C20 C19 120.7(5) . . ?
C21 C20 H20 119.6 . . ?
C19 C20 H20 119.6 . . ?
C20 C21 C22 119.8(4) . . ?
C20 C21 C24 120.8(5) . . ?
C22 C21 C24 119.4(5) . . ?
C23 C22 C21 119.8(5) . . ?
C23 C22 H22 120.1 . . ?
C21 C22 H22 120.1 . . ?
C18 C23 C22 121.0(5) . . ?
C18 C23 H23 119.5 . . ?
C22 C23 H23 119.5 . . ?
N5 C24 C21 119.6(5) . . ?
N5 C24 H24 120.2 . . ?
C21 C24 H24 120.2 . . ?
N7 C25 N8 125.6(4) . . ?
N7 C25 C28 117.6(5) . . ?
N8 C25 C28 116.8(5) . . ?
N9 C26 N8 125.5(5) . . ?
N9 C26 C35 116.8(4) . . ?
N8 C26 C35 117.7(5) . . ?
N7 C27 N9 123.1(5) . . ?
N7 C27 C42 119.3(5) . . ?
N9 C27 C42 117.6(4) . . ?
C29 C28 C33 119.3(4) . . ?
C29 C28 C25 121.2(5) . . ?
C33 C28 C25 119.3(5) . . ?
C30 C29 C28 121.4(5) . . ?
C30 C29 H29 119.3 . . ?
C28 C29 H29 119.3 . . ?
C29 C30 C31 118.5(5) . . ?
C29 C30 H30 120.8 . . ?
C31 C30 H30 120.8 . . ?
C32 C31 C30 120.2(4) . . ?
C32 C31 C34 116.4(5) . . ?
C30 C31 C34 123.4(5) . . ?
C31 C32 C33 121.4(5) . . ?
C31 C32 H32 119.3 . . ?
C33 C32 H32 119.3 . . ?
C32 C33 C28 119.2(5) . . ?
C32 C33 H33 120.4 . . ?
C28 C33 H33 120.4 . . ?
N10 C34 C31 124.3(5) . . ?
N10 C34 H34 117.9 . . ?
C31 C34 H34 117.9 . . ?
C40 C35 C36 119.2(5) . . ?
C40 C35 C26 119.0(5) . . ?
C36 C35 C26 121.7(4) . . ?
C37 C36 C35 121.2(5) . . ?
C37 C36 H36 119.4 . . ?
C35 C36 H36 119.4 . . ?
C36 C37 C38 120.2(5) . . ?
C36 C37 H37 119.9 . . ?
C38 C37 H37 119.9 . . ?
C39 C38 C37 117.6(5) . . ?
C39 C38 C41 120.8(5) . . ?
C37 C38 C41 121.6(5) . . ?
C40 C39 C38 122.5(5) . . ?
C40 C39 H39 118.7 . . ?
C38 C39 H39 118.7 . . ?
C39 C40 C35 119.0(5) . . ?
C39 C40 H40 120.5 . . ?
C35 C40 H40 120.5 . . ?
N11 C41 C38 124.3(5) . . ?
N11 C41 H41 117.8 . . ?
C38 C41 H41 117.8 . . ?
C47 C42 C43 119.7(5) . . ?
C47 C42 C27 121.2(5) . . ?
C43 C42 C27 119.0(5) . . ?
C44 C43 C42 119.5(5) . . ?
C44 C43 H43 120.2 . . ?
C42 C43 H43 120.2 . . ?
C43 C44 C45 121.4(4) . . ?
C43 C44 H44 119.3 . . ?
C45 C44 H44 119.3 . . ?
C46 C45 C44 117.9(5) . . ?
C46 C45 C48 121.1(5) . . ?
C44 C45 C48 120.7(4) . . ?
C45 C46 C47 120.6(5) . . ?
C45 C46 H46 119.7 . . ?
C47 C46 H46 119.7 . . ?
C42 C47 C46 120.8(5) . . ?
C42 C47 H47 119.6 . . ?
C46 C47 H47 119.6 . . ?
N12 C48 C45 120.4(5) . . ?
N12 C48 H48 119.8 . . ?
C45 C48 H48 119.8 . . ?
N13 C49 N14 125.6(5) . . ?
N13 C49 C52 118.1(6) . . ?
N14 C49 C52 116.3(5) . . ?
N15 C50 N14 123.0(5) . . ?
N15 C50 C59 118.3(5) . . ?
N14 C50 C59 118.8(5) . . ?
N15 C51 N13 124.2(5) . . ?
N15 C51 C66 116.5(4) . . ?
N13 C51 C66 119.3(5) . . ?
C57 C52 C53 120.7(5) . . ?
C57 C52 C49 120.5(5) . . ?
C53 C52 C49 118.8(6) . . ?
C54 C53 C52 116.5(6) . . ?
C54 C53 H53 121.7 . . ?
C52 C53 H53 121.7 . . ?
C55 C54 C53 122.9(5) . . ?
C55 C54 H54 118.6 . . ?
C53 C54 H54 118.6 . . ?
C54 C55 C56 118.8(5) . . ?
C54 C55 C58 122.6(6) . . ?
C56 C55 C58 118.6(7) . . ?
C57 C56 C55 120.4(7) . . ?
C57 C56 H56 119.8 . . ?
C55 C56 H56 119.8 . . ?
C56 C57 C52 120.4(6) . . ?
C56 C57 H57 119.8 . . ?
C52 C57 H57 119.8 . . ?
N16 C58 C55 119.0(6) . . ?
N16 C58 H58 120.5 . . ?
C55 C58 H58 120.5 . . ?
C64 C59 C60 119.8(5) . . ?
C64 C59 C50 121.3(5) . . ?
C60 C59 C50 118.8(5) . . ?
C61 C60 C59 119.1(5) . . ?
C61 C60 H60 120.4 . . ?
C59 C60 H60 120.4 . . ?
C60 C61 C62 123.2(5) . . ?
C60 C61 H61 118.4 . . ?
C62 C61 H61 118.4 . . ?
C61 C62 C63 116.4(6) . . ?
C61 C62 C65 122.0(5) . . ?
C63 C62 C65 121.7(5) . . ?
C64 C63 C62 122.2(5) . . ?
C64 C63 H63 118.9 . . ?
C62 C63 H63 118.9 . . ?
C63 C64 C59 119.2(5) . . ?
C63 C64 H64 120.4 . . ?
C59 C64 H64 120.4 . . ?
N17 C65 C62 121.9(6) . . ?
N17 C65 H65 119.0 . . ?
C62 C65 H65 119.0 . . ?
C71 C66 C67 119.9(5) . . ?
C71 C66 C51 119.6(5) . . ?
C67 C66 C51 120.3(5) . . ?
C68 C67 C66 119.9(5) . . ?
C68 C67 H67 120.0 . . ?
C66 C67 H67 120.0 . . ?
C67 C68 C69 120.2(5) . . ?
C67 C68 H68 119.9 . . ?
C69 C68 H68 119.9 . . ?
C70 C69 C68 119.5(5) . . ?
C70 C69 C72 118.9(5) . . ?
C68 C69 C72 121.4(5) . . ?
C69 C70 C71 120.6(5) . . ?
C69 C70 H70 119.7 . . ?
C71 C70 H70 119.7 . . ?
C66 C71 C70 119.8(5) . . ?
C66 C71 H71 120.1 . . ?
C70 C71 H71 120.1 . . ?
N18 C72 C69 123.4(5) . . ?
N18 C72 H72 118.3 . . ?
C69 C72 H72 118.3 . . ?
N21 C73 N19 125.9(5) . . ?
N21 C73 C76 119.4(6) . . ?
N19 C73 C76 114.3(6) . . ?
N20 C74 N21 124.6(5) . . ?
N20 C74 C90 117.1(5) . . ?
N21 C74 C90 118.3(5) . . ?
N19 C75 N20 124.4(5) . . ?
N19 C75 C83 116.9(5) . . ?
N20 C75 C83 118.7(5) . . ?
C77 C76 C81 118.2(6) . . ?
C77 C76 C73 122.0(6) . . ?
C81 C76 C73 119.6(6) . . ?
C78 C77 C76 120.6(6) . . ?
C78 C77 H77 119.7 . . ?
C76 C77 H77 119.7 . . ?
C79 C78 C77 119.1(5) . . ?
C79 C78 H78 120.5 . . ?
C77 C78 H78 120.5 . . ?
C78 C79 C80 120.4(6) . . ?
C78 C79 C82 122.7(6) . . ?
C80 C79 C82 116.2(6) . . ?
C81 C80 C79 118.2(8) . . ?
C81 C80 H80 120.9 . . ?
C79 C80 H80 120.9 . . ?
C80 C81 C76 121.8(7) . . ?
C80 C81 H81 119.1 . . ?
C76 C81 H81 119.1 . . ?
N24 C82 C79 120.5(7) . . ?
N24 C82 H82 119.7 . . ?
C79 C82 H82 119.7 . . ?
C88 C83 C84 120.7(5) . . ?
C88 C83 C75 122.0(6) . . ?
C84 C83 C75 117.3(6) . . ?
C85 C84 C83 118.0(6) . . ?
C85 C84 H84 121.0 . . ?
C83 C84 H84 121.0 . . ?
C86 C85 C84 121.4(6) . . ?
C86 C85 H85 119.3 . . ?
C84 C85 H85 119.3 . . ?
C85 C86 C87 119.8(5) . . ?
C85 C86 C89 121.0(6) . . ?
C87 C86 C89 119.2(6) . . ?
C88 C87 C86 119.7(5) . . ?
C88 C87 H87 120.1 . . ?
C86 C87 H87 120.1 . . ?
C83 C88 C87 120.3(6) . . ?
C83 C88 H88 119.8 . . ?
C87 C88 H88 119.8 . . ?
N22 C89 C86 122.7(6) . . ?
N22 C89 H89 118.7 . . ?
C86 C89 H89 118.7 . . ?
C95 C90 C91 119.6(5) . . ?
C95 C90 C74 121.4(5) . . ?
C91 C90 C74 119.0(5) . . ?
C92 C91 C90 121.0(5) . . ?
C92 C91 H91 119.5 . . ?
C90 C91 H91 119.5 . . ?
C91 C92 C93 119.3(5) . . ?
C91 C92 H92 120.3 . . ?
C93 C92 H92 120.3 . . ?
C92 C93 C94 119.4(5) . . ?
C92 C93 C96 121.8(5) . . ?
C94 C93 C96 118.8(5) . . ?
C95 C94 C93 119.7(5) . . ?
C95 C94 H94 120.2 . . ?
C93 C94 H94 120.2 . . ?
C90 C95 C94 120.9(5) . . ?
C90 C95 H95 119.5 . . ?
C94 C95 H95 119.5 . . ?
N23 C96 C93 120.7(6) . . ?
N23 C96 H96 119.7 . . ?
C93 C96 H96 119.7 . . ?
N4 C97 C98 110.3(5) . . ?
N4 C97 C102 107.7(4) . . ?
C98 C97 C102 111.9(5) . . ?
N4 C97 H97 109.0 . . ?
C98 C97 H97 109.0 . . ?
C102 C97 H97 109.0 . . ?
C97 C98 C99 111.5(5) . . ?
C97 C98 H98A 109.3 . . ?
C99 C98 H98A 109.3 . . ?
C97 C98 H98B 109.3 . . ?
C99 C98 H98B 109.3 . . ?
H98A C98 H98B 108.0 . . ?
C100 C99 C98 112.1(5) . . ?
C100 C99 H99A 109.2 . . ?
C98 C99 H99A 109.2 . . ?
C100 C99 H99B 109.2 . . ?
C98 C99 H99B 109.2 . . ?
H99A C99 H99B 107.9 . . ?
C99 C100 C101 112.1(5) . . ?
C99 C100 H10A 109.2 . . ?
C101 C100 H10A 109.2 . . ?
C99 C100 H10B 109.2 . . ?
C101 C100 H10B 109.2 . . ?
H10A C100 H10B 107.9 . . ?
C102 C101 C100 111.2(5) . . ?
C102 C101 H10C 109.4 . . ?
C100 C101 H10C 109.4 . . ?
C102 C101 H10D 109.4 . . ?
C100 C101 H10D 109.4 . . ?
H10C C101 H10D 108.0 . . ?
N11 C102 C101 109.3(4) . . ?
N11 C102 C97 108.8(4) . . ?
C101 C102 C97 112.0(5) . . ?
N11 C102 H102 108.9 . . ?
C101 C102 H102 108.9 . . ?
C97 C102 H102 108.9 . . ?
N5 C103 C108 108.4(4) . . ?
N5 C103 C104 109.9(4) . . ?
C108 C103 C104 110.3(4) . . ?
N5 C103 H103 109.4 . . ?
C108 C103 H103 109.4 . . ?
C104 C103 H103 109.4 . . ?
C105 C104 C103 110.0(5) . . ?
C105 C104 H10E 109.7 . . ?
C103 C104 H10E 109.7 . . ?
C105 C104 H10F 109.7 . . ?
C103 C104 H10F 109.7 . . ?
H10E C104 H10F 108.2 . . ?
C106 C105 C104 111.5(5) . . ?
C106 C105 H10G 109.3 . . ?
C104 C105 H10G 109.3 . . ?
C106 C105 H10H 109.3 . . ?
C104 C105 H10H 109.3 . . ?
H10G C105 H10H 108.0 . . ?
C105 C106 C107 111.2(5) . . ?
C105 C106 H10I 109.4 . . ?
C107 C106 H10I 109.4 . . ?
C105 C106 H10J 109.4 . . ?
C107 C106 H10J 109.4 . . ?
H10I C106 H10J 108.0 . . ?
C108 C107 C106 110.7(6) . . ?
C108 C107 H10K 109.5 . . ?
C106 C107 H10K 109.5 . . ?
C108 C107 H10L 109.5 . . ?
C106 C107 H10L 109.5 . . ?
H10K C107 H10L 108.1 . . ?
N23 C108 C107 111.6(5) . . ?
N23 C108 C103 108.9(4) . . ?
C107 C108 C103 109.1(5) . . ?
N23 C108 H108 109.1 . . ?
C107 C108 H108 109.1 . . ?
C103 C108 H108 109.1 . . ?
N6 C109 C110 111.4(5) . . ?
N6 C109 C114 105.6(4) . . ?
C110 C109 C114 112.1(4) . . ?
N6 C109 H109 109.2 . . ?
C110 C109 H109 109.2 . . ?
C114 C109 H109 109.2 . . ?
C109 C110 C111 111.5(5) . . ?
C109 C110 H11A 109.3 . . ?
C111 C110 H11A 109.3 . . ?
C109 C110 H11B 109.3 . . ?
C111 C110 H11B 109.3 . . ?
H11A C110 H11B 108.0 . . ?
C112 C111 C110 114.3(5) . . ?
C112 C111 H11C 108.7 . . ?
C110 C111 H11C 108.7 . . ?
C112 C111 H11D 108.7 . . ?
C110 C111 H11D 108.7 . . ?
H11C C111 H11D 107.6 . . ?
C111 C112 C113 109.6(5) . . ?
C111 C112 H11E 109.8 . . ?
C113 C112 H11E 109.8 . . ?
C111 C112 H11F 109.8 . . ?
C113 C112 H11F 109.8 . . ?
H11E C112 H11F 108.2 . . ?
C114 C113 C112 112.0(6) . . ?
C114 C113 H11G 109.2 . . ?
C112 C113 H11G 109.2 . . ?
C114 C113 H11H 109.2 . . ?
C112 C113 H11H 109.2 . . ?
H11G C113 H11H 107.9 . . ?
N17 C114 C113 109.3(5) . . ?
N17 C114 C109 109.1(4) . . ?
C113 C114 C109 109.5(5) . . ?
N17 C114 H114 109.6 . . ?
C113 C114 H114 109.6 . . ?
C109 C114 H114 109.6 . . ?
N10 C115 C120 108.3(4) . . ?
N10 C115 C116 109.4(4) . . ?
C120 C115 C116 111.7(5) . . ?
N10 C115 H115 109.1 . . ?
C120 C115 H115 109.1 . . ?
C116 C115 H115 109.1 . . ?
C117 C116 C115 110.5(5) . . ?
C117 C116 H11I 109.5 . . ?
C115 C116 H11I 109.5 . . ?
C117 C116 H11J 109.5 . . ?
C115 C116 H11J 109.5 . . ?
H11I C116 H11J 108.1 . . ?
C116 C117 C118 110.5(6) . . ?
C116 C117 H11K 109.6 . . ?
C118 C117 H11K 109.6 . . ?
C116 C117 H11L 109.6 . . ?
C118 C117 H11L 109.6 . . ?
H11K C117 H11L 108.1 . . ?
C119 C118 C117 110.2(5) . . ?
C119 C118 H11M 109.6 . . ?
C117 C118 H11M 109.6 . . ?
C119 C118 H11N 109.6 . . ?
C117 C118 H11N 109.6 . . ?
H11M C118 H11N 108.1 . . ?
C118 C119 C120 109.7(4) . . ?
C118 C119 H11O 109.7 . . ?
C120 C119 H11O 109.7 . . ?
C118 C119 H11P 109.7 . . ?
C120 C119 H11P 109.7 . . ?
H11O C119 H11P 108.2 . . ?
N16 C120 C115 106.5(4) . . ?
N16 C120 C119 108.3(4) . . ?
C115 C120 C119 109.9(4) . . ?
N16 C120 H120 110.7 . . ?
C115 C120 H120 110.7 . . ?
C119 C120 H120 110.7 . . ?
N12 C121 C122 109.3(4) . . ?
N12 C121 C126 106.9(4) . . ?
C122 C121 C126 110.0(4) . . ?
N12 C121 H121 110.2 . . ?
C122 C121 H121 110.2 . . ?
C126 C121 H121 110.2 . . ?
C123 C122 C121 112.2(5) . . ?
C123 C122 H12A 109.2 . . ?
C121 C122 H12A 109.2 . . ?
C123 C122 H12B 109.2 . . ?
C121 C122 H12B 109.2 . . ?
H12A C122 H12B 107.9 . . ?
C122 C123 C124 110.0(6) . . ?
C122 C123 H12C 109.7 . . ?
C124 C123 H12C 109.7 . . ?
C122 C123 H12D 109.7 . . ?
C124 C123 H12D 109.7 . . ?
H12C C123 H12D 108.2 . . ?
C123 C124 C125 109.6(5) . . ?
C123 C124 H12E 109.8 . . ?
C125 C124 H12E 109.8 . . ?
C123 C124 H12F 109.8 . . ?
C125 C124 H12F 109.8 . . ?
H12E C124 H12F 108.2 . . ?
C126 C125 C124 110.2(5) . . ?
C126 C125 H12G 109.6 . . ?
C124 C125 H12G 109.6 . . ?
C126 C125 H12H 109.6 . . ?
C124 C125 H12H 109.6 . . ?
H12G C125 H12H 108.1 . . ?
N22 C126 C125 110.8(5) . . ?
N22 C126 C121 107.7(4) . . ?
C125 C126 C121 110.9(5) . . ?
N22 C126 H126 109.2 . . ?
C125 C126 H126 109.2 . . ?
C121 C126 H126 109.2 . . ?
N18 C127 C128 109.6(4) . . ?
N18 C127 C132 109.8(4) . . ?
C128 C127 C132 110.6(4) . . ?
N18 C127 H127 108.9 . . ?
C128 C127 H127 108.9 . . ?
C132 C127 H127 108.9 . . ?
C127 C128 C129 112.1(5) . . ?
C127 C128 H12I 109.2 . . ?
C129 C128 H12I 109.2 . . ?
C127 C128 H12J 109.2 . . ?
C129 C128 H12J 109.2 . . ?
H12I C128 H12J 107.9 . . ?
C128 C129 C130 108.7(4) . . ?
C128 C129 H12K 110.0 . . ?
C130 C129 H12K 110.0 . . ?
C128 C129 H12L 110.0 . . ?
C130 C129 H12L 110.0 . . ?
H12K C129 H12L 108.3 . . ?
C131 C130 C129 110.5(5) . . ?
C131 C130 H13A 109.5 . . ?
C129 C130 H13A 109.5 . . ?
C131 C130 H13B 109.5 . . ?
C129 C130 H13B 109.5 . . ?
H13A C130 H13B 108.1 . . ?
C130 C131 C132 112.8(5) . . ?
C130 C131 H13C 109.0 . . ?
C132 C131 H13C 109.0 . . ?
C130 C131 H13D 109.0 . . ?
C132 C131 H13D 109.0 . . ?
H13C C131 H13D 107.8 . . ?
N24 C132 C131 110.2(4) . . ?
N24 C132 C127 108.1(4) . . ?
C131 C132 C127 111.5(4) . . ?
N24 C132 H132 109.0 . . ?
C131 C132 H132 109.0 . . ?
C127 C132 H132 109.0 . . ?

loop_
_geom_torsion_atom_site_label_1
_geom_torsion_atom_site_label_2
_geom_torsion_atom_site_label_3
_geom_torsion_atom_site_label_4
_geom_torsion
_geom_torsion_site_symmetry_1
_geom_torsion_site_symmetry_2
_geom_torsion_site_symmetry_3
_geom_torsion_site_symmetry_4
_geom_torsion_publ_flag
C2 N3 C1 N1 3.3(7) . . . . ?
C2 N3 C1 C4 -175.2(5) . . . . ?
C3 N1 C1 N3 -4.5(7) . . . . ?
C3 N1 C1 C4 174.1(4) . . . . ?
C3 N2 C2 N3 -2.5(7) . . . . ?
C3 N2 C2 C11 171.3(5) . . . . ?
C1 N3 C2 N2 0.5(7) . . . . ?
C1 N3 C2 C11 -173.3(5) . . . . ?
C2 N2 C3 N1 1.1(8) . . . . ?
C2 N2 C3 C18 -175.5(5) . . . . ?
C1 N1 C3 N2 2.1(8) . . . . ?
C1 N1 C3 C18 178.7(4) . . . . ?
N3 C1 C4 C9 20.9(8) . . . . ?
N1 C1 C4 C9 -157.8(5) . . . . ?
N3 C1 C4 C5 -163.3(5) . . . . ?
N1 C1 C4 C5 18.1(7) . . . . ?
C9 C4 C5 C6 0.9(8) . . . . ?
C1 C4 C5 C6 -175.1(5) . . . . ?
C4 C5 C6 C7 0.3(9) . . . . ?
C5 C6 C7 C8 -0.7(9) . . . . ?
C5 C6 C7 C10 176.4(5) . . . . ?
C6 C7 C8 C9 -0.1(9) . . . . ?
C10 C7 C8 C9 -177.2(6) . . . . ?
C7 C8 C9 C4 1.3(10) . . . . ?
C5 C4 C9 C8 -1.7(9) . . . . ?
C1 C4 C9 C8 174.4(6) . . . . ?
C97 N4 C10 C7 -174.7(5) . . . . ?
C6 C7 C10 N4 6.3(9) . . . . ?
C8 C7 C10 N4 -176.7(6) . . . . ?
N2 C2 C11 C16 9.6(7) . . . . ?
N3 C2 C11 C16 -176.1(5) . . . . ?
N2 C2 C11 C12 -170.9(5) . . . . ?
N3 C2 C11 C12 3.3(8) . . . . ?
C16 C11 C12 C13 -2.3(9) . . . . ?
C2 C11 C12 C13 178.3(5) . . . . ?
C11 C12 C13 C14 1.9(9) . . . . ?
C12 C13 C14 C15 -0.7(9) . . . . ?
C12 C13 C14 C17 -178.4(6) . . . . ?
C13 C14 C15 C16 -0.1(9) . . . . ?
C17 C14 C15 C16 177.7(6) . . . . ?
C12 C11 C16 C15 1.6(9) . . . . ?
C2 C11 C16 C15 -179.0(5) . . . . ?
C14 C15 C16 C11 -0.3(9) . . . . ?
C109 N6 C17 C14 179.6(5) . . . . ?
C13 C14 C17 N6 15.8(8) . . . . ?
C15 C14 C17 N6 -161.9(5) . . . . ?
N2 C3 C18 C23 156.3(5) . . . . ?
N1 C3 C18 C23 -20.7(8) . . . . ?
N2 C3 C18 C19 -19.2(7) . . . . ?
N1 C3 C18 C19 163.8(5) . . . . ?
C23 C18 C19 C20 -3.7(8) . . . . ?
C3 C18 C19 C20 171.9(5) . . . . ?
C18 C19 C20 C21 1.1(8) . . . . ?
C19 C20 C21 C22 2.8(8) . . . . ?
C19 C20 C21 C24 -174.6(5) . . . . ?
C20 C21 C22 C23 -4.1(8) . . . . ?
C24 C21 C22 C23 173.3(5) . . . . ?
C19 C18 C23 C22 2.4(9) . . . . ?
C3 C18 C23 C22 -173.1(5) . . . . ?
C21 C22 C23 C18 1.5(9) . . . . ?
C103 N5 C24 C21 -179.5(5) . . . . ?
C20 C21 C24 N5 29.5(8) . . . . ?
C22 C21 C24 N5 -147.9(5) . . . . ?
C27 N7 C25 N8 0.6(7) . . . . ?
C27 N7 C25 C28 -177.0(4) . . . . ?
C26 N8 C25 N7 -2.1(7) . . . . ?
C26 N8 C25 C28 175.5(4) . . . . ?
C27 N9 C26 N8 -3.7(7) . . . . ?
C27 N9 C26 C35 175.1(4) . . . . ?
C25 N8 C26 N9 3.8(7) . . . . ?
C25 N8 C26 C35 -175.0(4) . . . . ?
C25 N7 C27 N9 -0.4(7) . . . . ?
C25 N7 C27 C42 177.3(4) . . . . ?
C26 N9 C27 N7 1.8(7) . . . . ?
C26 N9 C27 C42 -175.9(4) . . . . ?
N7 C25 C28 C29 14.1(7) . . . . ?
N8 C25 C28 C29 -163.7(5) . . . . ?
N7 C25 C28 C33 -171.1(5) . . . . ?
N8 C25 C28 C33 11.1(7) . . . . ?
C33 C28 C29 C30 -0.1(8) . . . . ?
C25 C28 C29 C30 174.7(5) . . . . ?
C28 C29 C30 C31 1.7(8) . . . . ?
C29 C30 C31 C32 -2.6(8) . . . . ?
C29 C30 C31 C34 -179.4(5) . . . . ?
C30 C31 C32 C33 1.9(9) . . . . ?
C34 C31 C32 C33 179.0(5) . . . . ?
C31 C32 C33 C28 -0.3(9) . . . . ?
C29 C28 C33 C32 -0.6(8) . . . . ?
C25 C28 C33 C32 -175.5(5) . . . . ?
C115 N10 C34 C31 -178.4(4) . . . . ?
C32 C31 C34 N10 -176.3(5) . . . . ?
C30 C31 C34 N10 0.7(8) . . . . ?
N9 C26 C35 C40 -1.8(6) . . . . ?
N8 C26 C35 C40 177.0(4) . . . . ?
N9 C26 C35 C36 -177.7(4) . . . . ?
N8 C26 C35 C36 1.2(6) . . . . ?
C40 C35 C36 C37 -0.1(7) . . . . ?
C26 C35 C36 C37 175.7(4) . . . . ?
C35 C36 C37 C38 -0.4(7) . . . . ?
C36 C37 C38 C39 3.4(7) . . . . ?
C36 C37 C38 C41 -175.9(5) . . . . ?
C37 C38 C39 C40 -6.1(9) . . . . ?
C41 C38 C39 C40 173.2(6) . . . . ?
C38 C39 C40 C35 5.7(9) . . . . ?
C36 C35 C40 C39 -2.4(8) . . . . ?
C26 C35 C40 C39 -178.3(5) . . . . ?
C102 N11 C41 C38 178.6(5) . . . . ?
C39 C38 C41 N11 -161.1(6) . . . . ?
C37 C38 C41 N11 18.2(8) . . . . ?
N7 C27 C42 C47 6.1(8) . . . . ?
N9 C27 C42 C47 -176.2(5) . . . . ?
N7 C27 C42 C43 -171.0(5) . . . . ?
N9 C27 C42 C43 6.7(7) . . . . ?
C47 C42 C43 C44 -2.6(8) . . . . ?
C27 C42 C43 C44 174.6(5) . . . . ?
C42 C43 C44 C45 0.9(8) . . . . ?
C43 C44 C45 C46 1.5(8) . . . . ?
C43 C44 C45 C48 -172.7(5) . . . . ?
C44 C45 C46 C47 -2.1(8) . . . . ?
C48 C45 C46 C47 172.0(5) . . . . ?
C43 C42 C47 C46 1.9(8) . . . . ?
C27 C42 C47 C46 -175.2(5) . . . . ?
C45 C46 C47 C42 0.5(9) . . . . ?
C121 N12 C48 C45 -179.5(4) . . . . ?
C46 C45 C48 N12 -159.7(5) . . . . ?
C44 C45 C48 N12 14.3(7) . . . . ?
C51 N13 C49 N14 -0.4(9) . . . . ?
C51 N13 C49 C52 -179.5(5) . . . . ?
C50 N14 C49 N13 2.5(8) . . . . ?
C50 N14 C49 C52 -178.4(5) . . . . ?
C51 N15 C50 N14 2.6(7) . . . . ?
C51 N15 C50 C59 -177.5(5) . . . . ?
C49 N14 C50 N15 -3.6(7) . . . . ?
C49 N14 C50 C59 176.5(5) . . . . ?
C50 N15 C51 N13 -0.3(7) . . . . ?
C50 N15 C51 C66 178.2(4) . . . . ?
C49 N13 C51 N15 -0.8(8) . . . . ?
C49 N13 C51 C66 -179.2(5) . . . . ?
N13 C49 C52 C57 15.2(9) . . . . ?
N14 C49 C52 C57 -163.9(6) . . . . ?
N13 C49 C52 C53 -164.0(5) . . . . ?
N14 C49 C52 C53 16.9(8) . . . . ?
C57 C52 C53 C54 5.6(9) . . . . ?
C49 C52 C53 C54 -175.2(5) . . . . ?
C52 C53 C54 C55 -1.1(8) . . . . ?
C53 C54 C55 C56 -3.4(10) . . . . ?
C53 C54 C55 C58 173.7(5) . . . . ?
C54 C55 C56 C57 3.4(12) . . . . ?
C58 C55 C56 C57 -173.8(7) . . . . ?
C55 C56 C57 C52 1.0(13) . . . . ?
C53 C52 C57 C56 -5.7(11) . . . . ?
C49 C52 C57 C56 175.2(7) . . . . ?
C120 N16 C58 C55 -171.4(5) . . . . ?
C54 C55 C58 N16 0.1(9) . . . . ?
C56 C55 C58 N16 177.2(6) . . . . ?
N15 C50 C59 C64 -174.3(5) . . . . ?
N14 C50 C59 C64 5.6(8) . . . . ?
N15 C50 C59 C60 10.1(8) . . . . ?
N14 C50 C59 C60 -169.9(5) . . . . ?
C64 C59 C60 C61 0.2(9) . . . . ?
C50 C59 C60 C61 175.8(6) . . . . ?
C59 C60 C61 C62 -3.0(10) . . . . ?
C60 C61 C62 C63 4.2(9) . . . . ?
C60 C61 C62 C65 -175.9(6) . . . . ?
C61 C62 C63 C64 -2.8(8) . . . . ?
C65 C62 C63 C64 177.4(6) . . . . ?
C62 C63 C64 C59 0.2(8) . . . . ?
C60 C59 C64 C63 1.2(8) . . . . ?
C50 C59 C64 C63 -174.3(5) . . . . ?
C114 N17 C65 C62 -177.4(5) . . . . ?
C61 C62 C65 N17 20.2(9) . . . . ?
C63 C62 C65 N17 -160.0(5) . . . . ?
N15 C51 C66 C71 -1.3(7) . . . . ?
N13 C51 C66 C71 177.3(5) . . . . ?
N15 C51 C66 C67 -176.2(5) . . . . ?
N13 C51 C66 C67 2.3(8) . . . . ?
C71 C66 C67 C68 -1.1(8) . . . . ?
C51 C66 C67 C68 173.8(5) . . . . ?
C66 C67 C68 C69 -0.4(8) . . . . ?
C67 C68 C69 C70 2.8(8) . . . . ?
C67 C68 C69 C72 -171.8(5) . . . . ?
C68 C69 C70 C71 -3.8(8) . . . . ?
C72 C69 C70 C71 171.0(5) . . . . ?
C67 C66 C71 C70 0.2(8) . . . . ?
C51 C66 C71 C70 -174.8(5) . . . . ?
C69 C70 C71 C66 2.3(8) . . . . ?
C127 N18 C72 C69 177.9(4) . . . . ?
C70 C69 C72 N18 -170.8(5) . . . . ?
C68 C69 C72 N18 3.8(8) . . . . ?
C74 N21 C73 N19 2.5(9) . . . . ?
C74 N21 C73 C76 175.3(6) . . . . ?
C75 N19 C73 N21 -0.4(9) . . . . ?
C75 N19 C73 C76 -173.5(6) . . . . ?
C75 N20 C74 N21 2.1(8) . . . . ?
C75 N20 C74 C90 -176.8(5) . . . . ?
C73 N21 C74 N20 -3.4(8) . . . . ?
C73 N21 C74 C90 175.4(5) . . . . ?
C73 N19 C75 N20 -1.2(9) . . . . ?
C73 N19 C75 C83 178.6(5) . . . . ?
C74 N20 C75 N19 0.4(8) . . . . ?
C74 N20 C75 C83 -179.5(5) . . . . ?
N21 C73 C76 C77 7.1(11) . . . . ?
N19 C73 C76 C77 -179.3(6) . . . . ?
N21 C73 C76 C81 -178.5(8) . . . . ?
N19 C73 C76 C81 -4.9(11) . . . . ?
C81 C76 C77 C78 2.7(11) . . . . ?
C73 C76 C77 C78 177.2(6) . . . . ?
C76 C77 C78 C79 -3.2(10) . . . . ?
C77 C78 C79 C80 9.0(13) . . . . ?
C77 C78 C79 C82 179.6(7) . . . . ?
C78 C79 C80 C81 -14.5(17) . . . . ?
C82 C79 C80 C81 174.3(11) . . . . ?
C79 C80 C81 C76 14.2(19) . . . . ?
C77 C76 C81 C80 -8.6(16) . . . . ?
C73 C76 C81 C80 176.8(11) . . . . ?
C132 N24 C82 C79 -178.1(6) . . . . ?
C78 C79 C82 N24 13.7(13) . . . . ?
C80 C79 C82 N24 -175.3(9) . . . . ?
N19 C75 C83 C88 -151.9(6) . . . . ?
N20 C75 C83 C88 28.0(8) . . . . ?
N19 C75 C83 C84 25.4(8) . . . . ?
N20 C75 C83 C84 -154.8(5) . . . . ?
C88 C83 C84 C85 -1.5(8) . . . . ?
C75 C83 C84 C85 -178.8(5) . . . . ?
C83 C84 C85 C86 3.7(9) . . . . ?
C84 C85 C86 C87 -3.2(8) . . . . ?
C84 C85 C86 C89 176.3(5) . . . . ?
C85 C86 C87 C88 0.4(7) . . . . ?
C89 C86 C87 C88 -179.0(4) . . . . ?
C84 C83 C88 C87 -1.1(8) . . . . ?
C75 C83 C88 C87 176.0(5) . . . . ?
C86 C87 C88 C83 1.7(7) . . . . ?
C126 N22 C89 C86 -175.5(4) . . . . ?
C85 C86 C89 N22 5.3(7) . . . . ?
C87 C86 C89 N22 -175.2(4) . . . . ?
N20 C74 C90 C95 -161.7(5) . . . . ?
N21 C74 C90 C95 19.4(7) . . . . ?
N20 C74 C90 C91 19.8(7) . . . . ?
N21 C74 C90 C91 -159.1(5) . . . . ?
C95 C90 C91 C92 1.4(8) . . . . ?
C74 C90 C91 C92 179.9(5) . . . . ?
C90 C91 C92 C93 -0.3(8) . . . . ?
C91 C92 C93 C94 0.0(8) . . . . ?
C91 C92 C93 C96 179.8(5) . . . . ?
C92 C93 C94 C95 -0.8(7) . . . . ?
C96 C93 C94 C95 179.4(5) . . . . ?
C91 C90 C95 C94 -2.2(8) . . . . ?
C74 C90 C95 C94 179.3(5) . . . . ?
C93 C94 C95 C90 1.9(8) . . . . ?
C108 N23 C96 C93 -174.8(4) . . . . ?
C92 C93 C96 N23 8.3(7) . . . . ?
C94 C93 C96 N23 -171.9(5) . . . . ?
C10 N4 C97 C98 -140.3(5) . . . . ?
C10 N4 C97 C102 97.3(5) . . . . ?
N4 C97 C98 C99 -172.6(5) . . . . ?
C102 C97 C98 C99 -52.7(6) . . . . ?
C97 C98 C99 C100 54.4(6) . . . . ?
C98 C99 C100 C101 -54.8(6) . . . . ?
C99 C100 C101 C102 54.5(6) . . . . ?
C41 N11 C102 C101 -119.9(5) . . . . ?
C41 N11 C102 C97 117.5(5) . . . . ?
C100 C101 C102 N11 -173.6(4) . . . . ?
C100 C101 C102 C97 -52.9(6) . . . . ?
N4 C97 C102 N11 -64.4(5) . . . . ?
C98 C97 C102 N11 174.2(4) . . . . ?
N4 C97 C102 C101 174.6(4) . . . . ?
C98 C97 C102 C101 53.2(5) . . . . ?
C24 N5 C103 C108 135.9(5) . . . . ?
C24 N5 C103 C104 -103.5(6) . . . . ?
N5 C103 C104 C105 -177.3(5) . . . . ?
C108 C103 C104 C105 -57.8(6) . . . . ?
C103 C104 C105 C106 56.5(8) . . . . ?
C104 C105 C106 C107 -56.3(9) . . . . ?
C105 C106 C107 C108 57.3(10) . . . . ?
C96 N23 C108 C107 -130.1(6) . . . . ?
C96 N23 C108 C103 109.4(5) . . . . ?
C106 C107 C108 N23 -178.5(6) . . . . ?
C106 C107 C108 C103 -58.1(8) . . . . ?
N5 C103 C108 N23 -58.7(6) . . . . ?
C104 C103 C108 N23 -179.1(4) . . . . ?
N5 C103 C108 C107 179.2(6) . . . . ?
C104 C103 C108 C107 58.8(7) . . . . ?
C17 N6 C109 C110 -125.3(5) . . . . ?
C17 N6 C109 C114 112.7(5) . . . . ?
N6 C109 C110 C111 -171.7(4) . . . . ?
C114 C109 C110 C111 -53.6(7) . . . . ?
C109 C110 C111 C112 54.9(8) . . . . ?
C110 C111 C112 C113 -54.6(8) . . . . ?
C111 C112 C113 C114 55.3(7) . . . . ?
C65 N17 C114 C113 -124.0(5) . . . . ?
C65 N17 C114 C109 116.3(5) . . . . ?
C112 C113 C114 N17 -174.7(5) . . . . ?
C112 C113 C114 C109 -55.2(7) . . . . ?
N6 C109 C114 N17 -64.5(6) . . . . ?
C110 C109 C114 N17 174.0(5) . . . . ?
N6 C109 C114 C113 176.0(5) . . . . ?
C110 C109 C114 C113 54.5(7) . . . . ?
C34 N10 C115 C120 131.0(5) . . . . ?
C34 N10 C115 C116 -107.0(6) . . . . ?
N10 C115 C116 C117 -176.9(6) . . . . ?
C120 C115 C116 C117 -56.9(7) . . . . ?
C115 C116 C117 C118 57.1(8) . . . . ?
C116 C117 C118 C119 -59.3(8) . . . . ?
C117 C118 C119 C120 58.5(7) . . . . ?
C58 N16 C120 C115 110.7(5) . . . . ?
C58 N16 C120 C119 -131.2(5) . . . . ?
N10 C115 C120 N16 -66.1(5) . . . . ?
C116 C115 C120 N16 173.3(4) . . . . ?
N10 C115 C120 C119 176.8(4) . . . . ?
C116 C115 C120 C119 56.2(6) . . . . ?
C118 C119 C120 N16 -173.3(5) . . . . ?
C118 C119 C120 C115 -57.4(7) . . . . ?
C48 N12 C121 C122 -116.4(5) . . . . ?
C48 N12 C121 C126 124.5(5) . . . . ?
N12 C121 C122 C123 -172.1(5) . . . . ?
C126 C121 C122 C123 -55.0(7) . . . . ?
C121 C122 C123 C124 58.3(8) . . . . ?
C122 C123 C124 C125 -59.7(8) . . . . ?
C123 C124 C125 C126 59.8(8) . . . . ?
C89 N22 C126 C125 -136.0(5) . . . . ?
C89 N22 C126 C121 102.6(5) . . . . ?
C124 C125 C126 N22 -176.7(5) . . . . ?
C124 C125 C126 C121 -57.2(7) . . . . ?
N12 C121 C126 N22 -65.8(6) . . . . ?
C122 C121 C126 N22 175.7(5) . . . . ?
N12 C121 C126 C125 172.9(5) . . . . ?
C122 C121 C126 C125 54.3(7) . . . . ?
C72 N18 C127 C128 -129.3(5) . . . . ?
C72 N18 C127 C132 109.0(5) . . . . ?
N18 C127 C128 C129 -177.8(4) . . . . ?
C132 C127 C128 C129 -56.6(6) . . . . ?
C127 C128 C129 C130 57.2(6) . . . . ?
C128 C129 C130 C131 -56.6(7) . . . . ?
C129 C130 C131 C132 56.4(7) . . . . ?
C82 N24 C132 C131 -121.6(6) . . . . ?
C82 N24 C132 C127 116.2(6) . . . . ?
C130 C131 C132 N24 -175.3(5) . . . . ?
C130 C131 C132 C127 -55.3(7) . . . . ?
N18 C127 C132 N24 -64.0(5) . . . . ?
C128 C127 C132 N24 174.9(4) . . . . ?
N18 C127 C132 C131 174.6(4) . . . . ?
C128 C127 C132 C131 53.6(6) . . . . ?

_refine_diff_density_max         0.185
_refine_diff_density_min         -0.187
_refine_diff_density_rms         0.042

_shelxl_version_number           2014-3

_shelx_res_file                  
;
TITL cage in P2(1)2(1)2(1)
CELL 0.80000 23.8550 26.6550 27.0820 90.000 90.000 90.000
ZERR 4.0000 0.0048 0.0053 0.0054 0.000 0.000 0.000
LATT -1
SYMM 0.5-X, -Y, 0.5+Z
SYMM 0.5+X, 0.5-Y, -Z
SYMM -X, 0.5+Y, 0.5-Z
SFAC C H N
DISP     C   -0.00202   0.00212       14.61
DISP     H    0.00000   0.00000        0.67
DISP     N   -0.00307   0.00432       25.91
UNIT 528 480 96
MERG 2
FMAP 2
GRID
PLAN 5
TEMP 20
SIZE 0.3 0.2 0.05
CONF
BOND $H
OMIT  1 0 2
OMIT  2 1 0
OMIT  0 1 2
OMIT  2 2 0
OMIT  -1 2 1
OMIT  -1 1 2
OMIT  -1 2 2
OMIT  1 1 2
OMIT  1 3 0
OMIT  1 2 2
OMIT  3 1 0
OMIT  2 3 0
L.S. 20
ACTA
WGHT    0.121700
EXTI    0.002250
FVAR       1.80209
N1    3    0.123147    0.457931    0.956326    11.00000    0.10246    0.10039 =
         0.05012   -0.01326   -0.00079    0.00258
N2    3    0.151035    0.544519    0.962290    11.00000    0.09675    0.09076 =
         0.05996   -0.00129   -0.00367    0.00354
N3    3    0.116426    0.511060    0.886519    11.00000    0.09615    0.09667 =
         0.05740   -0.00848    0.00289   -0.00418
N4    3    0.044873    0.250647    0.814296    11.00000    0.10072    0.10984 =
         0.05822    0.00001   -0.00255   -0.01236
N5    3    0.172911    0.525298    1.214308    11.00000    0.09710    0.08403 =
         0.06494   -0.00752   -0.01192    0.00364
N6    3    0.100326    0.765306    0.806174    11.00000    0.12283    0.09947 =
         0.06764    0.00280   -0.01022    0.00663
N7    3    0.492132    0.342572    0.749860    11.00000    0.09564    0.07941 =
         0.07092    0.01845   -0.00014    0.00474
N8    3    0.395916    0.333624    0.728750    11.00000    0.09062    0.07464 =
         0.07426    0.01977    0.01240    0.00502
N9    3    0.429128    0.303235    0.805327    11.00000    0.09799    0.07749 =
         0.07589    0.01520    0.00355   -0.00047
N10   3    0.529148    0.431898    0.501981    11.00000    0.11436    0.08766 =
         0.06158    0.00743    0.00037    0.01398
N11   3    0.144178    0.202879    0.779091    11.00000    0.09263    0.10122 =
         0.06058   -0.00855    0.00307   -0.02260
N12   3    0.655719    0.225482    0.946129    11.00000    0.10009    0.08371 =
         0.05989    0.00401   -0.00594    0.00912
N13   3    0.531501    0.671559    0.716373    11.00000    0.11093    0.10888 =
         0.07280   -0.03052    0.01110   -0.01912
N14   3    0.441720    0.668268    0.680128    11.00000    0.10596    0.09750 =
         0.07159   -0.02477    0.01210   -0.01392
N15   3    0.453933    0.707343    0.758556    11.00000    0.09963    0.08724 =
         0.07342   -0.02138    0.00670   -0.00943
N16   3    0.549659    0.534607    0.480268    11.00000    0.12804    0.08795 =
         0.05873   -0.00845    0.01874    0.00322
N17   3    0.182794    0.802640    0.740200    11.00000    0.10891    0.09546 =
         0.08166   -0.00326    0.00474    0.00076
N18   3    0.701388    0.778553    0.903727    11.00000    0.09724    0.07216 =
         0.07488   -0.00799    0.00430   -0.00540
N19   3    0.588063    0.504925    1.073038    11.00000    0.11326    0.08863 =
         0.13054    0.02107    0.03055    0.00100
N20   3    0.504243    0.479626    1.113455    11.00000    0.09326    0.08871 =
         0.08730    0.00259    0.01007   -0.00474
N21   3    0.524346    0.566898    1.102570    11.00000    0.11103    0.09001 =
         0.09536    0.01554    0.01932   -0.01086
N22   3    0.671401    0.255804    1.045612    11.00000    0.12152    0.10244 =
         0.05555    0.00492   -0.00433    0.00842
N23   3    0.273761    0.543808    1.263822    11.00000    0.09862    0.11838 =
         0.06318   -0.01895   -0.00096   -0.01539
N24   3    0.720834    0.741506    1.002425    11.00000    0.10396    0.09089 =
         0.08142    0.00788    0.00315   -0.00713
C1    1    0.112200    0.467253    0.907933    11.00000    0.09181    0.09528 =
         0.05539   -0.00092    0.00640    0.00241
C2    1    0.135943    0.549302    0.914954    11.00000    0.09712    0.09788 =
         0.06199    0.00804    0.00527    0.01414
C3    1    0.143256    0.498529    0.980641    11.00000    0.10190    0.11173 =
         0.05587   -0.00626    0.00221    0.00696
C4    1    0.095834    0.423231    0.879134    11.00000    0.08587    0.09845 =
         0.05858   -0.00654    0.00542   -0.00615
C5    1    0.077090    0.379578    0.901976    11.00000    0.12283    0.09414 =
         0.05493   -0.00228    0.00403   -0.00712
AFIX  43
H5    2    0.072204    0.379183    0.936044    11.00000   -1.20000
AFIX   0
C6    1    0.065712    0.337217    0.875235    11.00000    0.12401    0.09304 =
         0.05832    0.00118    0.00260   -0.00902
AFIX  43
H6    2    0.053049    0.308615    0.891431    11.00000   -1.20000
AFIX   0
C7    1    0.072656    0.336205    0.824971    11.00000    0.09101    0.10988 =
         0.05600   -0.00513    0.00270   -0.01158
C8    1    0.091145    0.380382    0.802426    11.00000    0.13780    0.12430 =
         0.05660   -0.00567    0.00389   -0.04805
AFIX  43
H8    2    0.096244    0.380716    0.768383    11.00000   -1.20000
AFIX   0
C9    1    0.101790    0.422307    0.828159    11.00000    0.13698    0.11004 =
         0.05306   -0.00851    0.01062   -0.02767
AFIX  43
H9    2    0.113303    0.451110    0.811644    11.00000   -1.20000
AFIX   0
C10   1    0.064166    0.291449    0.795994    11.00000    0.11398    0.10633 =
         0.05909    0.00051    0.00095   -0.02879
AFIX  43
H10   2    0.073086    0.292251    0.762574    11.00000   -1.20000
AFIX   0
C11   1    0.135589    0.601228    0.894144    11.00000    0.10225    0.08850 =
         0.05974   -0.01021    0.00205    0.00530
C12   1    0.113167    0.610826    0.847812    11.00000    0.13933    0.08920 =
         0.06446    0.00271   -0.02124   -0.01100
AFIX  43
H12   2    0.098927    0.584814    0.828669    11.00000   -1.20000
AFIX   0
C13   1    0.112315    0.659365    0.830623    11.00000    0.13323    0.10689 =
         0.06529   -0.00113   -0.01284   -0.00375
AFIX  43
H13   2    0.096314    0.666036    0.800004    11.00000   -1.20000
AFIX   0
C14   1    0.134739    0.698619    0.857839    11.00000    0.11378    0.09169 =
         0.06656   -0.00236   -0.00628    0.01181
C15   1    0.158022    0.688396    0.903751    11.00000    0.13558    0.10091 =
         0.07680   -0.01100   -0.01996    0.01895
AFIX  43
H15   2    0.173414    0.713989    0.922748    11.00000   -1.20000
AFIX   0
C16   1    0.157895    0.639693    0.920614    11.00000    0.14357    0.08834 =
         0.06594   -0.00798   -0.02301    0.02033
AFIX  43
H16   2    0.173668    0.632832    0.951283    11.00000   -1.20000
AFIX   0
C17   1    0.133343    0.751931    0.841131    11.00000    0.11751    0.09439 =
         0.07161   -0.00877   -0.00868    0.01395
AFIX  43
H17   2    0.156484    0.775528    0.856111    11.00000   -1.20000
AFIX   0
C18   1    0.154859    0.490711    1.034258    11.00000    0.11411    0.09367 =
         0.04893   -0.00744    0.00038    0.00398
C19   1    0.188619    0.525774    1.058948    11.00000    0.11230    0.10023 =
         0.06310    0.00506   -0.00066   -0.01072
AFIX  43
H19   2    0.207166    0.550799    1.041463    11.00000   -1.20000
AFIX   0
C20   1    0.193938    0.522470    1.110409    11.00000    0.10244    0.09845 =
         0.06052   -0.00113   -0.00684   -0.01348
AFIX  43
H20   2    0.215680    0.545872    1.127200    11.00000   -1.20000
AFIX   0
C21   1    0.167649    0.485408    1.136060    11.00000    0.10832    0.07427 =
         0.05746   -0.00357   -0.00876    0.00387
C22   1    0.137036    0.449040    1.110843    11.00000    0.13393    0.07791 =
         0.05665   -0.00741    0.00085   -0.01110
AFIX  43
H22   2    0.120995    0.422439    1.127993    11.00000   -1.20000
AFIX   0
C23   1    0.130572    0.452603    1.060267    11.00000    0.12774    0.09394 =
         0.06140   -0.00968   -0.00045   -0.01820
AFIX  43
H23   2    0.109348    0.428670    1.043686    11.00000   -1.20000
AFIX   0
C24   1    0.169118    0.484467    1.190600    11.00000    0.11598    0.07520 =
         0.05810   -0.00832    0.00000    0.00349
AFIX  43
H24   2    0.167270    0.454092    1.207416    11.00000   -1.20000
AFIX   0
C25   1    0.448520    0.348340    0.719541    11.00000    0.10081    0.07624 =
         0.07376    0.01591    0.00441    0.00518
C26   1    0.389396    0.310055    0.771820    11.00000    0.09542    0.06707 =
         0.07443    0.00318    0.00524    0.01037
C27   1    0.480905    0.319516    0.792843    11.00000    0.09092    0.07795 =
         0.08219    0.01722    0.00377    0.00612
C28   1    0.459327    0.371355    0.670427    11.00000    0.09292    0.07491 =
         0.07367    0.01807    0.00018   -0.00193
C29   1    0.513803    0.376358    0.652127    11.00000    0.09691    0.09974 =
         0.06881    0.02022    0.00201    0.00127
AFIX  43
H29   2    0.543977    0.367670    0.672120    11.00000   -1.20000
AFIX   0
C30   1    0.523783    0.393952    0.604922    11.00000    0.08925    0.09834 =
         0.07789    0.01224    0.00770    0.01463
AFIX  43
H30   2    0.560142    0.396346    0.592757    11.00000   -1.20000
AFIX   0
C31   1    0.477469    0.408215    0.575578    11.00000    0.09470    0.08802 =
         0.07299    0.02195    0.00408    0.00468
C32   1    0.424067    0.402670    0.593179    11.00000    0.09548    0.09743 =
         0.10260    0.03574   -0.01498    0.00148
AFIX  43
H32   2    0.393940    0.411266    0.573093    11.00000   -1.20000
AFIX   0
C33   1    0.413886    0.384502    0.640338    11.00000    0.08579    0.10378 =
         0.09445    0.03847    0.01139    0.02312
AFIX  43
H33   2    0.377346    0.381095    0.651830    11.00000   -1.20000
AFIX   0
C34   1    0.482857    0.427034    0.524670    11.00000    0.10634    0.09513 =
         0.06618    0.00864    0.00483    0.00742
AFIX  43
H34   2    0.450231    0.435942    0.508043    11.00000   -1.20000
AFIX   0
C35   1    0.333170    0.288607    0.783098    11.00000    0.09451    0.06657 =
         0.07617    0.00281    0.00920   -0.00279
C36   1    0.288803    0.291981    0.749664    11.00000    0.08759    0.07738 =
         0.08240    0.01257    0.01258    0.00790
AFIX  43
H36   2    0.293570    0.309948    0.720528    11.00000   -1.20000
AFIX   0
C37   1    0.239067    0.269626    0.758852    11.00000    0.08463    0.07746 =
         0.07543    0.00182   -0.00118    0.00613
AFIX  43
H37   2    0.209943    0.272515    0.736201    11.00000   -1.20000
AFIX   0
C38   1    0.231117    0.241849    0.802781    11.00000    0.09603    0.09190 =
         0.06605   -0.00678    0.01226   -0.02128
C39   1    0.274597    0.240972    0.836407    11.00000    0.13630    0.14968 =
         0.05897   -0.00013   -0.00209   -0.05268
AFIX  43
H39   2    0.268821    0.225647    0.866835    11.00000   -1.20000
AFIX   0
C40   1    0.325781    0.261745    0.826718    11.00000    0.11298    0.12148 =
         0.06295    0.00627    0.00149   -0.03410
AFIX  43
H40   2    0.355236    0.258005    0.848911    11.00000   -1.20000
AFIX   0
C41   1    0.179734    0.214779    0.812238    11.00000    0.11688    0.09527 =
         0.06614   -0.00385    0.01159   -0.02010
AFIX  43
H41   2    0.172101    0.205423    0.844630    11.00000   -1.20000
AFIX   0
C42   1    0.526718    0.309568    0.827446    11.00000    0.08955    0.07947 =
         0.07501    0.01376   -0.00206   -0.00026
C43   1    0.516442    0.279528    0.868613    11.00000    0.09838    0.10219 =
         0.07048    0.02288    0.00528   -0.00064
AFIX  43
H43   2    0.480299    0.268408    0.875388    11.00000   -1.20000
AFIX   0
C44   1    0.560409    0.266391    0.899297    11.00000    0.10500    0.08670 =
         0.06993    0.01869    0.00037   -0.00041
AFIX  43
H44   2    0.553515    0.245974    0.926472    11.00000   -1.20000
AFIX   0
C45   1    0.615228    0.283234    0.890278    11.00000    0.09504    0.07917 =
         0.06904    0.01124   -0.00066    0.01082
C46   1    0.623856    0.314425    0.850284    11.00000    0.08996    0.12481 =
         0.08705    0.03626    0.00230    0.00628
AFIX  43
H46   2    0.659518    0.327036    0.844083    11.00000   -1.20000
AFIX   0
C47   1    0.579366    0.327238    0.818968    11.00000    0.11015    0.09409 =
         0.08746    0.03297    0.00159    0.00367
AFIX  43
H47   2    0.585892    0.348087    0.792039    11.00000   -1.20000
AFIX   0
C48   1    0.661515    0.264662    0.919029    11.00000    0.09754    0.08623 =
         0.07383    0.01176   -0.00248    0.00534
AFIX  43
H48   2    0.695854    0.281147    0.917974    11.00000   -1.20000
AFIX   0
C49   1    0.497038    0.659293    0.680728    11.00000    0.10297    0.10584 =
         0.07762   -0.02624    0.01287   -0.01593
C50   1    0.421605    0.694056    0.719877    11.00000    0.12030    0.08577 =
         0.06494   -0.01571    0.00733   -0.01789
C51   1    0.508020    0.695646    0.755362    11.00000    0.10037    0.08052 =
         0.07070   -0.01720    0.00636   -0.01174
C52   1    0.520291    0.632466    0.637216    11.00000    0.10264    0.12326 =
         0.07418   -0.03658    0.01088   -0.00792
C53   1    0.487884    0.630221    0.593190    11.00000    0.12376    0.09298 =
         0.06414   -0.01969    0.01445   -0.01121
AFIX  43
H53   2    0.453937    0.647105    0.590194    11.00000   -1.20000
AFIX   0
C54   1    0.509618    0.601449    0.554840    11.00000    0.11105    0.10275 =
         0.07247   -0.02339    0.01003   -0.00118
AFIX  43
H54   2    0.489095    0.598777    0.525762    11.00000   -1.20000
AFIX   0
C55   1    0.559572    0.577057    0.558018    11.00000    0.12588    0.12893 =
         0.07360   -0.04347    0.01019   -0.00951
C56   1    0.592222    0.583127    0.600918    11.00000    0.11147    0.21453 =
         0.10290   -0.08140   -0.00552    0.02183
AFIX  43
H56   2    0.627359    0.568149    0.602918    11.00000   -1.20000
AFIX   0
C57   1    0.572696    0.610713    0.639358    11.00000    0.10687    0.20464 =
         0.09775   -0.06803    0.00060    0.01216
AFIX  43
H57   2    0.594797    0.614979    0.667334    11.00000   -1.20000
AFIX   0
C58   1    0.580148    0.541905    0.518487    11.00000    0.10435    0.14166 =
         0.07532   -0.03524    0.01600    0.00716
AFIX  43
H58   2    0.614491    0.525734    0.521778    11.00000   -1.20000
AFIX   0
C59   1    0.362832    0.707863    0.720781    11.00000    0.09032    0.10257 =
         0.08065   -0.01759    0.00903    0.00208
C60   1    0.344001    0.741043    0.757417    11.00000    0.10665    0.13079 =
         0.07573   -0.03362   -0.00423    0.01442
AFIX  43
H60   2    0.368291    0.752177    0.781939    11.00000   -1.20000
AFIX   0
C61   1    0.290362    0.756530    0.756600    11.00000    0.10890    0.13836 =
         0.08249   -0.04144    0.00953    0.00440
AFIX  43
H61   2    0.277834    0.777250    0.781929    11.00000   -1.20000
AFIX   0
C62   1    0.252671    0.743033    0.719649    11.00000    0.10914    0.11165 =
         0.07241   -0.01601    0.00194   -0.00249
C63   1    0.272414    0.708870    0.683961    11.00000    0.12048    0.10780 =
         0.06963   -0.02175    0.00491   -0.01100
AFIX  43
H63   2    0.247971    0.697821    0.659518    11.00000   -1.20000
AFIX   0
C64   1    0.325883    0.691559    0.684066    11.00000    0.10446    0.09343 =
         0.06984   -0.01423    0.00579    0.00132
AFIX  43
H64   2    0.337828    0.669098    0.659986    11.00000   -1.20000
AFIX   0
C65   1    0.196270    0.762847    0.717947    11.00000    0.11480    0.11607 =
         0.06318   -0.01605    0.00294    0.00732
AFIX  43
H65   2    0.169136    0.745754    0.699920    11.00000   -1.20000
AFIX   0
C66   1    0.543901    0.711478    0.796866    11.00000    0.10807    0.09119 =
         0.07483   -0.02491    0.01200   -0.01618
C67   1    0.602715    0.703271    0.795199    11.00000    0.09700    0.08924 =
         0.07836   -0.02219    0.00876   -0.01371
AFIX  43
H67   2    0.618356    0.684995    0.769394    11.00000   -1.20000
AFIX   0
C68   1    0.636722    0.722526    0.832057    11.00000    0.09546    0.08283 =
         0.07635   -0.01162    0.00311    0.00423
AFIX  43
H68   2    0.675199    0.716997    0.831075    11.00000   -1.20000
AFIX   0
C69   1    0.613043    0.750623    0.871252    11.00000    0.10736    0.09085 =
         0.06192   -0.01608    0.00487   -0.00618
C70   1    0.555241    0.756814    0.873543    11.00000    0.09835    0.09890 =
         0.07416   -0.01516    0.01204   -0.01141
AFIX  43
H70   2    0.539381    0.773546    0.900243    11.00000   -1.20000
AFIX   0
C71   1    0.520546    0.738036    0.835906    11.00000    0.09110    0.09552 =
         0.07799   -0.02141    0.00843   -0.00525
AFIX  43
H71   2    0.482045    0.743376    0.837132    11.00000   -1.20000
AFIX   0
C72   1    0.647968    0.776726    0.906675    11.00000    0.09293    0.08989 =
         0.07044   -0.01066    0.00817   -0.00610
AFIX  43
H72   2    0.630608    0.792998    0.932922    11.00000   -1.20000
AFIX   0
C73   1    0.571495    0.552699    1.080725    11.00000    0.10195    0.09789 =
         0.10989    0.01506    0.02630   -0.00350
C74   1    0.492219    0.528232    1.119683    11.00000    0.09789    0.09319 =
         0.08655    0.00773   -0.00560   -0.01267
C75   1    0.552745    0.469813    1.089707    11.00000    0.10817    0.08141 =
         0.09941    0.01616    0.02621   -0.00158
C76   1    0.607612    0.590782    1.057305    11.00000    0.10787    0.09287 =
         0.15647    0.03692    0.03816    0.00055
C77   1    0.596969    0.642251    1.061955    11.00000    0.11677    0.09823 =
         0.09407    0.00203    0.01896   -0.02226
AFIX  43
H77   2    0.565400    0.653075    1.079058    11.00000   -1.20000
AFIX   0
C78   1    0.633371    0.677507    1.041118    11.00000    0.10814    0.09298 =
         0.09142   -0.00178    0.01380   -0.00064
AFIX  43
H78   2    0.625246    0.711588    1.042817    11.00000   -1.20000
AFIX   0
C79   1    0.681133    0.661148    1.018185    11.00000    0.11496    0.10597 =
         0.19619    0.04547    0.07241    0.00055
C80   1    0.689726    0.608791    1.009309    11.00000    0.17703    0.09683 =
         0.35553    0.04797    0.14203    0.00825
AFIX  43
H80   2    0.717351    0.597861    0.987598    11.00000   -1.20000
AFIX   0
C81   1    0.656807    0.575822    1.033188    11.00000    0.16490    0.09709 =
         0.32336    0.05871    0.12830    0.01538
AFIX  43
H81   2    0.666972    0.542143    1.033712    11.00000   -1.20000
AFIX   0
C82   1    0.722906    0.696658    0.994267    11.00000    0.13324    0.09614 =
         0.18223    0.02277    0.05751    0.01444
AFIX  43
H82   2    0.750279    0.684011    0.973221    11.00000   -1.20000
AFIX   0
C83   1    0.568351    0.417923    1.081202    11.00000    0.10427    0.09906 =
         0.08273    0.00612    0.01593    0.00040
C84   1    0.627156    0.407104    1.075460    11.00000    0.10484    0.09738 =
         0.11500    0.00568    0.01982   -0.00727
AFIX  43
H84   2    0.653884    0.432397    1.077752    11.00000   -1.20000
AFIX   0
C85   1    0.642935    0.357048    1.066268    11.00000    0.12652    0.10033 =
         0.09661   -0.01090    0.02311    0.01101
AFIX  43
H85   2    0.680796    0.348954    1.064374    11.00000   -1.20000
AFIX   0
C86   1    0.603704    0.319992    1.060052    11.00000    0.10557    0.09365 =
         0.06033    0.00268    0.00293   -0.00071
C87   1    0.545313    0.331495    1.065423    11.00000    0.11356    0.09141 =
         0.07311   -0.00130    0.00704   -0.00107
AFIX  43
H87   2    0.518540    0.306453    1.061471    11.00000   -1.20000
AFIX   0
C88   1    0.528834    0.380365    1.076593    11.00000    0.10285    0.10235 =
         0.07452    0.00400    0.00459   -0.00264
AFIX  43
H88   2    0.491046    0.387709    1.080961    11.00000   -1.20000
AFIX   0
C89   1    0.620150    0.269581    1.047762    11.00000    0.10079    0.10162 =
         0.05959    0.00488   -0.00195    0.00364
AFIX  43
H89   2    0.592353    0.246070    1.041113    11.00000   -1.20000
AFIX   0
C90   1    0.440750    0.540456    1.148047    11.00000    0.09708    0.07915 =
         0.07831   -0.00355    0.00550    0.00008
C91   1    0.417842    0.504223    1.179014    11.00000    0.10950    0.08168 =
         0.09281    0.00409    0.01448   -0.00113
AFIX  43
H91   2    0.434955    0.472973    1.181466    11.00000   -1.20000
AFIX   0
C92   1    0.370297    0.513909    1.206043    11.00000    0.10084    0.08651 =
         0.08578   -0.00663    0.01612   -0.00304
AFIX  43
H92   2    0.355220    0.489387    1.226546    11.00000   -1.20000
AFIX   0
C93   1    0.344910    0.560852    1.202412    11.00000    0.09989    0.09281 =
         0.06642   -0.00328   -0.00579   -0.01189
C94   1    0.368321    0.597268    1.171322    11.00000    0.10596    0.08557 =
         0.07675   -0.00678   -0.00959    0.00082
AFIX  43
H94   2    0.351482    0.628586    1.168305    11.00000   -1.20000
AFIX   0
C95   1    0.416541    0.586422    1.145171    11.00000    0.10048    0.10218 =
         0.06972    0.01483    0.00619   -0.00735
AFIX  43
H95   2    0.432637    0.610974    1.125315    11.00000   -1.20000
AFIX   0
C96   1    0.292699    0.573646    1.230938    11.00000    0.09726    0.11160 =
         0.07839   -0.02551    0.00005   -0.00411
AFIX  43
H96   2    0.274043    0.603586    1.224550    11.00000   -1.20000
AFIX   0
C97   1    0.042600    0.206325    0.782627    11.00000    0.10747    0.11751 =
         0.05052   -0.00426   -0.00378   -0.02700
AFIX  13
H97   2    0.043554    0.217042    0.748022    11.00000   -1.20000
AFIX   0
C98   1   -0.011234    0.177270    0.791828    11.00000    0.09965    0.14172 =
         0.06875    0.00060   -0.00262   -0.04300
AFIX  23
H98A  2   -0.042982    0.197240    0.781128    11.00000   -1.20000
H98B  2   -0.015269    0.171091    0.826946    11.00000   -1.20000
AFIX   0
C99   1   -0.011370    0.126881    0.764034    11.00000    0.11668    0.11473 =
         0.07099    0.00159   -0.01243   -0.02578
AFIX  23
H99A  2   -0.044849    0.108249    0.772808    11.00000   -1.20000
H99B  2   -0.012529    0.133247    0.728784    11.00000   -1.20000
AFIX   0
C100  1    0.038537    0.096254    0.775614    11.00000    0.14078    0.11846 =
         0.06842    0.00552   -0.01631   -0.04964
AFIX  23
H10A  2    0.038002    0.066092    0.755579    11.00000   -1.20000
H10B  2    0.037114    0.086179    0.810008    11.00000   -1.20000
AFIX   0
C101  1    0.093891    0.125133    0.765990    11.00000    0.13245    0.11408 =
         0.06159   -0.00802   -0.00009   -0.02298
AFIX  23
H10C  2    0.125380    0.104767    0.776559    11.00000   -1.20000
H10D  2    0.097845    0.131320    0.730867    11.00000   -1.20000
AFIX   0
C102  1    0.094756    0.174634    0.793452    11.00000    0.10792    0.10745 =
         0.06235   -0.00309   -0.00291   -0.01434
AFIX  13
H102  2    0.096505    0.167906    0.828994    11.00000   -1.20000
AFIX   0
C103  1    0.174735    0.523350    1.267717    11.00000    0.09775    0.09629 =
         0.06198   -0.00444   -0.00760    0.00133
AFIX  13
H103  2    0.183798    0.489139    1.278299    11.00000   -1.20000
AFIX   0
C104  1    0.117648    0.538610    1.289088    11.00000    0.10053    0.11137 =
         0.08007   -0.01293    0.00392   -0.00978
AFIX  23
H10E  2    0.107511    0.571700    1.277153    11.00000   -1.20000
H10F  2    0.089150    0.515103    1.278251    11.00000   -1.20000
AFIX   0
C105  1    0.120309    0.539035    1.344837    11.00000    0.10838    0.16676 =
         0.08402   -0.02835    0.01838   -0.04034
AFIX  23
H10G  2    0.084557    0.550144    1.357937    11.00000   -1.20000
H10H  2    0.127059    0.505232    1.356695    11.00000   -1.20000
AFIX   0
C106  1    0.165079    0.572453    1.362943    11.00000    0.12296    0.23881 =
         0.08472   -0.08108    0.03169   -0.04816
AFIX  23
H10I  2    0.166846    0.570571    1.398678    11.00000   -1.20000
H10J  2    0.156402    0.606806    1.353930    11.00000   -1.20000
AFIX   0
C107  1    0.221936    0.557917    1.341244    11.00000    0.14248    0.24680 =
         0.06471   -0.06005    0.01191   -0.05842
AFIX  23
H10K  2    0.250357    0.581105    1.352876    11.00000   -1.20000
H10L  2    0.232040    0.524524    1.352353    11.00000   -1.20000
AFIX   0
C108  1    0.220043    0.558940    1.285481    11.00000    0.09839    0.11332 =
         0.06839   -0.03421    0.01027   -0.01630
AFIX  13
H108  2    0.210982    0.593022    1.274504    11.00000   -1.20000
AFIX   0
C109  1    0.100076    0.818376    0.791151    11.00000    0.12293    0.09426 =
         0.06168    0.00308    0.00063    0.00554
AFIX  13
H109  2    0.124677    0.837501    0.813187    11.00000   -1.20000
AFIX   0
C110  1    0.042296    0.840039    0.793143    11.00000    0.13022    0.10344 =
         0.07480    0.00659    0.00922    0.02197
AFIX  23
H11A  2    0.029978    0.841666    0.827240    11.00000   -1.20000
H11B  2    0.016717    0.818259    0.775375    11.00000   -1.20000
AFIX   0
C111  1    0.040398    0.891861    0.770864    11.00000    0.14814    0.11588 =
         0.10135    0.00240   -0.00663    0.02903
AFIX  23
H11C  2    0.001888    0.903543    0.771049    11.00000   -1.20000
H11D  2    0.062052    0.914397    0.791530    11.00000   -1.20000
AFIX   0
C112  1    0.062074    0.894744    0.719980    11.00000    0.12933    0.11815 =
         0.09010    0.01816   -0.00798    0.01845
AFIX  23
H11E  2    0.062542    0.929409    0.709087    11.00000   -1.20000
H11F  2    0.037831    0.875925    0.697985    11.00000   -1.20000
AFIX   0
C113  1    0.121981    0.872962    0.718171    11.00000    0.15811    0.11217 =
         0.09008    0.01154    0.00636    0.02446
AFIX  23
H11G  2    0.135120    0.872982    0.684275    11.00000   -1.20000
H11H  2    0.146829    0.894232    0.737291    11.00000   -1.20000
AFIX   0
C114  1    0.124449    0.819277    0.738593    11.00000    0.11631    0.09282 =
         0.08107    0.00274   -0.00266    0.00893
AFIX  13
H114  2    0.102715    0.796837    0.717258    11.00000   -1.20000
AFIX   0
C115  1    0.525671    0.452814    0.451428    11.00000    0.13079    0.08301 =
         0.05136    0.00626    0.00065    0.00494
AFIX  13
H115  2    0.488039    0.466542    0.446129    11.00000   -1.20000
AFIX   0
C116  1    0.536471    0.410869    0.413607    11.00000    0.18350    0.09500 =
         0.06016   -0.01116    0.00048   -0.00491
AFIX  23
H11I  2    0.572413    0.395280    0.420324    11.00000   -1.20000
H11J  2    0.507653    0.385378    0.416616    11.00000   -1.20000
AFIX   0
C117  1    0.536311    0.431408    0.362637    11.00000    0.20388    0.12135 =
         0.05923   -0.02588    0.01615   -0.00160
AFIX  23
H11K  2    0.499443    0.444655    0.355002    11.00000   -1.20000
H11L  2    0.544519    0.404775    0.339325    11.00000   -1.20000
AFIX   0
C118  1    0.580584    0.473591    0.357456    11.00000    0.19579    0.11622 =
         0.05183   -0.00733    0.02575    0.02575
AFIX  23
H11M  2    0.617640    0.460086    0.363845    11.00000   -1.20000
H11N  2    0.580054    0.486633    0.324022    11.00000   -1.20000
AFIX   0
C119  1    0.568253    0.515534    0.393572    11.00000    0.15005    0.10536 =
         0.06333    0.00298    0.03511    0.00495
AFIX  23
H11O  2    0.532008    0.530213    0.386165    11.00000   -1.20000
H11P  2    0.596468    0.541550    0.390487    11.00000   -1.20000
AFIX   0
C120  1    0.568220    0.494678    0.446938    11.00000    0.11717    0.09345 =
         0.05407   -0.00954    0.01711    0.00498
AFIX  13
H120  2    0.605671    0.482819    0.456156    11.00000   -1.20000
AFIX   0
C121  1    0.702778    0.207613    0.975094    11.00000    0.10721    0.08496 =
         0.06318    0.01181    0.00651    0.00889
AFIX  13
H121  2    0.734434    0.230857    0.972158    11.00000   -1.20000
AFIX   0
C122  1    0.719505    0.156206    0.957298    11.00000    0.13539    0.08501 =
         0.08068    0.00598    0.00134    0.02383
AFIX  23
H12A  2    0.686560    0.134911    0.956100    11.00000   -1.20000
H12B  2    0.734364    0.158819    0.924057    11.00000   -1.20000
AFIX   0
C123  1    0.762545    0.132468    0.989960    11.00000    0.12891    0.11083 =
         0.12661    0.01789   -0.00212    0.03138
AFIX  23
H12C  2    0.796498    0.152489    0.989708    11.00000   -1.20000
H12D  2    0.771675    0.099291    0.977633    11.00000   -1.20000
AFIX   0
C124  1    0.740470    0.128511    1.042058    11.00000    0.17447    0.12280 =
         0.10845    0.03189    0.00781    0.05790
AFIX  23
H12E  2    0.768444    0.112954    1.063065    11.00000   -1.20000
H12F  2    0.707106    0.107715    1.042514    11.00000   -1.20000
AFIX   0
C125  1    0.726575    0.180490    1.061400    11.00000    0.13670    0.14753 =
         0.07042    0.02970   -0.00688    0.02083
AFIX  23
H12G  2    0.712720    0.178009    1.094986    11.00000   -1.20000
H12H  2    0.760201    0.200949    1.061733    11.00000   -1.20000
AFIX   0
C126  1    0.682808    0.204867    1.029203    11.00000    0.11343    0.10068 =
         0.05761    0.01714    0.00248    0.01853
AFIX  13
H126  2    0.648148    0.185197    1.030808    11.00000   -1.20000
AFIX   0
C127  1    0.731309    0.807605    0.940912    11.00000    0.09086    0.07008 =
         0.08054    0.00327    0.00118   -0.00275
AFIX  13
H127  2    0.704135    0.827072    0.960133    11.00000   -1.20000
AFIX   0
C128  1    0.771381    0.843202    0.915954    11.00000    0.11542    0.08782 =
         0.08961    0.00852   -0.01123   -0.00737
AFIX  23
H12I  2    0.750360    0.866097    0.895163    11.00000   -1.20000
H12J  2    0.796578    0.824250    0.894922    11.00000   -1.20000
AFIX   0
C129  1    0.805592    0.873244    0.952934    11.00000    0.11111    0.08251 =
         0.11056    0.00613   -0.00683   -0.01069
AFIX  23
H12K  2    0.781026    0.894340    0.972518    11.00000   -1.20000
H12L  2    0.832003    0.894654    0.935683    11.00000   -1.20000
AFIX   0
C130  1    0.838105    0.835566    0.987533    11.00000    0.09050    0.10729 =
         0.11094    0.00850   -0.01523   -0.02059
AFIX  23
H13A  2    0.864761    0.816447    0.968104    11.00000   -1.20000
H13B  2    0.858805    0.854223    1.012297    11.00000   -1.20000
AFIX   0
C131  1    0.798845    0.801230    1.011860    11.00000    0.10480    0.10089 =
         0.09691    0.00781   -0.01346   -0.01095
AFIX  23
H13C  2    0.774748    0.820316    1.033757    11.00000   -1.20000
H13D  2    0.819861    0.777604    1.031847    11.00000   -1.20000
AFIX   0
C132  1    0.762771    0.772386    0.975577    11.00000    0.08667    0.08383 =
         0.09042    0.00485    0.01066   -0.00781
AFIX  13
H132  2    0.786806    0.750216    0.955954    11.00000   -1.20000
AFIX   0
HKLF 4

REM  cage in P2(1)2(1)2(1)
REM R1 =  0.0603 for   15201 Fo > 4sig(Fo)  and  0.0798 for all   22034 data
REM   1406 parameters refined using      0 restraints

END

WGHT      0.1217      0.0000

REM Highest difference peak  0.185,  deepest hole -0.187,  1-sigma level  0.042
Q1    1   0.4739  0.4203  0.6310  11.00000  0.05    0.19
Q2    1   0.4009  0.3825  0.7008  11.00000  0.05    0.17
Q3    1   0.0498  0.3758  0.8053  11.00000  0.05    0.17
Q4    1   0.4907  0.3989  0.6013  11.00000  0.05    0.16
Q5    1   0.0550  0.3000  0.8412  11.00000  0.05    0.16
;
_shelx_res_checksum              64440

_shelx_hkl_file                  
;
   0   0   6  218874    2495                                                      130771   58.48    0.21  1.0000
   0   0   8   47846     426                                                       22131   38.53    0.00  1.0000
   0   0  10     409     155                                                        6261   32.43    0.06  1.0000
   0   0  12   12733     337                                                       17061   -9.79   -0.13  1.0000
   0   0  14    2141      98                                                        1979   -0.98   -0.32  1.0000
   0   0  16   13743     285                                                       12153    3.85   -0.18  1.0000
   0   0  18    7553     255                                                        9840    6.76   -0.01  1.0000
   0   0  20     608     101                                                        1457    7.44   -0.09  1.0000
   0   0  22    2499     140                                                        3221    3.72   -0.06  1.0000
   0   0  24       2     123                                                           8    2.37   -0.12  1.0000
   0   0  26    3183     156                                                        3582   -1.89   -0.04  1.0000
   0   0  28     138     115                                                          50   -2.60   -0.27  1.0000
   0   0  30     310     235                                                         395   -1.25    0.05  1.0000
   0   1 -30       2     140                                                          -5    0.11    0.85  1.0000
   0   1 -29     308     118                                                         388    0.10   -1.18  1.0000
   0   1 -28      46     113                                                          61   -0.16   -0.56  1.0000
   0   1 -27     914     130                                                         831    0.04   -0.77  1.0000
   0   1 -26    2384     136                                                        2035   -0.17    2.05  1.0000
   0   1 -25    4291     165                                                        4516    0.06   -0.93  1.0000
   0   1 -24      57     106                                                          22    0.02   -1.59  1.0000
   0   1 -23     899     116                                                         980    0.02    0.73  1.0000
   0   1 -22       1      70                                                         -71   -0.14    0.49  1.0000
   0   1 -21     815      83                                                         184    0.03    8.25  1.0000
   0   1 -20    1651     103                                                        1862    0.03    1.39  1.0000
   0   1 -19     817      83                                                         203   -0.09    7.90  1.0000
   0   1 -18    3495     145                                                        3650    0.17    0.71  1.0000
   0   1 -17    6106     141                                                        4503   -0.01   -6.08  1.0000
   0   1 -16    3641     126                                                        3433    0.10   -0.96  1.0000
   0   1 -15      26     119                                                        4010    0.13  -37.69  1.0000
   0   1 -14    1905      80                                                         758    0.03    8.87  1.0000
   0   1 -13   26752     657                                                       35577   -0.28  -13.80  1.0000
   0   1 -12     754      71                                                         127   -0.64   21.20  1.0000
   0   1 -11   24790     524                                                       26702    0.05   -3.28  1.0000
   0   1 -10    8267     203                                                        8163    0.12    0.32  1.0000
   0   1  -9    8522     383                                                       18478   -0.23  -24.01  1.0000
   0   1  -8   43355    1037                                                       49878    0.24   -8.32  1.0000
   0   1  -6   87973     948                                                       53661    0.18  -35.76  1.0000
   0   1  -5  175365    4816                                                      150547    0.12  -16.94  1.0000
   0   1  -4   66767      32                                                         148    0.16 -135.57  1.0000
   0   1  -3  208795     493                                                       25887   -0.04  163.00  1.0000
   0   1   3  210119     471                                                       26526   -0.97  162.71  1.0000
   0   1   4   66189      31                                                         122    0.69  135.57  1.0000
   0   1   6   86748     951                                                       53947    0.02   34.28  1.0000
   0   1   8   43152     911                                                       49953    0.10    8.68  1.0000
   0   1   9    8555     357                                                       18187    0.02  -23.33  1.0000
   0   1  10    8219     193                                                        8228   -0.11    0.03  1.0000
   0   1  11   25357     509                                                       26937    0.26   -2.69  1.0000
   0   1  12     829      60                                                         103   -0.39  -21.40  1.0000
   0   1  13   27201     682                                                       36210   -0.32  -13.96  1.0000
   0   1  14    2046      75                                                         799    0.06   -9.34  1.0000
   0   1  15      22     123                                                        4052    0.06  -37.64  1.0000
   0   1  16    3630     121                                                        3437    0.13    0.90  1.0000
   0   1  17    5857     154                                                        4345    0.05   -5.84  1.0000
   0   1  18    3321     134                                                        3483    0.12   -0.76  1.0000
   0   1  19     554      74                                                          87   -0.04    7.82  1.0000
   0   1  20    1775     118                                                        2041   -0.08   -1.68  1.0000
   0   1  21     904      80                                                         237    0.03    8.08  1.0000
   0   1  22      69     105                                                          79   -0.08   -0.33  1.0000
   0   1  23     896     106                                                         991    0.03    0.86  1.0000
   0   1  24      13     109                                                         -35    0.01    2.00  1.0000
   0   1  25    4389     149                                                        4598    0.02   -0.86  1.0000
   0   1  26    2165     149                                                        1886   -0.03   -1.71  1.0000
   0   1  27     858     112                                                         758   -0.02   -0.97  1.0000
   0   1  28       2     124                                                          -5    0.00    0.77  1.0000
   0   1  29     278     102                                                         354   -0.11   -1.18  1.0000
   0   1  30     157     161                                                         120    0.12   -0.87  1.0000
   0   2 -31      16     220                                                         -72   -2.20    0.05  1.0000
   0   2 -30      35     143                                                          72   -1.41   -0.13  1.0000
   0   2 -29     167     116                                                         314   -2.64   -0.04  1.0000
   0   2 -28      11     130                                                         -82    1.82   -0.01  1.0000
   0   2 -27      16     128                                                         -79    2.18    0.05  1.0000
   0   2 -26    1705     114                                                        1705    0.00    0.02  1.0000
   0   2 -25       2      88                                                         -24    0.85    0.05  1.0000
   0   2 -24    2731     170                                                        3943   -5.80    0.07  1.0000
   0   2 -23    1118     100                                                         684    4.01    0.12  1.0000
   0   2 -22     167     112                                                         344   -3.10   -0.21  1.0000
   0   2 -21     808      90                                                        1183    3.28    0.02  1.0000
   0   2 -20       0      98                                                         110   -5.47   -0.08  1.0000
   0   2 -19      17      76                                                         224    5.95    0.00  1.0000
   0   2 -18      11      60                                                         -34    1.80    0.09  1.0000
   0   2 -17    3106     127                                                        3223   -0.57    0.04  1.0000
   0   2 -16    4067     136                                                        3995    0.32   -0.22  1.0000
   0   2 -15       3      57                                                          -2    0.88   -0.19  1.0000
   0   2 -14    1429      75                                                        1464    0.25    0.03  1.0000
   0   2 -13    1808     109                                                        2478    3.99    0.07  1.0000
   0   2 -12    5771     103                                                        2793   12.73   -0.03  1.0000
   0   2 -11   13441     287                                                       14048    1.43   -0.07  1.0000
   0   2 -10      37      76                                                         -21   -3.33   -0.03  1.0000
   0   2  -9   18408     408                                                       19831    2.83   -0.24  1.0000
   0   2  -8   20416      83                                                         453  -66.95   -0.11  1.0000
   0   2  -7       1     236                                                       10206   54.96   -0.05  1.0000
   0   2  -6    7045     366                                                       18745  -29.17    0.17  1.0000
   0   2  -5    5660     270                                                       13102  -21.59   -0.80  1.0000
   0   2  -3   42475     339                                                       17362   40.93    0.28  1.0000
   0   2   1  232426     567                                                       16532  194.65    0.14  1.0000
   0   2   3   45543     337                                                       18254  -43.11   -0.05  1.0000
   0   2   5    5952     281                                                       13587   21.68   -1.09  1.0000
   0   2   6    7415     383                                                       19205  -28.89    0.57  1.0000
   0   2   7       2     211                                                        9930  -54.04   -0.46  1.0000
   0   2   8   21130      64                                                         590  -66.66    0.15  1.0000
   0   2   9   18391     386                                                       19612   -2.44   -0.33  1.0000
   0   2  10       8      57                                                          63   -2.80    0.05  1.0000
   0   2  11   14244     330                                                       14606   -0.83    0.08  1.0000
   0   2  12    6120     114                                                        2980   13.02   -0.02  1.0000
   0   2  13    1724      97                                                        2384   -4.02    0.03  1.0000
   0   2  14    1299      69                                                        1367    0.51   -0.21  1.0000
   0   2  15       5      78                                                        -143   -1.19   -0.06  1.0000
   0   2  16    3941     128                                                        3899    0.19    0.16  1.0000
   0   2  17    3008     111                                                        3112    0.52   -0.05  1.0000
   0   2  18      47      82                                                          97    1.67    0.00  1.0000
   0   2  19       1      78                                                         145   -6.13   -0.04  1.0000
   0   2  20       3      77                                                         136   -5.49    0.13  1.0000
   0   2  21     729     112                                                        1109   -3.47    0.02  1.0000
   0   2  22     204      90                                                         402   -3.17    0.19  1.0000
   0   2  23     993     125                                                         617   -3.67    0.02  1.0000
   0   2  24    2338     146                                                        3603   -6.42    0.06  1.0000
   0   2  25     171     106                                                         162    0.19   -0.07  1.0000
   0   2  26    1832     141                                                        1870    0.24   -0.04  1.0000
   0   2  27      56      91                                                          17   -1.85   -0.01  1.0000
   0   2  28       8     108                                                         -71    1.52    0.01  1.0000
   0   2  29     106      86                                                         223    2.54   -0.13  1.0000
   0   2  30      44     214                                                          85   -1.43    0.13  1.0000
   0   3 -31     134     164                                                         164   -0.03    0.67  1.0000
   0   3 -30     163     169                                                         132   -0.02   -0.71  1.0000
   0   3 -29     168      97                                                         114    0.13   -1.26  1.0000
   0   3 -28     648     118                                                         703   -0.03   -0.58  1.0000
   0   3 -27    3283     146                                                        3181   -0.07    0.49  1.0000
   0   3 -26     179      95                                                         256   -0.09    1.45  1.0000
   0   3 -25     815     122                                                        1041    0.04    2.05  1.0000
   0   3 -24    5782     154                                                        5192    0.09    2.19  1.0000
   0   3 -23    1336     137                                                        1066    0.03    2.15  1.0000
   0   3 -22      26     112                                                          80   -0.11    2.13  1.0000
   0   3 -21       0      88                                                          30   -0.05    3.22  1.0000
   0   3 -20       0     100                                                         -15    0.03   -0.38  1.0000
   0   3 -19     863      87                                                         941    0.09   -0.71  1.0000
   0   3 -18    1619      92                                                        1464   -0.04   -1.09  1.0000
   0   3 -17    1122     156                                                        4839   -0.30   19.86  1.0000
   0   3 -16     360      74                                                         604    0.11    3.08  1.0000
   0   3 -15       9      97                                                        1884    0.16   25.52  1.0000
   0   3 -14    1733     117                                                        2443   -0.03   -4.29  1.0000
   0   3 -13    4850     173                                                        7225   -0.20    8.46  1.0000
   0   3 -12   24695     408                                                       18737   -0.17  -11.16  1.0000
   0   3 -11     183      74                                                         185    0.01    0.04  1.0000
   0   3 -10    9281     384                                                       17679    0.24  -20.16  1.0000
   0   3  -9   21568     308                                                       14193    0.04  -15.27  1.0000
   0   3  -8    2161      84                                                        1084    0.43    7.47  1.0000
   0   3  -7   23849    1165                                                       65766   -0.38   56.17  1.0000
   0   3  -6  162965    2161                                                      130524    0.09   23.35  1.0000
   0   3  -5   19387     373                                                       20097   -0.10   -1.39  1.0000
   0   3  -4   56453     941                                                       53378   -0.19    3.61  1.0000
   0   3  -3   34344     218                                                       10523   -0.91  -45.62  1.0000
   0   3  -2   33221      34                                                         384    0.36   89.57  1.0000
   0   3  -1   42509     328                                                       18240   -0.06   39.16  1.0000
   0   3   1   42683     340                                                       18319   -0.42   39.23  1.0000
   0   3   2   33132      23                                                         346   -0.03  -89.98  1.0000
   0   3   3   33117     229                                                       10971   -6.70  -45.87  1.0000
   0   3   4   58909     995                                                       55923   -0.20   -3.43  1.0000
   0   3   5   20590     408                                                       21004   -0.54   -0.79  1.0000
   0   3   7   25168    1195                                                       68367    0.20   56.62  1.0000
   0   3   8    2131      65                                                        1203    0.21   -6.32  1.0000
   0   3   9   21394     307                                                       14524   -0.06  -14.18  1.0000
   0   3  10    9265     340                                                       17569    0.07   19.98  1.0000
   0   3  11     155      61                                                         176    0.00    0.44  1.0000
   0   3  12   24305     380                                                       18543    0.09   10.86  1.0000
   0   3  13    4805     194                                                        7083   -0.27    8.17  1.0000
   0   3  14    1900     102                                                        2628   -0.14    4.23  1.0000
   0   3  15      12      88                                                        1817    0.03   25.37  1.0000
   0   3  16     419      79                                                         668    0.18   -2.96  1.0000
   0   3  17    1180     147                                                        4887   -0.04   19.57  1.0000
   0   3  18    1561      98                                                        1392    0.05    1.21  1.0000
   0   3  19     773      79                                                         890   -0.10   -1.12  1.0000
   0   3  20     105      80                                                         121    0.10    0.42  1.0000
   0   3  21      29     103                                                         110    0.12    2.79  1.0000
   0   3  22      13      64                                                          -8    0.04   -1.97  1.0000
   0   3  23    1156     109                                                         929   -0.14    1.94  1.0000
   0   3  24    5684     188                                                        5181    0.00   -1.88  1.0000
   0   3  25     607     114                                                         806   -0.12    2.07  1.0000
   0   3  26     298     127                                                         383   -0.02   -1.28  1.0000
   0   3  27    3295     129                                                        3126   -0.06    0.82  1.0000
   0   3  28     657     117                                                         726   -0.01    0.72  1.0000
   0   3  29       5     112                                                          -1   -0.07   -1.24  1.0000
   0   4 -30     484     272                                                         383    1.34    0.00  1.0000
   0   4 -29       8     122                                                        -108   -1.60    0.00  1.0000
   0   4 -28      51     119                                                          97   -1.49    0.05  1.0000
   0   4 -27     129      85                                                          95    0.88   -0.02  1.0000
   0   4 -26      30     132                                                        -123    3.00    0.03  1.0000
   0   4 -25      14      96                                                          53    1.95   -0.20  1.0000
   0   4 -24     151     124                                                         447    4.87   -0.03  1.0000
   0   4 -23      18     116                                                         123    3.76   -0.01  1.0000
   0   4 -22    1192      80                                                         411    7.84    0.02  1.0000
   0   4 -21      41     108                                                           7   -4.97    0.05  1.0000
   0   4 -20    1571     122                                                        2387    5.08    0.12  1.0000
   0   4 -19    3673     130                                                        3847    0.78   -0.03  1.0000
   0   4 -18      17      92                                                         179   -5.08    0.23  1.0000
   0   4 -17    3016     111                                                        2227    4.25   -0.06  1.0000
   0   4 -16    1379      84                                                        1288   -0.69   -0.18  1.0000
   0   4 -15    7874     222                                                        9114    3.71   -0.22  1.0000
   0   4 -14   21690     520                                                       26617   -8.74    0.13  1.0000
   0   4 -13    1385      76                                                        1522   -0.99    0.14  1.0000
   0   4 -12   36423     500                                                       27375   13.98    0.07  1.0000
   0   4 -11    2302      80                                                         333  -16.37   -0.18  1.0000
   0   4 -10    6432     255                                                       11387   14.60   -0.14  1.0000
   0   4  -9    1168     117                                                        3335  -12.98    0.12  1.0000
   0   4  -8   14307     278                                                       12799   -3.57    0.07  1.0000
   0   4  -7   40722    1232                                                       67726   32.18    0.10  1.0000
   0   4  -6    7847    1396                                                       80801  107.74   -0.14  1.0000
   0   4  -5   15378     441                                                       23627  -16.35   -0.03  1.0000
   0   4  -4    7225      87                                                        2983  -76.87   -0.06  1.0000
   0   4  -3   51056    1032                                                       59654  -10.07    0.23  1.0000
   0   4  -2   25857      46                                                         538   75.77    0.17  1.0000
   0   4  -1   72635     686                                                       38758  -40.00    0.46  1.0000
   0   4   1   69108     672                                                       36845   39.06   -0.11  1.0000
   0   4   2   26208      37                                                         592   75.74    0.17  1.0000
   0   4   3   52003    1225                                                       61286   10.75    0.12  1.0000
   0   4   4    6463      97                                                        3342  -76.09    0.13  1.0000
   0   4   5   16101     463                                                       24339   16.03   -0.54  1.0000
   0   4   6    7797    1423                                                       80976  108.06   -0.81  1.0000
   0   4   7   42209    1221                                                       69855  -32.40   -0.31  1.0000
   0   4   8   14661     267                                                       13145   -3.54    0.14  1.0000
   0   4   9    1261     103                                                        3528   13.15   -0.12  1.0000
   0   4  10    6578     252                                                       11680   14.85   -0.16  1.0000
   0   4  11    2358      63                                                         342   16.55    0.03  1.0000
   0   4  12   37938     538                                                       28526   14.25    0.12  1.0000
   0   4  13    1568      82                                                        1705    0.93    0.08  1.0000
   0   4  14   22337     540                                                       27503   -9.02   -0.13  1.0000
   0   4  15    8146     215                                                        9322   -3.47    0.01  1.0000
   0   4  16    1509      77                                                        1430   -0.57    0.15  1.0000
   0   4  17    3142      94                                                        2293   -4.50   -0.11  1.0000
   0   4  18      55      76                                                         263   -4.86   -0.07  1.0000
   0   4  19    3495     157                                                        3714   -1.00   -0.02  1.0000
   0   4  20    1522     131                                                        2347    5.20   -0.08  1.0000
   0   4  21      17      67                                                          26    5.06    0.06  1.0000
   0   4  22     979     114                                                         301    7.67    0.06  1.0000
   0   4  23      28     110                                                         133   -3.42   -0.04  1.0000
   0   4  24     231      93                                                         588    4.98   -0.04  1.0000
   0   4  25      18     118                                                          79   -2.55   -0.02  1.0000
   0   4  26       3     114                                                          16    3.13   -0.07  1.0000
   0   4  27       1      70                                                         -36   -0.55   -0.03  1.0000
   0   4  28      90     121                                                         136   -1.19    0.07  1.0000
   0   4  29       9     144                                                         -17    1.66   -0.03  1.0000
   0   5 -31       1     239                                                           2   -0.03   -0.33  1.0000
   0   5 -30     543     277                                                         603    0.01   -0.69  1.0000
   0   5 -29     827     186                                                        1058    0.09   -2.07  1.0000
   0   5 -28     816      90                                                         590    0.06   -2.35  1.0000
   0   5 -27       9     129                                                        -138   -0.01   -1.67  1.0000
   0   5 -26    1458     110                                                        1610   -0.08   -1.07  1.0000
   0   5 -25      73     105                                                         126   -0.05   -1.46  1.0000
   0   5 -24    1654     130                                                        1368    0.03   -2.03  1.0000
   0   5 -23      24      84                                                           4    0.07    1.58  1.0000
   0   5 -22    5977     177                                                        6202    0.04   -0.80  1.0000
   0   5 -21    1566     131                                                        1821   -0.11   -1.71  1.0000
   0   5 -20    1373      91                                                        1149    0.03   -1.74  1.0000
   0   5 -19    1655      97                                                        1480    0.04   -1.22  1.0000
   0   5 -18    4726     162                                                        5115   -0.07   -1.53  1.0000
   0   5 -17      18      68                                                          53   -0.94    3.24  1.0000
   0   5 -16     983      86                                                         285   -0.23   -7.97  1.0000
   0   5 -15    9632     247                                                       10410    0.05   -2.14  1.0000
   0   5 -14   29554     794                                                       45196    0.05  -22.40  1.0000
   0   5 -13       1      56                                                         161    0.03    7.43  1.0000
   0   5 -12    7038     147                                                        5807   -0.18   -4.23  1.0000
   0   5 -11     986      63                                                         745   -0.01    2.26  1.0000
   0   5 -10    4380     246                                                       10583   -0.10  -20.20  1.0000
   0   5  -9       1      59                                                         333    0.46    9.84  1.0000
   0   5  -8    4545     515                                                       26431   -0.10  -52.39  1.0000
   0   5  -7   11315     375                                                       18600   -0.20  -16.52  1.0000
   0   5  -6   23416     316                                                       14708   -0.36  -17.48  1.0000
   0   5  -5     927      74                                                         575    0.21  -29.97  1.0000
   0   5  -4   20042     365                                                       18205   -0.10    3.66  1.0000
   0   5  -3      10      57                                                        1268    0.22   17.85  1.0000
   0   5  -2   40044     172                                                        8044   -0.01   60.80  1.0000
   0   5  -1     949      50                                                         815    0.10    1.24  1.0000
   0   5   1    1087      46                                                         852    0.73    2.09  1.0000
   0   5   2   39739     181                                                        8178    0.75  -59.97  1.0000
   0   5   3       1      51                                                        1247   -0.40   18.92  1.0000
   0   5   4   20660     367                                                       18752   -1.15   -3.75  1.0000
   0   5   5     823      51                                                         621    0.78  -29.50  1.0000
   0   5   6   24048     296                                                       15394    0.36   17.07  1.0000
   0   5   7   11108     361                                                       18551   -0.13  -16.96  1.0000
   0   5   8    4941     518                                                       27511    0.13   52.62  1.0000
   0   5   9       0      54                                                         292   -0.03    9.41  1.0000
   0   5  10    4539     237                                                       10969   -0.04   20.57  1.0000
   0   5  11     997      61                                                         758    0.37    2.23  1.0000
   0   5  12    7334     164                                                        6079    0.12    4.22  1.0000
   0   5  13      14      74                                                         292   -0.21    7.32  1.0000
   0   5  14   31334     858                                                       47395    0.04   22.40  1.0000
   0   5  15    9808     239                                                       10698   -0.07   -2.42  1.0000
   0   5  16     999      64                                                         305   -0.03    7.78  1.0000
   0   5  17      41      69                                                         -25    0.70    3.45  1.0000
   0   5  18    4676     159                                                        5086   -0.20    1.62  1.0000
   0   5  19    1350      87                                                        1200   -0.08   -1.16  1.0000
   0   5  20    1387     111                                                        1187    0.06    1.54  1.0000
   0   5  21    1662     125                                                        1920    0.14   -1.68  1.0000
   0   5  22    5826     175                                                        6113    0.06    1.02  1.0000
   0   5  23     157     102                                                          97   -0.02    1.48  1.0000
   0   5  24    1765     126                                                        1477   -0.08    1.97  1.0000
   0   5  25      40     103                                                          78   -0.03   -1.38  1.0000
   0   5  26    1540     132                                                        1726   -0.01    1.27  1.0000
   0   5  27     212     119                                                         148    0.07   -1.32  1.0000
   0   5  28     793     106                                                         578    0.03    2.27  1.0000
   0   5  29     801     271                                                        1051   -0.07   -2.27  1.0000
   0   5  30     451     204                                                         500   -0.03    0.62  1.0000
   0   5  31     271     225                                                         289   -0.02   -0.30  1.0000
   0   6 -31      58     214                                                         106    1.47   -0.04  1.0000
   0   6 -30       9     251                                                        -145    1.69    0.00  1.0000
   0   6 -29     422     195                                                         361    0.85   -0.03  1.0000
   0   6 -28     533     123                                                         563    0.35    0.06  1.0000
   0   6 -27      48      98                                                          12   -1.90    0.04  1.0000
   0   6 -26     576     111                                                         280    4.00    0.04  1.0000
   0   6 -25     123     120                                                         317   -3.69   -0.04  1.0000
   0   6 -24     410      91                                                         218    3.03   -0.04  1.0000
   0   6 -23     558     129                                                        1066   -4.98    0.06  1.0000
   0   6 -22    1419     139                                                        1808   -2.67    0.20  1.0000
   0   6 -21     217      96                                                         105   -2.47    0.04  1.0000
   0   6 -20    1714     103                                                        1763   -0.32   -0.02  1.0000
   0   6 -19     105     104                                                          31    2.57    0.07  1.0000
   0   6 -18      91      83                                                         283    4.01    0.05  1.0000
   0   6 -17     978     101                                                        1038    0.52    0.11  1.0000
   0   6 -16    2569     134                                                        3124    2.87    0.04  1.0000
   0   6 -15    3922     100                                                        2218   -8.55   -0.15  1.0000
   0   6 -14      67      82                                                        1008  -12.98   -0.35  1.0000
   0   6 -13    6315     122                                                        3829   -9.68    0.11  1.0000
   0   6 -12   17750     392                                                       20848   -6.14    0.18  1.0000
   0   6 -11      16      78                                                          64   -2.23    0.13  1.0000
   0   6 -10    2354      88                                                        1720   -3.88   -0.09  1.0000
   0   6  -9       3      52                                                           7    0.47   -0.07  1.0000
   0   6  -8   21670     781                                                       41381  -30.95    0.54  1.0000
   0   6  -7   76860    1646                                                       95770  -17.75    0.16  1.0000
   0   6  -6    1302      86                                                        2060    5.12   -0.13  1.0000
   0   6  -5    5403      71                                                         767  -25.22    0.13  1.0000
   0   6  -4   81143    1636                                                       96037   13.79   -0.05  1.0000
   0   6  -3    2388      82                                                        1104  -45.20   -0.01  1.0000
   0   6  -2   18900      83                                                        2539   47.95   -0.01  1.0000
   0   6  -1   10074    1047                                                       60063   79.68    0.00  1.0000
   0   6   0    9097     518                                                       28610  -40.62    0.20  1.0000
   0   6   1   10310    1057                                                       60455  -79.47   -0.64  1.0000
   0   6   2   19506      83                                                        2688   48.35   -0.24  1.0000
   0   6   3    2489      54                                                         982   44.72    0.07  1.0000
   0   6   4   80902    1817                                                       95410   13.46   -0.03  1.0000
   0   6   5    5445      53                                                         780   25.26    0.40  1.0000
   0   6   6    1426      71                                                        2212    5.10   -0.15  1.0000
   0   6   7   79863    1675                                                       98772   17.44   -0.28  1.0000
   0   6   8   23272     802                                                       43354  -30.65    0.24  1.0000
   0   6   9      16      50                                                          26   -0.58    0.27  1.0000
   0   6  10    2372      75                                                        1761   -3.71   -0.18  1.0000
   0   6  11       8      53                                                          46    2.20   -0.26  1.0000
   0   6  12   18160     413                                                       21202   -5.97    0.08  1.0000
   0   6  13    6003     119                                                        3570    9.77   -0.23  1.0000
   0   6  14      90      77                                                        1074  -12.83    0.13  1.0000
   0   6  15    3999      94                                                        2280    8.53   -0.19  1.0000
   0   6  16    2572     117                                                        3176    3.11    0.07  1.0000
   0   6  17     928      88                                                        1009   -0.72    0.05  1.0000
   0   6  18     165      86                                                         395    3.87    0.03  1.0000
   0   6  19     218      84                                                          93   -2.82    0.01  1.0000
   0   6  20    1498     100                                                        1535   -0.26    0.04  1.0000
   0   6  21      19     104                                                          -3    2.42   -0.09  1.0000
   0   6  22    1299     115                                                        1663   -2.61    0.01  1.0000
   0   6  23     496     114                                                         967    4.86    0.09  1.0000
   0   6  24     354      99                                                         180    2.97   -0.01  1.0000
   0   6  25      88     104                                                         257    3.65   -0.05  1.0000
   0   6  26     588      99                                                         294    3.91    0.00  1.0000
   0   6  27      70     102                                                          25    1.85    0.02  1.0000
   0   6  28     612     109                                                         638    0.29   -0.02  1.0000
   0   6  29     331     164                                                         280   -0.81    0.06  1.0000
   0   6  30      44     202                                                          13    1.69   -0.02  1.0000
   0   7 -31       8     208                                                          -2   -0.01   -1.55  1.0000
   0   7 -30     951     334                                                        1102    0.00    1.30  1.0000
   0   7 -29      72     224                                                         142    0.13    1.90  1.0000
   0   7 -28     738      95                                                         820    0.03   -0.81  1.0000
   0   7 -27      35     121                                                          18    0.12    0.91  1.0000
   0   7 -26     908     132                                                         981   -0.02    0.66  1.0000
   0   7 -25     109      83                                                         189   -0.05   -1.82  1.0000
   0   7 -24     759     114                                                         473    0.05    3.20  1.0000
   0   7 -23    1574     136                                                        1641    0.00   -0.46  1.0000
   0   7 -22    1451      99                                                         955   -0.01    3.96  1.0000
   0   7 -21    1257     108                                                        1021    0.03    1.92  1.0000
   0   7 -20    1565     118                                                        1108   -0.06    3.45  1.0000
   0   7 -19     681      87                                                         688    0.20   -0.07  1.0000
   0   7 -18     719     103                                                         641    0.27   -0.83  1.0000
   0   7 -17    2790     111                                                        1712   -0.05   -6.30  1.0000
   0   7 -16     483      91                                                         696   -0.15    2.42  1.0000
   0   7 -15    1874      93                                                        1918    0.02   -0.28  1.0000
   0   7 -14     428      67                                                         524    0.10    1.21  1.0000
   0   7 -13    1732     105                                                        2460   -0.15    4.39  1.0000
   0   7 -12    9106     150                                                        5472   -0.23   11.81  1.0000
   0   7 -11    9115     158                                                        5769   -0.18  -10.75  1.0000
   0   7 -10    1451      75                                                        1181    0.04   -2.05  1.0000
   0   7  -9      20      74                                                         164    0.17   -4.58  1.0000
   0   7  -8     329      57                                                          59    0.09   -5.75  1.0000
   0   7  -7   19021     298                                                       14461   -0.03   -9.72  1.0000
   0   7  -6     623      56                                                          32   -0.07   10.62  1.0000
   0   7  -5    7717     346                                                       15774   -0.19   20.79  1.0000
   0   7  -4   89337    3581                                                      187222    0.00  -73.67  1.0000
   0   7  -3   87842    1536                                                       87709   -0.33    0.12  1.0000
   0   7  -2   33917     855                                                       48057   -0.02   19.30  1.0000
   0   7  -1   14072     230                                                       11464   -0.23   -6.36  1.0000
   0   7   1   14425     234                                                       11756   -0.48   -6.43  1.0000
   0   7   2   34382     848                                                       47465    0.34  -17.86  1.0000
   0   7   3   88765    1530                                                       88468    0.21    0.27  1.0000
   0   7   4   82886    5752                                                      177607   -0.25   73.52  1.0000
   0   7   5    7887     324                                                       15911   -0.08   20.55  1.0000
   0   7   6     396      51                                                          -4    0.11  -10.96  1.0000
   0   7   7   19706     296                                                       14948    0.11   -9.98  1.0000
   0   7   8     333      46                                                          76   -0.11    5.25  1.0000
   0   7   9      33      50                                                         188   -0.61   -4.34  1.0000
   0   7  10    1460      67                                                        1205   -0.06    1.93  1.0000
   0   7  11    9185     150                                                        5783   -0.27  -10.90  1.0000
   0   7  12    9208     143                                                        5466    0.22  -12.13  1.0000
   0   7  13    1594      87                                                        2332   -0.30    4.61  1.0000
   0   7  14     449      65                                                         552    0.08   -1.27  1.0000
   0   7  15    1848      89                                                        1918   -0.07   -0.45  1.0000
   0   7  16     454      78                                                         681   -0.08   -2.64  1.0000
   0   7  17    3036     107                                                        1931    0.22   -6.15  1.0000
   0   7  18     885      94                                                         789    0.09    0.91  1.0000
   0   7  19     794     101                                                         777   -0.11    0.17  1.0000
   0   7  20    1333      99                                                         896   -0.07   -3.62  1.0000
   0   7  21    1366     119                                                        1111   -0.03    2.00  1.0000
   0   7  22    1147     105                                                         723    0.11   -3.84  1.0000
   0   7  23    1734     126                                                        1812    0.02   -0.51  1.0000
   0   7  24     922     110                                                         584   -0.09   -3.41  1.0000
   0   7  25     187     117                                                         289    0.02   -1.83  1.0000
   0   7  26    1001     121                                                        1076    0.02   -0.64  1.0000
   0   7  27     157     116                                                         113   -0.09    1.04  1.0000
   0   7  28     582     125                                                         667    0.10    0.94  1.0000
   0   7  29      75     226                                                         145   -0.07    1.85  1.0000
   0   7  30     732     218                                                         863   -0.03   -1.28  1.0000
   0   8 -31     186     243                                                         123    1.39    0.02  1.0000
   0   8 -30     143     230                                                         202    1.23    0.03  1.0000
   0   8 -29      35     188                                                         110    2.52   -0.03  1.0000
   0   8 -28      90     221                                                          18    2.89    0.04  1.0000
   0   8 -27     351     115                                                         276   -1.17    0.07  1.0000
   0   8 -26     878      92                                                         400   -5.31    0.04  1.0000
   0   8 -25      93     120                                                          76   -0.51   -0.09  1.0000
   0   8 -24       2     107                                                         -36   -0.84   -0.03  1.0000
   0   8 -23      28      99                                                          62    1.44    0.00  1.0000
   0   8 -22     432      99                                                         395   -0.51    0.11  1.0000
   0   8 -21    1007     121                                                         534   -4.75    0.18  1.0000
   0   8 -20      56     111                                                         -65   -4.13    0.01  1.0000
   0   8 -19     879     110                                                         434   -4.85   -0.04  1.0000
   0   8 -18       5     104                                                         289   -8.11    0.07  1.0000
   0   8 -17    1179     101                                                        1860   -4.84    0.08  1.0000
   0   8 -16     361      75                                                         309   -0.78    0.17  1.0000
   0   8 -15    2256     104                                                        1710   -3.38    0.00  1.0000
   0   8 -14    3144     113                                                        2203    5.03   -0.27  1.0000
   0   8 -13    3217     155                                                        5066   -7.96    0.01  1.0000
   0   8 -12    2973     112                                                        2872   -0.51    0.14  1.0000
   0   8 -11    1165     124                                                        4044  -16.22    0.18  1.0000
   0   8 -10    3979     125                                                        3388    2.69   -0.12  1.0000
   0   8  -9     877      60                                                         246  -24.79   -1.57  1.0000
   0   8  -8     656      72                                                         -26  -14.10    0.07  1.0000
   0   8  -7    2605      60                                                          99  -22.64    0.24  1.0000
   0   8  -6      19      68                                                         705  -15.85   -0.95  1.0000
   0   8  -5    7398      52                                                         172  -40.14    0.04  1.0000
   0   8  -4   65823     888                                                       51778   15.97   -0.02  1.0000
   0   8  -3   50452    1321                                                       76921  -29.03    0.08  1.0000
   0   8  -2   13389      80                                                        1514  -85.13   -0.01  1.0000
   0   8  -1   14340     628                                                       34231   35.94   -0.17  1.0000
   0   8   0   11422     119                                                        3955   24.24    0.62  1.0000
   0   8   1   14690     611                                                       34243  -35.15   -0.16  1.0000
   0   8   2   13636      67                                                        1397  -84.87   -0.31  1.0000
   0   8   3   52987    1384                                                       79848   28.84   -0.04  1.0000
   0   8   4   69067     935                                                       54756   15.86   -0.14  1.0000
   0   8   5    7005      53                                                         115   40.18    0.14  1.0000
   0   8   6      13      54                                                         636  -15.73    0.33  1.0000
   0   8   7    2503      48                                                          97   22.13    0.26  1.0000
   0   8   8     676      47                                                         -71  -14.32   -0.01  1.0000
   0   8   9     838      50                                                         255   24.56    1.61  1.0000
   0   8  10    4034     112                                                        3409    2.82   -0.17  1.0000
   0   8  11    1197     125                                                        4108   16.24   -0.07  1.0000
   0   8  12    2959      98                                                        2839   -0.61   -0.08  1.0000
   0   8  13    3316     139                                                        5025    7.32   -0.04  1.0000
   0   8  14    3217      96                                                        2263    5.04    0.05  1.0000
   0   8  15    2249      92                                                        1730    3.21    0.14  1.0000
   0   8  16     297      75                                                         243   -0.90   -0.10  1.0000
   0   8  17    1511     106                                                        2247    4.70    0.09  1.0000
   0   8  18       2      89                                                         185   -8.20    0.04  1.0000
   0   8  19    1136      97                                                         616    4.89    0.01  1.0000
   0   8  20      10      97                                                          20   -4.19    0.11  1.0000
   0   8  21    1383     113                                                         784    5.06   -0.06  1.0000
   0   8  22     639     119                                                         602   -0.41    0.05  1.0000
   0   8  23      52     109                                                          96   -1.44    0.05  1.0000
   0   8  24       4     109                                                         -57   -1.11   -0.03  1.0000
   0   8  25     277     104                                                         244    0.56   -0.09  1.0000
   0   8  26    1126     104                                                         572   -5.31   -0.02  1.0000
   0   8  27     456      96                                                         357    1.35    0.03  1.0000
   0   8  28     724     201                                                         476    2.81    0.01  1.0000
   0   8  29      51     205                                                         133   -2.43    0.08  1.0000
   0   9 -30     148     148                                                         190   -0.03   -0.88  1.0000
   0   9 -29     117     236                                                         139   -0.04    0.54  1.0000
   0   9 -28     212     247                                                         447    0.03    3.63  1.0000
   0   9 -27     263      96                                                         418    0.02   -2.32  1.0000
   0   9 -26     136     115                                                         139   -0.09    0.06  1.0000
   0   9 -25       1     122                                                         -12    0.05   -0.61  1.0000
   0   9 -24    1287     111                                                        1215    0.00   -0.56  1.0000
   0   9 -23     296      93                                                         336   -0.08   -0.63  1.0000
   0   9 -22     375     106                                                         561   -0.03   -2.37  1.0000
   0   9 -21    8633     252                                                        8472   -0.02   -0.48  1.0000
   0   9 -20   10317     289                                                        9875   -0.10    1.21  1.0000
   0   9 -19     429      88                                                         232   -0.03    3.02  1.0000
   0   9 -18     262      87                                                         229    0.02   -0.59  1.0000
   0   9 -17    2579     127                                                        1589    0.10    6.01  1.0000
   0   9 -16    1581     115                                                        1700   -0.12   -0.81  1.0000
   0   9 -15    2672     129                                                        3250   -0.20   -2.93  1.0000
   0   9 -14      14      69                                                          98   -0.18   -7.50  1.0000
   0   9 -13     766      68                                                         253   -0.02    6.48  1.0000
   0   9 -12    2557     114                                                        3477   -0.09   -4.62  1.0000
   0   9 -11    8779     297                                                       14675   -0.14   15.11  1.0000
   0   9 -10    5451     208                                                        8766   -0.31  -10.90  1.0000
   0   9  -9    6718     300                                                       15191    0.13   22.73  1.0000
   0   9  -8   27019     479                                                       24799    0.00   -3.80  1.0000
   0   9  -7    2348     116                                                        3388    0.16    5.37  1.0000
   0   9  -6    1808      52                                                         154    0.02   16.58  1.0000
   0   9  -5    9933     156                                                        5395    0.11   14.43  1.0000
   0   9  -4     339     127                                                        4676    0.09  -27.51  1.0000
   0   9  -3   66631     942                                                       50291    0.15  -18.65  1.0000
   0   9  -2    9607     553                                                       28942    0.21   39.70  1.0000
   0   9  -1   11967     156                                                        5962   -0.08  -17.72  1.0000
   0   9   1   12493     154                                                        6230   -0.20  -18.08  1.0000
   0   9   2   10072     644                                                       29564   -0.08  -39.41  1.0000
   0   9   3   65932     886                                                       49165   -0.14  -19.29  1.0000
   0   9   4     310     135                                                        4640   -0.18   27.81  1.0000
   0   9   5    9535     131                                                        5187    0.22   14.11  1.0000
   0   9   6    1931      52                                                         189   -0.19  -16.63  1.0000
   0   9   7    2532     105                                                        3576    0.22    5.22  1.0000
   0   9   8   27984     515                                                       25800    0.10    3.67  1.0000
   0   9   9    6613     321                                                       15163   -0.19   23.03  1.0000
   0   9  10    5383     220                                                        8778   -0.27   11.19  1.0000
   0   9  11    9429     310                                                       15266    0.11   14.56  1.0000
   0   9  12    2737     112                                                        3574   -0.15    4.11  1.0000
   0   9  13     828      63                                                         300   -0.24    6.31  1.0000
   0   9  14       9      67                                                         109   -0.02    7.40  1.0000
   0   9  15    2819     118                                                        3397    0.10   -2.86  1.0000
   0   9  16    1498      94                                                        1643   -0.03    1.01  1.0000
   0   9  17    2496     100                                                        1447    0.15    6.56  1.0000
   0   9  18     188      87                                                         152   -0.01    0.77  1.0000
   0   9  19     391      89                                                         204    0.15    3.02  1.0000
   0   9  20    9917     219                                                        9454   -0.12   -1.30  1.0000
   0   9  21    8107     196                                                        7915    0.00   -0.59  1.0000
   0   9  22     309     100                                                         487    0.12    2.47  1.0000
   0   9  23     219      96                                                         261   -0.01   -0.75  1.0000
   0   9  24    1404     117                                                        1319   -0.05    0.64  1.0000
   0   9  25      36      99                                                          25   -0.06   -0.55  1.0000
   0   9  26      32     110                                                          34   -0.09   -0.10  1.0000
   0   9  27     159     100                                                         286    0.01   -2.38  1.0000
   0  10 -30      83     241                                                         192   -2.61    0.13  1.0000
   0  10 -29      56     155                                                          60   -0.14   -0.16  1.0000
   0  10 -28     455     199                                                         377   -1.06    0.06  1.0000
   0  10 -27     676     100                                                         533    1.60    0.02  1.0000
   0  10 -26     192     117                                                         192    0.00    0.00  1.0000
   0  10 -25      35      99                                                          31   -0.19   -0.15  1.0000
   0  10 -24    5151     146                                                        4789    1.41   -0.07  1.0000
   0  10 -23     161     117                                                         161   -0.06   -0.35  1.0000
   0  10 -22     264     125                                                         224    0.70    0.06  1.0000
   0  10 -21     986     119                                                         938   -0.43    0.00  1.0000
   0  10 -20       1     109                                                         -49   -0.66    0.01  1.0000
   0  10 -19     170      95                                                         126    1.00   -0.08  1.0000
   0  10 -18      39      90                                                         313    6.29   -0.01  1.0000
   0  10 -17     908      84                                                        1194   -2.43   -0.01  1.0000
   0  10 -16    1883     100                                                        1513    2.47   -0.03  1.0000
   0  10 -15    1069     113                                                        1696    4.67    0.06  1.0000
   0  10 -14    1096      95                                                         977   -1.02   -0.12  1.0000
   0  10 -13       0      81                                                           4    1.27   -0.14  1.0000
   0  10 -12     943      80                                                         747    1.86   -0.29  1.0000
   0  10 -11    2662     132                                                        4142    7.02    0.64  1.0000
   0  10 -10    5806     202                                                        8348    8.35    0.57  1.0000
   0  10  -9   26579     443                                                       21215    9.57   -0.85  1.0000
   0  10  -8     493     108                                                        3029   18.08   -0.25  1.0000
   0  10  -7    8186     208                                                        8724   -1.61    0.43  1.0000
   0  10  -6    7590     105                                                        2658   19.58   -0.03  1.0000
   0  10  -5      55      62                                                         894  -12.37   -0.13  1.0000
   0  10  -4    5800     357                                                       16771   29.37   -0.04  1.0000
   0  10  -3    5308     168                                                        6465    4.16    0.10  1.0000
   0  10  -2   24770     696                                                       36974  -19.22    0.11  1.0000
   0  10  -1      87      54                                                         510   -7.30    0.13  1.0000
   0  10   0   21378    1591                                                       92092   86.58   -0.02  1.0000
   0  10   1      92      57                                                         591    8.10    0.11  1.0000
   0  10   2   25359     678                                                       37251  -18.59    0.32  1.0000
   0  10   3    5170     143                                                        6480   -4.73    0.15  1.0000
   0  10   4    5596     326                                                       16404   29.33    0.22  1.0000
   0  10   5      86      58                                                         992   12.24   -0.10  1.0000
   0  10   6    7722      91                                                        2757   19.47    0.05  1.0000
   0  10   7    8519     200                                                        9022    1.48   -0.35  1.0000
   0  10   8     529     100                                                        3101   18.00   -0.06  1.0000
   0  10   9   27033     419                                                       21395   -9.99    0.16  1.0000
   0  10  10    5820     245                                                        8395    8.44    0.20  1.0000
   0  10  11    2617     117                                                        4070   -6.96   -0.35  1.0000
   0  10  12     819      66                                                         625    1.99    0.01  1.0000
   0  10  13       2      61                                                           3   -1.70    0.00  1.0000
   0  10  14    1061      75                                                         945   -1.01    0.08  1.0000
   0  10  15    1001      95                                                        1644   -4.91    0.00  1.0000
   0  10  16    1964      93                                                        1581    2.51   -0.14  1.0000
   0  10  17     891      96                                                        1160    2.31   -0.14  1.0000
   0  10  18       9      87                                                         212    6.39    0.10  1.0000
   0  10  19     120      86                                                          81   -1.08    0.02  1.0000
   0  10  20       1     101                                                         -49   -0.65   -0.05  1.0000
   0  10  21    1024     108                                                         992    0.28   -0.05  1.0000
   0  10  22     523     107                                                         467    0.70   -0.05  1.0000
   0  10  23       0      97                                                         -28    0.14   -0.15  1.0000
   0  10  24    4759     181                                                        4403    1.45    0.03  1.0000
   0  10  25     162     116                                                         157    0.11    0.08  1.0000
   0  10  26      83     107                                                          82    0.03   -0.02  1.0000
   0  10  27     620     145                                                         492   -1.50   -0.06  1.0000
   0  11 -29     153     253                                                         194   -0.03   -0.86  1.0000
   0  11 -27      30     216                                                          41    0.01   -0.51  1.0000
   0  11 -26      30      93                                                          71   -0.01   -1.62  1.0000
   0  11 -25       0      95                                                          81    0.01   -4.67  1.0000
   0  11 -24       4     122                                                         -57   -0.02   -1.05  1.0000
   0  11 -23       2     113                                                         -14    0.01    0.72  1.0000
   0  11 -22    4830     170                                                        4766    0.04    0.26  1.0000
   0  11 -21     542     109                                                         699    0.09    1.74  1.0000
   0  11 -20       1      99                                                          12   -0.02   -1.29  1.0000
   0  11 -19    4147     142                                                        4628    0.05   -2.00  1.0000
   0  11 -18    2444     101                                                        1300   -0.03    7.37  1.0000
   0  11 -17    2437     133                                                        3554    0.14   -5.65  1.0000
   0  11 -16     112      86                                                         413    0.12    5.35  1.0000
   0  11 -15    1716     127                                                        3789   -0.07  -11.08  1.0000
   0  11 -14      22      76                                                         -28    0.08   -2.59  1.0000
   0  11 -13    3231      98                                                        2082    0.25   -6.18  1.0000
   0  11 -12    3655      95                                                        1997    0.18    8.68  1.0000
   0  11 -11     995     103                                                        2115    0.03   -7.95  1.0000
   0  11 -10      75      62                                                         197   -0.03   -2.95  1.0000
   0  11  -9   46526     630                                                       34630   -0.22  -16.30  1.0000
   0  11  -8    3388      89                                                        1951   -0.21    7.73  1.0000
   0  11  -7    3065     200                                                        8775    0.22  -21.09  1.0000
   0  11  -6   30821     732                                                       36578    0.01    8.64  1.0000
   0  11  -5   25381     427                                                       21941    0.02   -6.16  1.0000
   0  11  -4     199      69                                                         889    0.00   -8.64  1.0000
   0  11  -3    4628      92                                                        2210    0.34  -11.58  1.0000
   0  11  -2    1239     116                                                        2723    0.06    9.35  1.0000
   0  11  -1    1989      63                                                         819    0.19   -8.80  1.0000
   0  11   1    2168      64                                                         897    0.27   -9.15  1.0000
   0  11   2    1192      89                                                        2672    0.21   -9.45  1.0000
   0  11   3    4445      82                                                        2068    0.46  -11.67  1.0000
   0  11   4     180      60                                                         861    0.01    8.77  1.0000
   0  11   5   25669     441                                                       22092   -0.06   -6.38  1.0000
   0  11   6   31842     722                                                       37531   -0.14   -8.42  1.0000
   0  11   7    3143     207                                                        8999   -0.28  -21.36  1.0000
   0  11   8    3084      72                                                        1694   -0.08   -7.92  1.0000
   0  11   9   47056     656                                                       34978   -0.25  -16.46  1.0000
   0  11  10     115      59                                                         250   -0.37    2.79  1.0000
   0  11  11     857      85                                                        1934    0.09   -8.09  1.0000
   0  11  12    3709      90                                                        1999   -0.05   -8.92  1.0000
   0  11  13    3174      89                                                        2039   -0.07   -6.16  1.0000
   0  11  14      11      66                                                           1    0.00    2.37  1.0000
   0  11  15    1721     129                                                        3878   -0.13  -11.44  1.0000
   0  11  16      97      82                                                         384    0.01   -5.38  1.0000
   0  11  17    2355     121                                                        3441   -0.03   -5.58  1.0000
   0  11  18    2270      99                                                        1202   -0.10   -7.14  1.0000
   0  11  19    3786     138                                                        4214   -0.04   -1.87  1.0000
   0  11  20       0     106                                                           8    0.07    1.39  1.0000
   0  11  21     432     104                                                         593   -0.04    1.96  1.0000
   0  11  22    4374     164                                                        4303   -0.01   -0.30  1.0000
   0  11  23       1     114                                                          -3    0.08    0.61  1.0000
   0  11  24      80     110                                                         110   -0.05    0.86  1.0000
   0  11  25       0     111                                                          70   -0.05   -4.55  1.0000
   0  11  26       9     110                                                          36   -0.05    1.66  1.0000
   0  12 -26      12     158                                                         -71    1.94    0.01  1.0000
   0  12 -25       0      98                                                         -83   -0.09    0.02  1.0000
   0  12 -24     381     100                                                         285   -1.46    0.03  1.0000
   0  12 -23      16      77                                                         -80   -2.17   -0.14  1.0000
   0  12 -22      72     103                                                         271    4.40    0.04  1.0000
   0  12 -21     232      89                                                         293    1.04    0.12  1.0000
   0  12 -20    3618     149                                                        3969   -1.57   -0.02  1.0000
   0  12 -19    1478     103                                                        1069   -3.16    0.01  1.0000
   0  12 -18    2279      98                                                        1904   -2.26   -0.06  1.0000
   0  12 -17    1267      87                                                         869    3.37    0.04  1.0000
   0  12 -16    6265     151                                                        4881   -5.11    0.09  1.0000
   0  12 -15    1517     116                                                        1769   -1.71   -0.04  1.0000
   0  12 -14     754     107                                                        1649   -7.24    0.11  1.0000
   0  12 -13    1863     104                                                        2346   -2.90   -0.12  1.0000
   0  12 -12    1989      84                                                        1301   -4.70   -0.18  1.0000
   0  12 -11    7469     174                                                        6179    4.30    0.07  1.0000
   0  12 -10     379      65                                                          68  -11.44    1.97  1.0000
   0  12  -9     140      70                                                         834   -9.38    0.05  1.0000
   0  12  -8    8630     279                                                       12499  -10.41   -0.26  1.0000
   0  12  -7   11847     258                                                       10624   -3.18   -0.01  1.0000
   0  12  -6   10117     158                                                        6816   -9.92    0.27  1.0000
   0  12  -5    3809     228                                                        8484   16.73    0.03  1.0000
   0  12  -4    6867     213                                                        9568   -8.23   -0.12  1.0000
   0  12  -3     347      59                                                          13   12.25    0.01  1.0000
   0  12  -2     674      63                                                          91   -9.04   -0.01  1.0000
   0  12  -1    1597     150                                                        5708  -19.60    0.12  1.0000
   0  12   0       0      58                                                         105    5.71    0.12  1.0000
   0  12   1    1545     160                                                        5602   19.57   -0.26  1.0000
   0  12   2     696      57                                                          99   -9.05    0.19  1.0000
   0  12   3     136      51                                                          92  -11.58    0.35  1.0000
   0  12   4    7943     254                                                       10770   -8.07    0.19  1.0000
   0  12   5    3462     193                                                        7984  -16.80   -0.16  1.0000
   0  12   6    9791     165                                                        6696   -9.43    0.28  1.0000
   0  12   7   11363     231                                                       10228    3.01   -0.07  1.0000
   0  12   8    7859     264                                                       11596  -10.48   -0.03  1.0000
   0  12   9     108      61                                                         728    9.14   -0.04  1.0000
   0  12  10     229      56                                                          57  -12.48   -0.02  1.0000
   0  12  11    7471     172                                                        6152   -4.41   -0.11  1.0000
   0  12  12    1982      74                                                        1298   -4.67   -0.22  1.0000
   0  12  13    1832     101                                                        2306    2.88   -0.03  1.0000
   0  12  14     683      89                                                        1541   -7.22    0.12  1.0000
   0  12  15    1430      89                                                        1690    1.81    0.05  1.0000
   0  12  16    6076     146                                                        4712   -5.12   -0.08  1.0000
   0  12  17    1170      91                                                         795   -3.31   -0.11  1.0000
   0  12  18    2203     108                                                        1803   -2.46   -0.04  1.0000
   0  12  19    1153     105                                                         808    3.05    0.04  1.0000
   0  12  20    3206     146                                                        3545   -1.61   -0.01  1.0000
   0  12  21     158      99                                                         205   -0.97   -0.07  1.0000
   0  12  22      37     110                                                         202    4.50   -0.03  1.0000
   0  12  23       1     101                                                           8    1.92   -0.14  1.0000
   0  12  24     269     107                                                         199   -1.27   -0.06  1.0000
   0  12  25      86      99                                                          92    0.17    0.04  1.0000
   0  12  26      12     139                                                         -49    1.92    0.03  1.0000
   0  13 -25      11      92                                                          30    0.09   -1.22  1.0000
   0  13 -24     262      91                                                         384   -0.03   -1.88  1.0000
   0  13 -23      38      91                                                         204    0.06    4.49  1.0000
   0  13 -22    2600     162                                                        2779    0.00    0.95  1.0000
   0  13 -21    1090     128                                                        1248    0.02    1.28  1.0000
   0  13 -20    3749     149                                                        4259   -0.06   -2.22  1.0000
   0  13 -19     192     116                                                          91   -0.12    2.38  1.0000
   0  13 -18    1858     133                                                        1952   -0.07   -0.59  1.0000
   0  13 -17     244      74                                                         129    0.07    2.36  1.0000
   0  13 -16     695      73                                                         339    0.07   -4.38  1.0000
   0  13 -15      74     110                                                         622    0.03    8.99  1.0000
   0  13 -14     171      97                                                         152    0.18   -0.41  1.0000
   0  13 -13      46      82                                                         106   -0.22    9.40  1.0000
   0  13 -12    1688     100                                                        1592   -0.08   -0.66  1.0000
   0  13 -11    2918     144                                                        4075    0.19    5.41  1.0000
   0  13 -10    1265      87                                                         223   -0.07  -11.36  1.0000
   0  13  -9   12021     350                                                       17438   -0.23  -12.34  1.0000
   0  13  -8     430      68                                                         297   -0.62    2.00  1.0000
   0  13  -7     907      74                                                         446   -0.19    4.96  1.0000
   0  13  -6   52849     886                                                       49650   -0.23   -3.89  1.0000
   0  13  -5     163      79                                                         305    0.16    2.59  1.0000
   0  13  -4    4716      95                                                        1828   -0.05  -14.27  1.0000
   0  13  -3      44      57                                                          41    0.08    7.19  1.0000
   0  13  -2    9295     176                                                        6154   -0.33   -9.89  1.0000
   0  13  -1     330      43                                                         -51    0.06   10.00  1.0000
   0  13   1     309      59                                                         -14   -0.14    9.68  1.0000
   0  13   2    9326     176                                                        6255    0.25    9.63  1.0000
   0  13   3     180      53                                                         -18    0.15    7.39  1.0000
   0  13   4    4818     103                                                        1895    0.31   14.25  1.0000
   0  13   5     169      57                                                         328   -0.13    2.82  1.0000
   0  13   6   53580     906                                                       50115   -0.15    4.19  1.0000
   0  13   7     860      60                                                         425   -0.01    4.79  1.0000
   0  13   8     333      62                                                         229    0.23   -1.72  1.0000
   0  13   9   12137     365                                                       17608    0.02  -12.40  1.0000
   0  13  10    1170      59                                                         183   -0.07   11.38  1.0000
   0  13  11    2687     128                                                        3746    0.07    5.16  1.0000
   0  13  12    1646      80                                                        1564    0.02    0.56  1.0000
   0  13  13      18      66                                                         152    0.07    9.14  1.0000
   0  13  14     130      74                                                         113   -0.12    0.42  1.0000
   0  13  15      51      82                                                         543    0.00    8.90  1.0000
   0  13  16     640      85                                                         300   -0.06    4.39  1.0000
   0  13  17     136      89                                                          53   -0.09    2.41  1.0000
   0  13  18    1499     107                                                        1620    0.01    0.84  1.0000
   0  13  19     360      94                                                         218   -0.17    2.33  1.0000
   0  13  20    3350     148                                                        3800    0.06    2.07  1.0000
   0  13  21    1065     114                                                        1228    0.01    1.32  1.0000
   0  13  22    2186     134                                                        2366    0.00   -1.04  1.0000
   0  13  23      60     103                                                         258   -0.03    4.58  1.0000
   0  13  24     290     108                                                         415    0.02    1.84  1.0000
   0  13  25      26      98                                                          51   -0.12   -1.14  1.0000
   0  14 -24      11     107                                                         -39    1.83    0.08  1.0000
   0  14 -23     245      99                                                         187   -1.10   -0.15  1.0000
   0  14 -22      43     114                                                         -39    3.62   -0.02  1.0000
   0  14 -21      32     113                                                           1    2.56    0.04  1.0000
   0  14 -20     514     117                                                         236    4.03    0.09  1.0000
   0  14 -19     845     110                                                         867    0.21   -0.03  1.0000
   0  14 -18     950     115                                                         909    0.37   -0.12  1.0000
   0  14 -17    2246     153                                                        2771    2.89    0.03  1.0000
   0  14 -16    1765     110                                                        1950    1.18    0.06  1.0000
   0  14 -15    3665     124                                                        3991    1.45   -0.14  1.0000
   0  14 -14     471      94                                                         293    2.52    0.19  1.0000
   0  14 -13    1956     110                                                        1896   -0.38    0.17  1.0000
   0  14 -12     385      98                                                         792    4.69   -0.25  1.0000
   0  14 -11    1518      99                                                        1937    2.78   -0.27  1.0000
   0  14 -10    2210     119                                                        2694    2.69    0.28  1.0000
   0  14  -9     623      83                                                         381   -3.00    0.30  1.0000
   0  14  -8    1505      90                                                        1305   -1.48   -0.49  1.0000
   0  14  -7   25484     471                                                       23515    3.46   -0.22  1.0000
   0  14  -6    1687      88                                                         902    6.08   -0.17  1.0000
   0  14  -5    2844     135                                                        4581    7.90   -0.29  1.0000
   0  14  -4     298      75                                                         489    2.66   -0.33  1.0000
   0  14  -3     221      72                                                         184    0.72   -0.10  1.0000
   0  14  -2    3113     189                                                        6563   13.88   -0.55  1.0000
   0  14  -1    4145     124                                                        3499   -2.88    0.19  1.0000
   0  14   0   16694     385                                                       17878   -2.48    0.43  1.0000
   0  14   1    4118     124                                                        3445    3.02   -0.28  1.0000
   0  14   2    3103     178                                                        6623   14.14   -0.50  1.0000
   0  14   3     293      56                                                         274   -0.31    0.05  1.0000
   0  14   4     300      63                                                         445    2.08   -0.11  1.0000
   0  14   5    2451     128                                                        4087   -7.94   -0.07  1.0000
   0  14   6    1396      70                                                         715    5.85    0.01  1.0000
   0  14   7   26458     485                                                       24256   -3.81   -0.17  1.0000
   0  14   8    1308      73                                                        1142   -1.31   -0.01  1.0000
   0  14   9     476      59                                                         262    3.10    0.20  1.0000
   0  14  10    2073      99                                                        2506    2.49    0.25  1.0000
   0  14  11    1483      93                                                        1949   -3.10    0.01  1.0000
   0  14  12     326      67                                                         713    4.77   -0.12  1.0000
   0  14  13    1999      95                                                        1913    0.54   -0.03  1.0000
   0  14  14     474      73                                                         296    2.51    0.12  1.0000
   0  14  15    3579     129                                                        3895   -1.42    0.05  1.0000
   0  14  16    1684     109                                                        1871    1.22    0.05  1.0000
   0  14  17    2132     115                                                        2631   -2.82   -0.07  1.0000
   0  14  18     989     105                                                         933    0.50   -0.16  1.0000
   0  14  19     868      98                                                         901   -0.31   -0.01  1.0000
   0  14  20     445     108                                                         195    3.93    0.02  1.0000
   0  14  21      22      92                                                         -85   -2.59   -0.06  1.0000
   0  14  22      41      99                                                         -42    3.53    0.00  1.0000
   0  14  23     171     101                                                         123    1.09   -0.01  1.0000
   0  14  24      88     104                                                         167    1.96   -0.10  1.0000
   0  15 -23     226     120                                                         128   -0.01   -2.05  1.0000
   0  15 -22     413     101                                                         554   -0.04   -1.76  1.0000
   0  15 -21      97     125                                                          28    0.12   -2.50  1.0000
   0  15 -20     191     120                                                         263    0.02   -1.31  1.0000
   0  15 -19     926     113                                                        1116   -0.07   -1.64  1.0000
   0  15 -18      80     112                                                         284   -0.05    4.37  1.0000
   0  15 -17      96     121                                                         146    0.01    1.26  1.0000
   0  15 -16    1331     104                                                        1544    0.01   -1.55  1.0000
   0  15 -15     118      92                                                          46    0.08   -2.24  1.0000
   0  15 -14    1893      97                                                        1028    0.06   -6.31  1.0000
   0  15 -13    1301     101                                                        1628   -0.02   -2.36  1.0000
   0  15 -12      12      77                                                         -43   -0.13   -1.91  1.0000
   0  15 -11    1010      77                                                         392    0.26    6.61  1.0000
   0  15 -10     797      98                                                        1132   -0.13   -2.98  1.0000
   0  15  -9     807      98                                                        1476   -0.01   -5.52  1.0000
   0  15  -8    1535      95                                                        1122    0.06   -3.13  1.0000
   0  15  -7   19831     406                                                       18837   -0.14   -1.97  1.0000
   0  15  -6    8159     157                                                        5272    0.34    9.76  1.0000
   0  15  -5    5617     210                                                        9128    0.17  -11.34  1.0000
   0  15  -4       8      89                                                          72    1.16    2.91  1.0000
   0  15  -3    2964     121                                                        3575    0.23    2.95  1.0000
   0  15  -2    3215     111                                                        3162    0.33    0.26  1.0000
   0  15  -1      24      68                                                         596   -0.09  -10.77  1.0000
   0  15   1      27      66                                                         650   -0.04  -11.18  1.0000
   0  15   2    3260     118                                                        3225    0.18   -0.17  1.0000
   0  15   3    2952     110                                                        3536    0.22    2.82  1.0000
   0  15   4       5      58                                                          10    0.90   -2.84  1.0000
   0  15   5    5585     223                                                        9037    0.14  -11.20  1.0000
   0  15   6    7844     148                                                        5028    0.00   -9.72  1.0000
   0  15   7   20480     410                                                       19364   -0.25   -2.18  1.0000
   0  15   8    1281      63                                                         890    0.14    3.28  1.0000
   0  15   9     770      82                                                        1379    0.10   -5.17  1.0000
   0  15  10     775      72                                                        1137    0.18    3.23  1.0000
   0  15  11     879      63                                                         310    0.01    6.63  1.0000
   0  15  12       0      63                                                          22    0.04    2.35  1.0000
   0  15  13    1331      96                                                        1651   -0.07   -2.28  1.0000
   0  15  14    2086      98                                                        1184    0.01    6.20  1.0000
   0  15  15      17      87                                                         -33   -0.02   -2.28  1.0000
   0  15  16    1277     107                                                        1436    0.00    1.19  1.0000
   0  15  17      93      91                                                         138   -0.04    1.16  1.0000
   0  15  18     211      96                                                         492    0.05   -4.22  1.0000
   0  15  19     770      96                                                         951    0.01   -1.70  1.0000
   0  15  20     193      90                                                         260    0.02    1.23  1.0000
   0  15  21     285      99                                                         155    0.05   -2.43  1.0000
   0  15  22     355     105                                                         487   -0.03    1.78  1.0000
   0  15  23     285      95                                                         172   -0.02   -2.08  1.0000
   0  16 -24     112     170                                                         243    2.72    0.48  1.0000
   0  16 -23      75     130                                                         123   -1.35   -0.04  1.0000
   0  16 -22      11      89                                                          47    1.99    0.06  1.0000
   0  16 -21     829      90                                                         790   -0.38   -0.04  1.0000
   0  16 -20      84     104                                                         136    1.38    0.07  1.0000
   0  16 -19    1382     129                                                        1330   -0.39    0.08  1.0000
   0  16 -18      26     101                                                         115    3.08    0.09  1.0000
   0  16 -17    2182     144                                                        2555   -2.11    0.06  1.0000
   0  16 -16     682     108                                                         763    0.83    0.19  1.0000
   0  16 -15    1998     116                                                        2902   -5.05    0.01  1.0000
   0  16 -14     267      86                                                          50   -5.10    0.06  1.0000
   0  16 -13     853      89                                                        1506   -5.28    0.08  1.0000
   0  16 -12     327      99                                                         402   -1.08    0.12  1.0000
   0  16 -11    1439      87                                                        1113    2.51   -0.01  1.0000
   0  16 -10     694      93                                                         421    3.20    0.08  1.0000
   0  16  -9     122      82                                                         210   -1.90    0.30  1.0000
   0  16  -8       7      84                                                         178   -8.78    0.08  1.0000
   0  16  -7    5730     152                                                        4432   -5.02    0.12  1.0000
   0  16  -6    5221     130                                                        3417   -7.60    0.15  1.0000
   0  16  -5     356      64                                                         233   -1.99    0.09  1.0000
   0  16  -4    1751      95                                                        2153    2.51   -0.23  1.0000
   0  16  -3     695      76                                                         477   -2.53   -0.84  1.0000
   0  16  -2    1516     173                                                        5835  -20.62   -0.31  1.0000
   0  16  -1    6808     173                                                        6520    0.97    0.20  1.0000
   0  16   0     182      64                                                         103  -11.66    1.78  1.0000
   0  16   1    6739     197                                                        6576   -0.55    0.28  1.0000
   0  16   2    1569     185                                                        5970  -20.73    0.22  1.0000
   0  16   3     736      64                                                         459    3.15   -0.22  1.0000
   0  16   4    1823      92                                                        2193    2.27   -0.40  1.0000
   0  16   5     258      60                                                         165    1.78   -0.05  1.0000
   0  16   6    4843     121                                                        3066   -7.83    0.26  1.0000
   0  16   7    5726     135                                                        4471    4.85   -0.10  1.0000
   0  16   8      60      57                                                          69   -8.83    0.00  1.0000
   0  16   9     124      62                                                         232    2.26   -0.02  1.0000
   0  16  10     488      65                                                         269    3.13    0.20  1.0000
   0  16  11    1297      80                                                         971   -2.67    0.00  1.0000
   0  16  12     387      68                                                         487   -1.32   -0.06  1.0000
   0  16  13     773      91                                                        1407    5.35   -0.06  1.0000
   0  16  14     253      81                                                          51   -4.83    0.03  1.0000
   0  16  15    1707     108                                                        2561    5.12   -0.02  1.0000
   0  16  16     686      95                                                         762    0.77    0.08  1.0000
   0  16  17    1743     112                                                        2073    2.08    0.07  1.0000
   0  16  18      11      90                                                          81    3.16   -0.10  1.0000
   0  16  19    1163      99                                                        1143    0.16    0.00  1.0000
   0  16  20      59     100                                                         101    1.29    0.02  1.0000
   0  16  21     716      98                                                         707    0.09    0.06  1.0000
   0  16  22       4     101                                                          32    2.07    0.02  1.0000
   0  16  23     101     139                                                         159    1.42   -0.05  1.0000
   0  17 -23       6     105                                                          33   -0.03    1.83  1.0000
   0  17 -22     227      87                                                         249   -0.02    0.40  1.0000
   0  17 -21     314      89                                                         393   -0.09    1.16  1.0000
   0  17 -20     226      92                                                         192    0.05    0.65  1.0000
   0  17 -19     200      93                                                         302   -0.01   -1.78  1.0000
   0  17 -18      57      98                                                         115    0.03   -1.76  1.0000
   0  17 -17    1555     108                                                        1360    0.02    1.41  1.0000
   0  17 -16     453     114                                                         404   -0.07   -0.66  1.0000
   0  17 -15    2129     122                                                        2038    0.00    0.55  1.0000
   0  17 -14     200      96                                                         143   -0.06    1.21  1.0000
   0  17 -13     389      81                                                         290   -0.07   -1.48  1.0000
   0  17 -12     427      98                                                         234   -0.20   -2.96  1.0000
   0  17 -11    1503      90                                                        1128    0.08   -2.86  1.0000
   0  17 -10     996     103                                                        1094    0.04    0.83  1.0000
   0  17  -9     533      92                                                         427   -0.12   -1.33  1.0000
   0  17  -8     467      84                                                         305   -0.07   -2.28  1.0000
   0  17  -7    1974      92                                                        1045   -0.14    6.66  1.0000
   0  17  -6     898     145                                                        3730   -0.42   17.12  1.0000
   0  17  -5      18      67                                                          -9   -0.29   -2.30  1.0000
   0  17  -4     584      87                                                        1021    0.20   -4.29  1.0000
   0  17  -3    3062      88                                                        1309   -0.06   10.55  1.0000
   0  17  -2      98      64                                                          -1   -0.02    5.46  1.0000
   0  17  -1      21      61                                                          27    0.54    5.32  1.0000
   0  17   1       5      69                                                          55    0.20    5.36  1.0000
   0  17   2     110      59                                                         -39    0.01   -5.76  1.0000
   0  17   3    3059      81                                                        1302   -0.29   10.59  1.0000
   0  17   4     523      70                                                         931    0.11    4.21  1.0000
   0  17   5      24      68                                                         -29    0.02   -2.69  1.0000
   0  17   6     921     132                                                        3831   -0.12  -17.37  1.0000
   0  17   7    1778      91                                                         918   -0.24    6.54  1.0000
   0  17   8     439      68                                                         277   -0.09    2.37  1.0000
   0  17   9     648      68                                                         524   -0.10   -1.42  1.0000
   0  17  10     983      81                                                        1109    0.05   -1.07  1.0000
   0  17  11    1509      80                                                        1145    0.04   -2.76  1.0000
   0  17  12     625      77                                                         395    0.02    2.82  1.0000
   0  17  13     486      81                                                         393   -0.07   -1.22  1.0000
   0  17  14     320      84                                                         265    0.06   -0.88  1.0000
   0  17  15    2126     113                                                        2032   -0.07    0.57  1.0000
   0  17  16     555      92                                                         493   -0.01    0.75  1.0000
   0  17  17    1387     101                                                        1247    0.04    1.06  1.0000
   0  17  18      90      97                                                         164    0.06    1.82  1.0000
   0  17  19     247      93                                                         354    0.04   -1.71  1.0000
   0  17  20     271      93                                                         220    0.01   -0.90  1.0000
   0  17  21      83     100                                                         128    0.11    1.21  1.0000
   0  17  22     118      94                                                         138   -0.04   -0.47  1.0000
   0  18 -22      58     149                                                          87   -0.93   -0.08  1.0000
   0  18 -21     253      85                                                         221    0.58   -0.09  1.0000
   0  18 -20      55      91                                                          21   -1.55    0.03  1.0000
   0  18 -19      17      83                                                         -50   -2.27    0.00  1.0000
   0  18 -18       9      92                                                          15    0.48    0.00  1.0000
   0  18 -17     136     103                                                         118    0.45   -0.03  1.0000
   0  18 -16     261     111                                                          93    3.59    0.00  1.0000
   0  18 -15      15      91                                                         120    3.90    0.06  1.0000
   0  18 -14     873     108                                                         772    0.97   -0.01  1.0000
   0  18 -13     474      86                                                          85   -6.92    0.03  1.0000
   0  18 -12       0      86                                                          -8   -0.26   -0.10  1.0000
   0  18 -11    1196     101                                                        1262    0.52    0.12  1.0000
   0  18 -10     143      93                                                         237    1.90   -0.05  1.0000
   0  18  -9     649      98                                                         750   -1.05    0.04  1.0000
   0  18  -8     744      87                                                         254    6.24   -0.05  1.0000
   0  18  -7    1704     106                                                        1421   -1.98    0.11  1.0000
   0  18  -6     182     101                                                         431    4.00   -0.12  1.0000
   0  18  -5     213      74                                                         -26   -8.03   -0.01  1.0000
   0  18  -4       9      82                                                         173    8.87    0.21  1.0000
   0  18  -3      17      67                                                          50   -0.07   -1.82  1.0000
   0  18  -2     355      72                                                          96   -5.55   -1.91  1.0000
   0  18  -1    2283      83                                                        1530   -4.77    0.04  1.0000
   0  18   0     617      70                                                        -121   13.68    0.17  1.0000
   0  18   1    2248      86                                                        1533    4.55    0.12  1.0000
   0  18   2     319      67                                                          92   -4.59    0.61  1.0000
   0  18   3      49      68                                                          83    1.15   -0.04  1.0000
   0  18   4      82      65                                                          38    8.36   -0.40  1.0000
   0  18   5     227      66                                                         -16    8.29   -0.06  1.0000
   0  18   6     109      72                                                         308    3.92    0.08  1.0000
   0  18   7    1587      82                                                        1341    1.77    0.05  1.0000
   0  18   8     756      85                                                         258    6.30   -0.02  1.0000
   0  18   9     459      73                                                         542    1.02   -0.14  1.0000
   0  18  10     268      74                                                         408    2.10    0.12  1.0000
   0  18  11    1296      90                                                        1357   -0.46    0.06  1.0000
   0  18  12      14      97                                                          17   -0.22   -0.04  1.0000
   0  18  13     158      87                                                         -13    6.91   -0.14  1.0000
   0  18  14     777      88                                                         681    0.98   -0.06  1.0000
   0  18  15      69      91                                                         233   -3.82   -0.08  1.0000
   0  18  16      45      82                                                         -18    3.70   -0.05  1.0000
   0  18  17      81      83                                                          67   -0.43    0.00  1.0000
   0  18  18      52      86                                                          60    0.31    0.03  1.0000
   0  18  19      20      98                                                        -128    2.44    0.00  1.0000
   0  18  20       6      99                                                        -148   -1.32   -0.10  1.0000
   0  18  21       2      95                                                         -66   -0.72    0.18  1.0000
   0  19 -21       7     103                                                         -66   -0.05   -1.41  1.0000
   0  19 -20      71     116                                                          65    0.01    0.21  1.0000
   0  19 -19      24     105                                                         103    0.00   -2.90  1.0000
   0  19 -18    1030     105                                                        1175   -0.02    1.21  1.0000
   0  19 -17     565     102                                                         500   -0.01   -0.78  1.0000
   0  19 -16      28     121                                                          88   -0.08   -2.28  1.0000
   0  19 -15    1327     108                                                        1374    0.00    0.35  1.0000
   0  19 -14    3166     153                                                        4288    0.11    5.08  1.0000
   0  19 -13       9      92                                                          13   -0.06    3.67  1.0000
   0  19 -12       4     107                                                         -52   -0.02    1.12  1.0000
   0  19 -11     152      82                                                          28    0.00    3.87  1.0000
   0  19 -10    1234     112                                                        1293    0.14   -0.45  1.0000
   0  19  -9     872      95                                                         494    0.09    4.03  1.0000
   0  19  -8     514      94                                                         916   -0.10   -4.18  1.0000
   0  19  -7     176      96                                                         389   -0.12    3.55  1.0000
   0  19  -6     108      79                                                          32   -0.18    2.62  1.0000
   0  19  -5    4219     126                                                        3334   -0.22    3.97  1.0000
   0  19  -4     276      86                                                         940   -0.24   -7.74  1.0000
   0  19  -3     688      75                                                         359   -0.21    4.01  1.0000
   0  19  -2      33      80                                                         -23   -0.11    3.18  1.0000
   0  19  -1     254      81                                                         129   -0.23   -2.53  1.0000
   0  19   1     192      80                                                          83   -0.33   -2.63  1.0000
   0  19   2      67      67                                                           2    0.19   -3.72  1.0000
   0  19   3     727      76                                                         388   -0.20    4.00  1.0000
   0  19   4     170      77                                                         784    0.27    8.24  1.0000
   0  19   5    4145     124                                                        3275    0.00    3.94  1.0000
   0  19   6      15      88                                                         -10    0.02   -2.11  1.0000
   0  19   7     115      71                                                         293    0.09    3.52  1.0000
   0  19   8     402      75                                                         774   -0.01    4.28  1.0000
   0  19   9     981     103                                                         570    0.05    4.10  1.0000
   0  19  10    1245      86                                                        1325    0.11    0.61  1.0000
   0  19  11      49      81                                                         -47   -0.06    3.85  1.0000
   0  19  12      19      87                                                          38   -0.06   -1.00  1.0000
   0  19  13       1      84                                                          39    0.05    3.87  1.0000
   0  19  14    3036     145                                                        4106   -0.15   -4.94  1.0000
   0  19  15    1248      93                                                        1326    0.08    0.60  1.0000
   0  19  16       3      88                                                          32   -0.22    2.22  1.0000
   0  19  17     577      93                                                         486   -0.13   -1.09  1.0000
   0  19  18     523     106                                                         650   -0.03   -1.44  1.0000
   0  19  19      27      98                                                         102   -0.07   -2.72  1.0000
   0  19  20     264     111                                                         249    0.05   -0.26  1.0000
   0  19  21       7     168                                                         -28    0.02   -1.50  1.0000
   0  20 -20      68      98                                                          48    0.77    0.11  1.0000
   0  20 -19      66     108                                                          69   -0.12    0.04  1.0000
   0  20 -18      73      86                                                          88   -0.45    0.00  1.0000
   0  20 -17      73      84                                                         106   -0.98   -0.01  1.0000
   0  20 -16     210     117                                                         335    2.10   -0.08  1.0000
   0  20 -15     302     113                                                         752    5.53    0.06  1.0000
   0  20 -14      29      87                                                          74    1.77   -0.04  1.0000
   0  20 -13     712     106                                                         763    0.52   -0.06  1.0000
   0  20 -12     331     117                                                         427    1.36   -0.16  1.0000
   0  20 -11     498     103                                                         711    2.40    0.02  1.0000
   0  20 -10     318     108                                                         375   -0.84   -0.10  1.0000
   0  20  -9     380      89                                                         405   -0.35    0.04  1.0000
   0  20  -8     212     117                                                         590   -5.36   -0.15  1.0000
   0  20  -7    3072     129                                                        2310    4.06    0.11  1.0000
   0  20  -6       2      92                                                          25    3.55    0.09  1.0000
   0  20  -5    1633     105                                                        1722    0.60    0.13  1.0000
   0  20  -4    2893     145                                                        3518    3.04    0.32  1.0000
   0  20  -3     260      82                                                         231   -0.51   -0.04  1.0000
   0  20  -2     132      83                                                         195    7.36   -3.05  1.0000
   0  20  -1     425      93                                                         688   -3.10   -0.10  1.0000
   0  20   0      72      84                                                         213    3.37    0.08  1.0000
   0  20   1     594      89                                                         891    3.01   -0.16  1.0000
   0  20   2     144      81                                                          42   10.16    0.50  1.0000
   0  20   3     112      80                                                         104    0.21    0.05  1.0000
   0  20   4    2793     135                                                        3420    3.10   -0.40  1.0000
   0  20   5    1534     103                                                        1628   -0.65    0.02  1.0000
   0  20   6      39      74                                                         -60    3.46   -0.09  1.0000
   0  20   7    2770     112                                                        2084   -3.84    0.14  1.0000
   0  20   8     148      83                                                         468   -5.20    0.03  1.0000
   0  20   9     293      77                                                         309    0.25   -0.05  1.0000
   0  20  10     276      97                                                         315   -0.62    0.14  1.0000
   0  20  11     608      88                                                         821   -2.20    0.11  1.0000
   0  20  12     353      84                                                         452    1.35    0.13  1.0000
   0  20  13     557      89                                                         598   -0.47    0.04  1.0000
   0  20  14      64      80                                                         126    1.77   -0.14  1.0000
   0  20  15     234      91                                                         637   -5.47   -0.02  1.0000
   0  20  16     193      90                                                         305    1.96    0.02  1.0000
   0  20  17      35      92                                                          59    0.99   -0.02  1.0000
   0  20  18       1      75                                                        -140   -0.43   -0.08  1.0000
   0  20  19       0     108                                                         -16    0.13   -0.04  1.0000
   0  20  20      18     139                                                        -155    2.29   -0.48  1.0000
   0  21 -19     285     119                                                         276    0.02    0.15  1.0000
   0  21 -18      96     112                                                         174   -0.05    1.87  1.0000
   0  21 -17      85      82                                                          30   -0.11    2.05  1.0000
   0  21 -16     325     115                                                         332   -0.14    0.11  1.0000
   0  21 -15     377     115                                                         572    0.01   -2.48  1.0000
   0  21 -14    2131     108                                                        2461    0.04   -1.90  1.0000
   0  21 -13    1304     118                                                        1274    0.02    0.23  1.0000
   0  21 -12     326     111                                                          87   -0.01    4.81  1.0000
   0  21 -11     238     105                                                         341   -0.03   -1.67  1.0000
   0  21 -10     904     106                                                         774    0.04    1.24  1.0000
   0  21  -9    1110     148                                                        1685    0.10   -4.26  1.0000
   0  21  -8     294     109                                                         283   -0.17   -0.19  1.0000
   0  21  -7       6     110                                                         -40    0.03   -1.32  1.0000
   0  21  -6     478     109                                                         578   -0.29   -1.20  1.0000
   0  21  -5     179      99                                                         103    0.39   -1.78  1.0000
   0  21  -4      72      92                                                         225    0.04   -3.59  1.0000
   0  21  -3      10      97                                                         135   -0.48   -4.66  1.0000
   0  21  -2     202      91                                                         203   -0.08   -0.02  1.0000
   0  21  -1    1921     115                                                        1961    0.23   -0.25  1.0000
   0  21   1    1889     122                                                        1960    0.39   -0.44  1.0000
   0  21   2     129      89                                                         122    0.21   -0.17  1.0000
   0  21   3       5      87                                                         122   -0.53   -4.82  1.0000
   0  21   4      75      90                                                         229    0.28    3.56  1.0000
   0  21   5     381      89                                                         275    0.10   -1.61  1.0000
   0  21   6     580      84                                                         701    0.10    1.32  1.0000
   0  21   7       5      83                                                        -121    0.11   -1.25  1.0000
   0  21   8     293      84                                                         276    0.00    0.27  1.0000
   0  21   9     911      99                                                        1433    0.06   -4.23  1.0000
   0  21  10    1026      95                                                         888    0.06   -1.23  1.0000
   0  21  11     216      79                                                         316    0.05   -1.70  1.0000
   0  21  12     302      85                                                          76    0.12   -4.77  1.0000
   0  21  13    1182      95                                                        1172    0.03    0.08  1.0000
   0  21  14    1844     114                                                        2123   -0.12    1.73  1.0000
   0  21  15     325      86                                                         481    0.08   -2.15  1.0000
   0  21  16     244      84                                                         266   -0.12   -0.38  1.0000
   0  21  17     122      86                                                          53   -0.02    2.07  1.0000
   0  21  18       2     136                                                          24   -0.06   -1.89  1.0000
   0  21  19     101     106                                                          91   -0.06    0.27  1.0000
   0  22 -23      36      46                                                         -17    3.31    0.02  1.0000
   0  22 -22      33      73                                                          62    1.16    0.04  1.0000
   0  22 -19       9     173                                                         -46   -1.63    0.01  1.0000
   0  22 -18       3     115                                                         -30   -0.92    0.05  1.0000
   0  22 -17     313      93                                                         392    1.16    0.00  1.0000
   0  22 -16     210     107                                                         200    0.18    0.00  1.0000
   0  22 -15     140     107                                                         210    1.47   -0.01  1.0000
   0  22 -14      21      94                                                          14   -0.48    0.15  1.0000
   0  22 -13      68     108                                                          41   -1.03   -0.08  1.0000
   0  22 -12     453     101                                                         220   -3.56    0.11  1.0000
   0  22 -11     838      98                                                         578    2.70    0.03  1.0000
   0  22 -10    1415     150                                                        1492   -0.55    0.12  1.0000
   0  22  -9    2339     151                                                        2898   -3.01   -0.09  1.0000
   0  22  -8    5371     212                                                        6830   -5.15   -0.02  1.0000
   0  22  -7     278      96                                                         339   -0.96    0.10  1.0000
   0  22  -6    1437     117                                                        1110    2.53   -0.07  1.0000
   0  22  -5     186     102                                                         507    4.87   -0.43  1.0000
   0  22  -4     677      91                                                         846   -1.68    0.52  1.0000
   0  22  -3    1592     109                                                        1362    1.65    0.29  1.0000
   0  22  -2    5283     169                                                        5248   -0.14   -0.56  1.0000
   0  22  -1     119     101                                                          97    0.61   -0.37  1.0000
   0  22   0    1001      98                                                        1014   -0.11    0.27  1.0000
   0  22   1       2     100                                                          -7   -0.70   -0.04  1.0000
   0  22   2    5333     169                                                        5334    0.00    0.29  1.0000
   0  22   3    1417     103                                                        1251   -1.25    0.00  1.0000
   0  22   4     631      94                                                         838   -2.11    0.10  1.0000
   0  22   5     209      88                                                         530   -4.71   -0.06  1.0000
   0  22   6    1464      95                                                        1126    2.59    0.02  1.0000
   0  22   7     143      92                                                         197    1.14   -0.07  1.0000
   0  22   8    4680     183                                                        6073   -5.24    0.15  1.0000
   0  22   9    2162     124                                                        2704    3.03   -0.08  1.0000
   0  22  10    1167     100                                                        1235   -0.54   -0.08  1.0000
   0  22  11     682      84                                                         453   -2.66   -0.04  1.0000
   0  22  12      45      73                                                         -27   -3.69    0.08  1.0000
   0  22  13       3     107                                                         -17    0.98    0.13  1.0000
   0  22  14      41      86                                                          35   -0.26   -0.12  1.0000
   0  22  15      65      82                                                         111   -1.35    0.03  1.0000
   0  22  16      48     101                                                          43    0.19    0.02  1.0000
   0  22  17     206      86                                                         265   -1.06   -0.01  1.0000
   0  22  18       4     104                                                        -134   -1.15    0.04  1.0000
   0  23 -18     175     136                                                          96    0.04   -1.90  1.0000
   0  23 -17       5     124                                                         -11   -0.01   -1.21  1.0000
   0  23 -16     121     103                                                         160   -0.04    0.90  1.0000
   0  23 -15     443      92                                                         429   -0.02   -0.19  1.0000
   0  23 -14    1175      99                                                         950    0.03   -1.91  1.0000
   0  23 -13     342     115                                                         300    0.05   -0.65  1.0000
   0  23 -12     144      83                                                          92    0.04    1.33  1.0000
   0  23 -11    1643     155                                                        1748   -0.14   -0.70  1.0000
   0  23 -10     597     134                                                         904   -0.17   -3.11  1.0000
   0  23  -9      43     112                                                           6    0.10   -2.25  1.0000
   0  23  -8      34     101                                                          69   -0.16    1.35  1.0000
   0  23  -7    2175     126                                                        2181   -0.30    0.03  1.0000
   0  23  -6     331     108                                                         275   -0.14    0.89  1.0000
   0  23  -5     174     108                                                         197    0.02    0.47  1.0000
   0  23  -4     103     104                                                         195    0.46   -2.08  1.0000
   0  23  -3     155      99                                                         142   -0.13   -0.31  1.0000
   0  23  -2      91     108                                                         170   -0.04    1.92  1.0000
   0  23  -1     352     103                                                         116    0.07    4.40  1.0000
   0  23   1     344      97                                                         110    0.16    4.44  1.0000
   0  23   2      42      98                                                         107    0.17   -2.12  1.0000
   0  23   3       1      81                                                         -29   -0.41   -0.12  1.0000
   0  23   4       0      92                                                          12   -0.10    2.26  1.0000
   0  23   5     105      94                                                         119   -0.15    0.35  1.0000
   0  23   6     425      87                                                         345   -0.14   -1.12  1.0000
   0  23   7    1867     111                                                        1866   -0.06    0.00  1.0000
   0  23   8     132      88                                                         198    0.00   -1.43  1.0000
   0  23   9      65      81                                                          16    0.04   -2.23  1.0000
   0  23  10     398      87                                                         658    0.04    3.14  1.0000
   0  23  11    1453      99                                                        1515    0.02   -0.45  1.0000
   0  23  12     133      83                                                          84    0.08   -1.30  1.0000
   0  23  13     142      83                                                         110    0.08   -0.78  1.0000
   0  23  14     903      92                                                         711    0.04    1.86  1.0000
   0  23  15     314     116                                                         301    0.06   -0.20  1.0000
   0  23  16       3     170                                                         -66    0.06   -0.97  1.0000
   0  24 -16       7     115                                                         -54    1.45    0.03  1.0000
   0  24 -15      66     141                                                          70    0.14    0.02  1.0000
   0  24 -14      82      94                                                          34    1.78    0.02  1.0000
   0  24 -13       9     125                                                         -88    1.62   -0.01  1.0000
   0  24 -12       8      88                                                          23   -1.09   -0.04  1.0000
   0  24 -11      87     103                                                          59    0.91    0.13  1.0000
   0  24 -10      25      97                                                         -33    2.75    0.03  1.0000
   0  24  -9      81     100                                                          90   -0.28    0.00  1.0000
   0  24  -8     224     108                                                         239   -0.26   -0.19  1.0000
   0  24  -7      28     106                                                          59    1.31    0.06  1.0000
   0  24  -6     808     112                                                         858    0.47    0.01  1.0000
   0  24  -5     237     107                                                         222    0.28   -0.06  1.0000
   0  24  -4     653      98                                                         881    2.26   -0.41  1.0000
   0  24  -3     235      96                                                         199    0.68    0.03  1.0000
   0  24  -2      20      97                                                          59   -1.79   -0.11  1.0000
   0  24  -1     355     106                                                         423   -0.95    0.13  1.0000
   0  24   0    1310     133                                                        1797    3.41    0.15  1.0000
   0  24   1     428     104                                                         480    0.67    0.06  1.0000
   0  24   2      49      91                                                         102   -1.70    0.18  1.0000
   0  24   3       1      92                                                         -32   -0.59   -0.08  1.0000
   0  24   4     507      91                                                         748    2.67   -0.06  1.0000
   0  24   5     210      97                                                         188   -0.43    0.14  1.0000
   0  24   6     604      92                                                         652    0.53   -0.03  1.0000
   0  24   7      13      94                                                          40   -1.47    0.01  1.0000
   0  24   8     239      89                                                         248   -0.17   -0.02  1.0000
   0  24   9       0      76                                                         -28    0.14   -0.07  1.0000
   0  24  10     390      85                                                         223    2.65    0.01  1.0000
   0  24  11     134      80                                                         101   -0.84   -0.14  1.0000
   0  24  12       3      97                                                         -37   -1.02    0.02  1.0000
   0  24  13       8      83                                                          -5   -1.54    0.00  1.0000
   0  24  14      11     100                                                         -27    1.85   -0.04  1.0000
   0  25 -15       2     184                                                         -26   -0.01   -0.69  1.0000
   0  25 -14      14     198                                                        -145   -0.04   -2.06  1.0000
   0  25 -13      31     108                                                          71    0.01   -1.57  1.0000
   0  25 -12     307      94                                                         392    0.03   -1.25  1.0000
   0  25 -11      14     102                                                         -97   -0.01   -2.05  1.0000
   0  25 -10       1      71                                                         -57   -0.05   -0.63  1.0000
   0  25  -9     606     117                                                         610   -0.03    0.04  1.0000
   0  25  -8       2     100                                                         -37   -0.04    0.80  1.0000
   0  25  -7       1     104                                                         -19   -0.14   -0.50  1.0000
   0  25  -6      65     100                                                         145   -0.27   -2.19  1.0000
   0  25  -5     283     101                                                         281    0.09   -0.03  1.0000
   0  25  -4     184     104                                                         234    0.16   -0.95  1.0000
   0  25  -3       8     105                                                          34    0.12   -1.62  1.0000
   0  25  -2     339     112                                                         204    0.17    2.27  1.0000
   0  25  -1     287      95                                                         276   -0.08   -0.18  1.0000
   0  25   1     185      95                                                         184    0.26   -0.03  1.0000
   0  25   2     217     101                                                         109    0.09   -2.36  1.0000
   0  25   3      26      95                                                          66    0.05   -1.67  1.0000
   0  25   4     261      94                                                         311   -0.02    0.81  1.0000
   0  25   5     447      91                                                         436    0.08   -0.15  1.0000
   0  25   6       6      84                                                          41    0.35    2.16  1.0000
   0  25   7     169      86                                                         140    0.01   -0.64  1.0000
   0  25   8       3      92                                                         -20    0.04   -0.92  1.0000
   0  25   9     744      94                                                         736    0.03   -0.09  1.0000
   0  25  10       2      98                                                         -66   -0.02    0.68  1.0000
   0  25  11      10      85                                                          46    0.07   -2.00  1.0000
   0  25  12     255      89                                                         324    0.05    1.12  1.0000
   0  26 -12     322     197                                                         336    0.21   -0.07  1.0000
   0  26 -11      98     131                                                         196   -2.26    0.03  1.0000
   0  26 -10     340     201                                                         535   -2.59    0.00  1.0000
   0  26  -6      23     122                                                         -44   -2.64    0.00  1.0000
   0  26  -5     374     141                                                         442   -0.92    0.14  1.0000
   0  26  -4     241     143                                                         411    2.62   -0.19  1.0000
   0  26  -3      70      97                                                          77   -0.17   -0.26  1.0000
   0  26  -2     461     110                                                         488    0.34    0.25  1.0000
   0  26  -1     208     103                                                         267   -1.06    0.08  1.0000
   0  26   0       1      87                                                         -50   -0.60    0.02  1.0000
   0  26   1     257      97                                                         330    1.17   -0.16  1.0000
   0  26   2     331     112                                                         358    0.40    0.11  1.0000
   0  26   3       0      96                                                          -8    0.00   -0.21  1.0000
   0  26   4     284     173                                                         477    2.75   -0.08  1.0000
   0  26   6      26     151                                                         -57   -2.79   -0.02  1.0000
   0  26   7     128     200                                                         202   -1.59    0.01  1.0000
   0  27  -1       7     132                                                         -15   -0.01    1.45  1.0000
   0  27   2     571     196                                                         755    0.15    1.97  1.0000
   0  27   3     171     209                                                         218    0.14   -0.93  1.0000
   0  27   5      41      43                                                         -18   -0.06    3.51  1.0000
   0  28   4       1      54                                                          16    1.77    0.04  1.0000
   0  28   5       2      43                                                         -19    0.69    0.00  1.0000
   0  28   6      28      50                                                          25   -0.13    0.00  1.0000
   0  29   5       1      41                                                         -14   -0.07   -0.50  1.0000
   0  29   6       0      52                                                          24   -0.02    2.45  1.0000
   0  29   7      13      55                                                           3   -0.03   -2.93  1.0000
   0  29   8       3      41                                                           0    0.00    0.98  1.0000
   1 -29  -8      35      46                                                          10    0.16    1.49  1.0000
   1 -28 -10      29      38                                                          13   -0.94    0.32  1.0000
   1 -28  -9      10      43                                                           8   -0.12   -0.65  1.0000
   1 -28  -8       3      45                                                           4   -2.05   -0.17  1.0000
   1 -28  -7      12      34                                                         -22   -1.47   -1.16  1.0000
   1 -28  -6      13      47                                                          -4    2.00    0.27  1.0000
   1 -28  -5       5      37                                                          -4    1.17    0.01  1.0000
   1 -27  -8     441     114                                                        1063    2.04    6.07  1.0000
   1 -27  -7      23      43                                                          -3   -2.51   -0.84  1.0000
   1 -27  -6      72      53                                                          25    1.50   -1.33  1.0000
   1 -27  -5       9      39                                                          -4    1.42    0.86  1.0000
   1 -27  -4       7      38                                                         -15    1.12   -0.97  1.0000
   1 -27  -3     190     104                                                         114    2.25   -1.43  1.0000
   1 -27  -2     161     191                                                         147    0.43   -0.12  1.0000
   1 -27  -1     110     124                                                         103   -1.45    0.96  1.0000
   1 -27   0       7     117                                                          -3   -0.03   -1.46  1.0000
   1 -27   1       8     101                                                         -17   -1.33   -0.88  1.0000
   1 -27   2     108      98                                                          95   -0.53   -0.22  1.0000
   1 -26  -9     141     165                                                         198    2.57    0.61  1.0000
   1 -26  -8       9     126                                                           6   -2.55    1.50  1.0000
   1 -26  -7       9      90                                                          62   -2.72   -0.80  1.0000
   1 -26  -6      70      67                                                         115    1.95    0.19  1.0000
   1 -26  -5      15      79                                                         -34    0.98    1.87  1.0000
   1 -26  -4     205      79                                                         165   -0.59    0.63  1.0000
   1 -26  -3       6     178                                                          21   -1.01    1.11  1.0000
   1 -26  -2       7     118                                                         -11   -0.83    1.14  1.0000
   1 -26  -1     210      90                                                         154    1.13    0.17  1.0000
   1 -26   0     366     104                                                         451   -0.21    1.16  1.0000
   1 -26   1       3      95                                                         -18    0.89   -0.16  1.0000
   1 -26   2      55      95                                                          72    0.94    1.17  1.0000
   1 -26   3      68     100                                                         109   -1.01   -1.00  1.0000
   1 -26   4     482     190                                                         420    0.65    0.49  1.0000
   1 -26   5      32     137                                                          18    0.99   -1.54  1.0000
   1 -26   6     283     223                                                         374   -1.98    0.16  1.0000
   1 -26   8      97     171                                                         225    2.38    1.68  1.0000
   1 -26   9      22     148                                                        -186    2.49   -0.59  1.0000
   1 -26  10     198     173                                                         159   -1.87   -0.21  1.0000
   1 -26  11      55     186                                                          71   -0.38   -0.46  1.0000
   1 -25 -13     239      95                                                         244    0.32    0.59  1.0000
   1 -25 -12      96     101                                                         120   -0.03    1.43  1.0000
   1 -25 -11     185      91                                                         157   -0.78   -1.65  1.0000
   1 -25 -10     376      90                                                         291    0.03   -1.34  1.0000
   1 -25  -9       5      74                                                          17    2.82    0.36  1.0000
   1 -25  -8      84      82                                                         196   -2.58    2.34  1.0000
   1 -25  -7       4      83                                                         -33    1.09    0.05  1.0000
   1 -25  -6     153      83                                                         205   -1.24   -0.78  1.0000
   1 -25  -5      63      82                                                          54    0.10    1.57  1.0000
   1 -25  -4     713      98                                                         776   -0.18    2.77  1.0000
   1 -25  -3     308      96                                                         470    0.57   -2.25  1.0000
   1 -25  -2       3      88                                                          47   -1.66   -2.99  1.0000
   1 -25  -1     105      99                                                          57    2.44    2.26  1.0000
   1 -25   0       6      96                                                          37    0.16   -1.97  1.0000
   1 -25   1      45      95                                                           1    2.70   -2.36  1.0000
   1 -25   2      31      96                                                         -61    1.80   -2.46  1.0000
   1 -25   3     253     105                                                         390    0.25    2.23  1.0000
   1 -25   4     861     108                                                         934    0.15    2.90  1.0000
   1 -25   5      96     102                                                          86    0.15   -1.61  1.0000
   1 -25   6     119      97                                                         160    1.18   -0.67  1.0000
   1 -25   7       4      93                                                         -80    1.08    0.07  1.0000
   1 -25   8     154     108                                                         303    2.55    2.38  1.0000
   1 -25   9       5      96                                                          33    2.87   -0.46  1.0000
   1 -25  10     591     115                                                         497    0.21   -1.10  1.0000
   1 -25  11      76      91                                                          55   -0.78    1.65  1.0000
   1 -25  12      94     103                                                         119   -0.03    1.58  1.0000
   1 -25  13     223     185                                                         226    0.28   -0.58  1.0000
   1 -25  14      11     135                                                           8   -1.41    1.07  1.0000
   1 -24 -14      50     122                                                          34   -0.78   -0.61  1.0000
   1 -24 -13      41      96                                                          26    1.25   -0.62  1.0000
   1 -24 -12       7      88                                                          24   -0.34    1.25  1.0000
   1 -24 -11     575      91                                                         514   -0.75    0.08  1.0000
   1 -24 -10     159      78                                                         121    0.97    0.98  1.0000
   1 -24  -9     151      82                                                         232    1.40   -1.62  1.0000
   1 -24  -8       1      59                                                         -37   -0.12    0.64  1.0000
   1 -24  -7     789      97                                                         574   -4.28   -2.00  1.0000
   1 -24  -6     471      88                                                         533   -1.23   -1.63  1.0000
   1 -24  -5     170      89                                                         170    0.92   -0.27  1.0000
   1 -24  -4       4      70                                                         -88    0.22   -1.15  1.0000
   1 -24  -3     225      89                                                         225   -0.81   -0.16  1.0000
   1 -24  -2     236     105                                                         308   -0.90   -1.69  1.0000
   1 -24  -1     143      93                                                         128    0.27   -0.48  1.0000
   1 -24   0      23     110                                                        -169   -0.08   -2.63  1.0000
   1 -24   1      38      96                                                          33   -0.01    0.22  1.0000
   1 -24   2     437     101                                                         539    1.10   -1.10  1.0000
   1 -24   3     262      94                                                         269   -0.59   -0.01  1.0000
   1 -24   4       3      91                                                           6   -0.10   -1.11  1.0000
   1 -24   5     180     107                                                         182    0.91    0.22  1.0000
   1 -24   6     399     111                                                         445    1.10   -1.62  1.0000
   1 -24   7    1054     110                                                         825   -4.47    1.92  1.0000
   1 -24   8     137     100                                                         143    0.14    0.45  1.0000
   1 -24   9     191     106                                                         285    1.51    1.47  1.0000
   1 -24  10      14     108                                                           2   -1.14    1.06  1.0000
   1 -24  11     752      97                                                         669   -0.78   -0.34  1.0000
   1 -24  12      36      97                                                          74    0.60    1.32  1.0000
   1 -24  13      13     102                                                           3    1.26    0.43  1.0000
   1 -24  14     201     135                                                         172    0.72   -0.56  1.0000
   1 -24  15      39     203                                                          45   -0.53    0.19  1.0000
   1 -24  16       3     148                                                          -2   -0.80    0.61  1.0000
   1 -24  17       4     211                                                         -90   -0.98   -0.49  1.0000
   1 -23 -15     530      79                                                         396   -1.57   -1.27  1.0000
   1 -23 -14      30      70                                                         -15    0.63   -2.93  1.0000
   1 -23 -13     151      79                                                         107   -0.58   -0.93  1.0000
   1 -23 -12     120      74                                                          97    1.51    0.22  1.0000
   1 -23 -11     386      81                                                         462   -1.08   -0.07  1.0000
   1 -23 -10      83      80                                                          71    1.09    0.71  1.0000
   1 -23  -9      38      79                                                           9    0.07   -1.78  1.0000
   1 -23  -8     610      83                                                         509   -0.98    0.65  1.0000
   1 -23  -7     674      95                                                         553   -3.59   -0.03  1.0000
   1 -23  -6     643      92                                                         741   -0.37   -1.58  1.0000
   1 -23  -5      55      87                                                         109    1.64    0.67  1.0000
   1 -23  -4      80      87                                                          28    0.29    1.98  1.0000
   1 -23  -3     485      94                                                         567    2.45   -2.47  1.0000
   1 -23  -2    3900     160                                                        4268   -0.31   -2.82  1.0000
   1 -23  -1     913     103                                                         773    0.43    1.26  1.0000
   1 -23   0      24     108                                                          44    0.13   -0.93  1.0000
   1 -23   1     927      95                                                         817    0.28   -0.99  1.0000
   1 -23   2    3680     155                                                        4100    0.60   -2.87  1.0000
   1 -23   3     394     104                                                         485    1.78    2.46  1.0000
   1 -23   4     345      88                                                         235   -0.11    1.79  1.0000
   1 -23   5      50     102                                                          95    1.49   -0.12  1.0000
   1 -23   6     807      99                                                         907    0.28   -1.56  1.0000
   1 -23   7     692     110                                                         563   -3.60    0.10  1.0000
   1 -23   8     548     109                                                         459    0.90    0.63  1.0000
   1 -23   9       9     116                                                          -9    0.07    1.61  1.0000
   1 -23  10       4      95                                                         -55   -0.90    0.70  1.0000
   1 -23  11     592     109                                                         686   -0.99    0.29  1.0000
   1 -23  12     101     108                                                          77   -1.40    0.31  1.0000
   1 -23  13     415      93                                                         351   -0.60    0.72  1.0000
   1 -23  14     272      95                                                         223   -0.54   -2.96  1.0000
   1 -23  15     922     112                                                         746   -1.54    1.38  1.0000
   1 -23  16     104     101                                                          99   -1.37    0.77  1.0000
   1 -23  17       4     145                                                         -93    0.77    0.70  1.0000
   1 -23  18      28     145                                                          28   -0.77   -0.86  1.0000
   1 -22 -18     197     149                                                         157   -0.71    0.99  1.0000
   1 -22 -17     143     154                                                         149   -0.69   -0.27  1.0000
   1 -22 -16     147      80                                                         184    1.22    1.83  1.0000
   1 -22 -15     194      83                                                         234    2.96   -1.03  1.0000
   1 -22 -14     293      78                                                         340   -0.11    1.45  1.0000
   1 -22 -13      55      80                                                         114   -1.88   -0.70  1.0000
   1 -22 -12     533      83                                                         452   -1.83   -0.01  1.0000
   1 -22 -11     515      77                                                         457    0.68    0.65  1.0000
   1 -22 -10      72      79                                                         153    0.10   -2.76  1.0000
   1 -22  -9     412      85                                                         550   -1.76    0.77  1.0000
   1 -22  -8     477      94                                                         747    3.11   -0.54  1.0000
   1 -22  -7     294      89                                                         355   -4.27   -1.43  1.0000
   1 -22  -6     390      86                                                         513   -1.55   -0.40  1.0000
   1 -22  -5    3478     135                                                        3569    1.01    0.69  1.0000
   1 -22  -4     623      87                                                         423    0.80   -2.52  1.0000
   1 -22  -3     601      93                                                         720    1.55   -1.74  1.0000
   1 -22  -2     289      90                                                         292   -2.35    0.03  1.0000
   1 -22  -1      21      81                                                          15   -1.58   -0.26  1.0000
   1 -22   0      18      80                                                         -98    0.06   -2.33  1.0000
   1 -22   1      10      95                                                           3   -1.10    0.48  1.0000
   1 -22   2     442     104                                                         444    1.68    0.00  1.0000
   1 -22   3     602     103                                                         698    1.30    1.44  1.0000
   1 -22   4     686     101                                                         480   -0.58   -2.66  1.0000
   1 -22   5    3282     138                                                        3413    0.47   -0.77  1.0000
   1 -22   6     449     109                                                         592    1.76   -0.19  1.0000
   1 -22   7     397     111                                                         474   -4.36    1.65  1.0000
   1 -22   8     425     113                                                         699   -3.32   -0.51  1.0000
   1 -22   9     596     126                                                         752   -1.49   -0.90  1.0000
   1 -22  10     101     109                                                         193   -0.14   -2.72  1.0000
   1 -22  11     464     102                                                         407    0.54   -0.70  1.0000
   1 -22  12     495     107                                                         415    1.77   -0.07  1.0000
   1 -22  13      28     110                                                          75   -1.85    0.84  1.0000
   1 -22  14     308     100                                                         356    0.07    1.40  1.0000
   1 -22  15     262      98                                                         318    2.83    1.11  1.0000
   1 -22  16      59     103                                                          76   -1.37    1.88  1.0000
   1 -22  17     383      86                                                         387   -0.61    0.33  1.0000
   1 -22  18      35      91                                                          18    0.82    1.00  1.0000
   1 -22  19     132     143                                                         152    0.22    0.52  1.0000
   1 -21 -19       2     104                                                         -50   -0.67   -0.35  1.0000
   1 -21 -18      38      85                                                          48   -0.34   -2.33  1.0000
   1 -21 -17      79      82                                                         170    3.63   -0.59  1.0000
   1 -21 -16       8      83                                                          -4   -1.39   -0.72  1.0000
   1 -21 -15      24      75                                                         -33    2.65   -0.46  1.0000
   1 -21 -14     416      86                                                         594   -3.26   -1.86  1.0000
   1 -21 -13     817     110                                                        1196    2.56   -2.13  1.0000
   1 -21 -12      51      75                                                          47    0.23   -1.03  1.0000
   1 -21 -11     135      71                                                         240    0.08    3.46  1.0000
   1 -21 -10     980      84                                                         876   -1.09    1.61  1.0000
   1 -21  -9     919      93                                                         969    2.12   -3.37  1.0000
   1 -21  -8      34      81                                                         127   -1.11   -3.72  1.0000
   1 -21  -7     712      83                                                         723   -0.25    0.80  1.0000
   1 -21  -6     298      77                                                         359   -0.81   -0.49  1.0000
   1 -21  -5    2392     102                                                        2200   -1.10   -3.42  1.0000
   1 -21  -4     464      86                                                         473   -0.46   -0.09  1.0000
   1 -21  -3    2913     121                                                        2390    1.87    2.25  1.0000
   1 -21  -2      30      83                                                          27   -1.00    0.87  1.0000
   1 -21  -1     492      89                                                         455    0.32    0.57  1.0000
   1 -21   0     714     103                                                        1134    0.14    3.83  1.0000
   1 -21   1     681      99                                                         660   -0.32   -0.15  1.0000
   1 -21   2     179      89                                                         212    0.96   -0.03  1.0000
   1 -21   3    2842     116                                                        2432    1.04   -2.47  1.0000
   1 -21   4     360      93                                                         378    0.71   -0.05  1.0000
   1 -21   5    2307     119                                                        2118   -1.12    3.49  1.0000
   1 -21   6     155     108                                                         208    0.91   -0.62  1.0000
   1 -21   7     517     104                                                         527   -0.15   -0.64  1.0000
   1 -21   8      83     109                                                         215    0.94   -3.71  1.0000
   1 -21   9    1007     113                                                        1038    2.15    3.13  1.0000
   1 -21  10    1260     126                                                        1143    1.06    1.44  1.0000
   1 -21  11     162     111                                                         276    0.09   -3.42  1.0000
   1 -21  12     220      95                                                         211   -0.19   -0.75  1.0000
   1 -21  13    1054     127                                                        1439    2.37    1.92  1.0000
   1 -21  14     569     102                                                         780    3.31   -1.98  1.0000
   1 -21  15       2      95                                                          24    2.52    0.51  1.0000
   1 -21  16       8      99                                                         -43    1.42   -0.69  1.0000
   1 -21  17      94      91                                                         195    3.62    0.57  1.0000
   1 -21  18      61      89                                                          81    0.35   -2.40  1.0000
   1 -21  19       3     110                                                        -103   -0.82    0.48  1.0000
   1 -20 -19      79      84                                                          66   -0.39   -1.08  1.0000
   1 -20 -18     149      83                                                         108   -2.61    0.37  1.0000
   1 -20 -17     772      93                                                         927    0.05   -2.09  1.0000
   1 -20 -16     191      78                                                         151    1.86   -0.86  1.0000
   1 -20 -15     405      76                                                         327    3.00   -1.32  1.0000
   1 -20 -14     596      85                                                         717   -0.46   -4.83  1.0000
   1 -20 -13     143      80                                                         125   -0.28    0.42  1.0000
   1 -20 -12       4      81                                                          32   -2.61    0.03  1.0000
   1 -20 -11     810      79                                                         764    1.50    1.63  1.0000
   1 -20 -10    1549      87                                                        1274   -1.14   -2.40  1.0000
   1 -20  -9     559      73                                                         469   -2.03   -1.39  1.0000
   1 -20  -8    2341     119                                                        2850    2.74   -2.49  1.0000
   1 -20  -7    2607     103                                                        1893    1.03   -4.23  1.0000
   1 -20  -6     149      73                                                         190   -3.39    1.98  1.0000
   1 -20  -5     578      79                                                         288   -0.56    3.86  1.0000
   1 -20  -4     119      79                                                         294    2.97   -4.21  1.0000
   1 -20  -3     572      77                                                         471   -0.80   -2.86  1.0000
   1 -20  -2    1131      93                                                         929    2.90   -1.63  1.0000
   1 -20  -1     867      95                                                        1406   -4.93    1.60  1.0000
   1 -20   0     354      83                                                         106    0.17   -4.69  1.0000
   1 -20   1    1120      98                                                        1596   -3.98   -1.32  1.0000
   1 -20   2    1070      92                                                         907   -3.07   -2.42  1.0000
   1 -20   3     621      77                                                         541   -1.29    3.10  1.0000
   1 -20   4     120      91                                                         315   -3.10   -4.51  1.0000
   1 -20   5     632      93                                                         326   -0.42   -3.88  1.0000
   1 -20   6     129      91                                                         163    3.24    1.80  1.0000
   1 -20   7    2498      90                                                        1785    0.66    4.29  1.0000
   1 -20   8    2481     136                                                        2981   -2.86   -2.35  1.0000
   1 -20   9     433     100                                                         363   -1.99    1.62  1.0000
   1 -20  10    1789     117                                                        1495    1.34   -2.45  1.0000
   1 -20  11     850      97                                                         827    1.74   -1.55  1.0000
   1 -20  12      17      99                                                          66    2.65    0.26  1.0000
   1 -20  13     212     113                                                         186   -0.42   -0.31  1.0000
   1 -20  14     720     120                                                         847    0.27   -4.96  1.0000
   1 -20  15     628      86                                                         534    2.97    1.36  1.0000
   1 -20  16     209     117                                                         164   -2.15   -0.97  1.0000
   1 -20  17    1062     117                                                        1235    0.09    1.95  1.0000
   1 -20  18     221      82                                                         174    2.60    0.40  1.0000
   1 -20  19     144     110                                                         132   -0.28    1.12  1.0000
   1 -20  20      13     117                                                          17    0.31   -0.15  1.0000
   1 -19 -21      48     197                                                          42   -0.06   -0.83  1.0000
   1 -19 -20      98     115                                                         126    0.07   -1.01  1.0000
   1 -19 -19     103      80                                                         134   -0.76    0.17  1.0000
   1 -19 -18     357      84                                                         365   -1.51   -1.19  1.0000
   1 -19 -17     132      80                                                          95    0.83    0.53  1.0000
   1 -19 -16     233      85                                                         315    0.66    1.73  1.0000
   1 -19 -15     570      81                                                         369   -1.91   -3.05  1.0000
   1 -19 -14     494      82                                                         496   -2.50    2.08  1.0000
   1 -19 -13     793      82                                                         629   -4.11    0.95  1.0000
   1 -19 -12     290      77                                                         180    5.28   -4.15  1.0000
   1 -19 -11     178      69                                                          90   -2.14   -0.60  1.0000
   1 -19 -10     480      84                                                         534    3.14    7.23  1.0000
   1 -19  -9     387      71                                                         183   -4.00    1.20  1.0000
   1 -19  -8     180      61                                                          79   -4.03   -4.62  1.0000
   1 -19  -7     660      68                                                         570   -1.85   -0.15  1.0000
   1 -19  -6     267      71                                                         158    4.62   -0.74  1.0000
   1 -19  -5     251      65                                                         307   -4.04    0.76  1.0000
   1 -19  -4      53      65                                                          62   -1.81    0.17  1.0000
   1 -19  -3     450      73                                                         190   -2.55    3.52  1.0000
   1 -19  -2      80      72                                                         109    0.15    3.06  1.0000
   1 -19  -1    1388     105                                                        1891   -4.27   -4.54  1.0000
   1 -19   0    2843     110                                                        2240    0.17    3.30  1.0000
   1 -19   1    1479      99                                                        1977   -4.16    5.11  1.0000
   1 -19   2     116      77                                                         154   -0.56    2.28  1.0000
   1 -19   3     466      69                                                         220   -2.61   -3.13  1.0000
   1 -19   4      23      85                                                          26    1.78    0.12  1.0000
   1 -19   5     374      80                                                         450   -3.92   -0.73  1.0000
   1 -19   6     417     101                                                         298   -4.62   -0.80  1.0000
   1 -19   7     699      91                                                         621   -1.58    0.17  1.0000
   1 -19   8     122      96                                                         -44    3.83   -4.73  1.0000
   1 -19   9     482      92                                                         255   -3.86   -1.10  1.0000
   1 -19  10     563      99                                                         615   -2.76    6.55  1.0000
   1 -19  11     175      68                                                          88   -2.12    0.40  1.0000
   1 -19  12     349     103                                                         230   -5.39   -3.92  1.0000
   1 -19  13     755     110                                                         589   -4.08   -0.88  1.0000
   1 -19  14     440     116                                                         447    2.41    2.15  1.0000
   1 -19  15     578      90                                                         377   -1.90    3.00  1.0000
   1 -19  16     303     119                                                         409   -0.72    1.93  1.0000
   1 -19  17     207     114                                                         161    0.82   -0.44  1.0000
   1 -19  18     561      81                                                         581    1.59   -1.17  1.0000
   1 -19  19     158      93                                                         204   -0.90   -0.31  1.0000
   1 -19  20     209     110                                                         267   -0.18   -1.33  1.0000
   1 -19  21       4     196                                                         -19   -0.20    1.01  1.0000
   1 -18 -22       8     132                                                         -10    1.05    1.17  1.0000
   1 -18 -21      69      88                                                         103   -1.61   -1.02  1.0000
   1 -18 -20      61      89                                                          49    0.34    0.82  1.0000
   1 -18 -19     207      84                                                         238   -1.01    3.25  1.0000
   1 -18 -18      28      86                                                          68   -1.73    0.15  1.0000
   1 -18 -17      97      80                                                         223   -1.22    2.51  1.0000
   1 -18 -16     582      86                                                         477   -1.21    2.18  1.0000
   1 -18 -15       6      82                                                         103    4.23    1.26  1.0000
   1 -18 -14     654      87                                                         487   -1.93    0.65  1.0000
   1 -18 -13     533      87                                                         799   -1.57   -2.61  1.0000
   1 -18 -12      66      73                                                         138    0.83    3.14  1.0000
   1 -18 -11    1072      78                                                         951    1.09    0.81  1.0000
   1 -18 -10    1346      82                                                        1202    0.27   -1.23  1.0000
   1 -18  -9     200      76                                                         178    1.51    3.55  1.0000
   1 -18  -8     217      62                                                         138    2.61    2.02  1.0000
   1 -18  -7    2610      92                                                        1980    2.02   -3.59  1.0000
   1 -18  -6    2626      88                                                        1711   -5.04    5.94  1.0000
   1 -18  -5     886      70                                                         759   -4.06    0.09  1.0000
   1 -18  -4    1497      90                                                        1812    3.37    2.58  1.0000
   1 -18  -3    2452     110                                                        2955    2.72   -2.56  1.0000
   1 -18  -2    1321      78                                                        1026   -0.49    3.38  1.0000
   1 -18  -1      57      67                                                         222   -2.52    5.22  1.0000
   1 -18   0    1104      72                                                         466   -1.12    6.47  1.0000
   1 -18   1      46      67                                                         225   -1.14   -5.63  1.0000
   1 -18   2    1561      91                                                        1186    1.12    3.21  1.0000
   1 -18   3    2633     116                                                        3066    2.90    2.10  1.0000
   1 -18   4    1508     106                                                        1846   -3.68    3.15  1.0000
   1 -18   5     900      98                                                         792   -3.97   -0.28  1.0000
   1 -18   6    2585     103                                                        1716    5.06    5.69  1.0000
   1 -18   7    2588     104                                                        1938    2.16    3.63  1.0000
   1 -18   8     202      76                                                         121   -2.73    2.21  1.0000
   1 -18   9      83      87                                                          50    1.61   -3.59  1.0000
   1 -18  10    1322      97                                                        1164   -0.63   -1.08  1.0000
   1 -18  11    1131      88                                                        1006    1.14   -1.35  1.0000
   1 -18  12      92      94                                                         179   -0.80    3.25  1.0000
   1 -18  13     557     114                                                         833   -1.49    2.76  1.0000
   1 -18  14     896     110                                                         705    1.76    0.76  1.0000
   1 -18  15       6      85                                                         102    4.28   -1.31  1.0000
   1 -18  16     829     119                                                         697    1.12    2.23  1.0000
   1 -18  17     100     120                                                         215   -0.96   -2.38  1.0000
   1 -18  18      15      82                                                          51    1.82    0.30  1.0000
   1 -18  19     313     102                                                         355   -0.94   -3.07  1.0000
   1 -18  20       3     116                                                        -122   -0.42    0.93  1.0000
   1 -18  21      65      83                                                         102   -1.62    0.73  1.0000
   1 -18  22      56     136                                                         110   -1.17    1.18  1.0000
   1 -17 -22      37      89                                                          70   -1.02    1.67  1.0000
   1 -17 -21     122      88                                                         162   -0.36    1.10  1.0000
   1 -17 -20     262      92                                                         201   -0.63   -1.09  1.0000
   1 -17 -19     451      96                                                         530    0.44    1.20  1.0000
   1 -17 -18     540      89                                                         467   -1.37    2.53  1.0000
   1 -17 -17     478      82                                                         413    0.04    1.32  1.0000
   1 -17 -16     458      86                                                         511   -0.72    1.89  1.0000
   1 -17 -15    1542      97                                                        1621    1.20   -0.69  1.0000
   1 -17 -14     117      80                                                         242   -4.44    0.87  1.0000
   1 -17 -13    2294      98                                                        1851   -2.97    3.55  1.0000
   1 -17 -12      75      59                                                         -11   -4.53    1.46  1.0000
   1 -17 -11    1048      84                                                        1462    3.89   -4.33  1.0000
   1 -17 -10      14      57                                                          28   -1.84    2.29  1.0000
   1 -17  -9     643      62                                                         238    6.18    5.98  1.0000
   1 -17  -8    2078     100                                                        1449   -4.64   -1.32  1.0000
   1 -17  -7    3099      92                                                        2145    6.43   -1.44  1.0000
   1 -17  -6       9      56                                                          40    2.32   -3.82  1.0000
   1 -17  -5     176      69                                                        1002    7.01    7.90  1.0000
   1 -17  -4     507      63                                                         506   -3.30   -0.10  1.0000
   1 -17  -3    2191      83                                                        1825    3.43   -4.76  1.0000
   1 -17  -2     272      71                                                         547    6.06   -0.49  1.0000
   1 -17  -1    1182      79                                                        1170    5.72    4.80  1.0000
   1 -17   0    3766     131                                                        3796    0.91    0.12  1.0000
   1 -17   1    1160      81                                                        1168    5.17   -3.90  1.0000
   1 -17   2     289      74                                                         596   -5.78   -1.04  1.0000
   1 -17   3    2116      90                                                        1674    2.73    4.92  1.0000
   1 -17   4     356      70                                                         378    3.67    0.26  1.0000
   1 -17   5     285      89                                                        1227    7.27   -7.51  1.0000
   1 -17   6      64      74                                                         -81   -2.32   -3.75  1.0000
   1 -17   7    3197     108                                                        2240    6.38    1.38  1.0000
   1 -17   8    2359      92                                                        1690    4.82   -1.90  1.0000
   1 -17   9     688      71                                                         276    5.88   -5.46  1.0000
   1 -17  10      67      80                                                         139    2.01    2.41  1.0000
   1 -17  11    1131      95                                                        1570    3.92    3.82  1.0000
   1 -17  12     127      81                                                          51    4.46    1.26  1.0000
   1 -17  13    2420     125                                                        1925   -2.99   -3.84  1.0000
   1 -17  14      66     106                                                         152    4.37    0.92  1.0000
   1 -17  15    1533     100                                                        1616    1.20    0.72  1.0000
   1 -17  16     385     117                                                         432    0.71    1.81  1.0000
   1 -17  17     427     119                                                         364    0.12   -1.24  1.0000
   1 -17  18     469     101                                                         396    1.45    2.63  1.0000
   1 -17  19     495      93                                                         590    0.31   -1.30  1.0000
   1 -17  20     273      91                                                         216    0.49   -1.15  1.0000
   1 -17  21     147      84                                                         194   -0.65   -0.84  1.0000
   1 -17  22      10      90                                                          28    0.93    1.78  1.0000
   1 -17  23      11     121                                                         -79   -0.33    1.76  1.0000
   1 -16 -23      56      89                                                          94   -1.05    0.68  1.0000
   1 -16 -22      27      99                                                          29    2.04   -1.21  1.0000
   1 -16 -21     405      93                                                         464   -2.48   -0.01  1.0000
   1 -16 -20     880     101                                                         768   -0.98   -1.77  1.0000
   1 -16 -19    1075     100                                                        1299    2.09    0.19  1.0000
   1 -16 -18     887      98                                                        1298    3.35   -1.68  1.0000
   1 -16 -17    2213     110                                                        2076   -1.03   -0.90  1.0000
   1 -16 -16     178      83                                                         117   -0.23   -3.03  1.0000
   1 -16 -15     304      78                                                         501   -3.47   -2.50  1.0000
   1 -16 -14     773      80                                                         534    3.98   -1.78  1.0000
   1 -16 -13     180      75                                                         208   -2.99   -5.54  1.0000
   1 -16 -12     790      71                                                         792   -0.02   -0.01  1.0000
   1 -16 -11      38      61                                                          66    1.38    3.10  1.0000
   1 -16 -10     134      65                                                         490    2.08   -6.55  1.0000
   1 -16  -9    1587      85                                                        1737    3.58    0.26  1.0000
   1 -16  -8      82      62                                                         628    2.78   -8.39  1.0000
   1 -16  -7    1717      85                                                        1322    1.24    2.56  1.0000
   1 -16  -6    1555     100                                                        2822    0.99   -7.49  1.0000
   1 -16  -5   11761     354                                                       14134   -0.74    5.81  1.0000
   1 -16  -4    2469     105                                                        3217   -1.83   -3.98  1.0000
   1 -16  -3     725      63                                                         791    4.21    0.08  1.0000
   1 -16  -2    2883      92                                                        2236    4.44   -8.75  1.0000
   1 -16  -1    1342      79                                                        1501    2.23    4.42  1.0000
   1 -16   0     225      61                                                         349   -1.03    1.97  1.0000
   1 -16   1    1251      78                                                        1373    1.29   -3.17  1.0000
   1 -16   2    2860      99                                                        2377   -3.53   -9.02  1.0000
   1 -16   3     722      77                                                         781    4.52   -0.27  1.0000
   1 -16   4    2518     104                                                        3249    1.75   -3.89  1.0000
   1 -16   5   11584     319                                                       14026   -0.39   -6.14  1.0000
   1 -16   6    1731     114                                                        3031   -1.01   -7.35  1.0000
   1 -16   7    1688      88                                                        1278    1.16   -2.81  1.0000
   1 -16   8     101      81                                                         675   -2.51   -8.42  1.0000
   1 -16   9    1629      92                                                        1802    3.42   -0.04  1.0000
   1 -16  10     142      83                                                         508   -1.90   -6.72  1.0000
   1 -16  11      25      74                                                          30    1.17   -3.05  1.0000
   1 -16  12     823      81                                                         818   -0.16   -0.14  1.0000
   1 -16  13     262      95                                                         333   -2.73    5.38  1.0000
   1 -16  14     736     104                                                         492   -4.07   -1.72  1.0000
   1 -16  15     412      84                                                         638   -3.01    2.53  1.0000
   1 -16  16      59     102                                                          17    0.26   -3.09  1.0000
   1 -16  17    2321     145                                                        2175   -1.14    1.15  1.0000
   1 -16  18     885     134                                                        1303   -3.21   -1.89  1.0000
   1 -16  19    1316     107                                                        1555    2.02   -0.17  1.0000
   1 -16  20    1168     116                                                        1038    1.01   -1.82  1.0000
   1 -16  21     535     109                                                         598   -2.49    0.10  1.0000
   1 -16  22     125      91                                                         155   -2.02   -1.26  1.0000
   1 -16  23      37     124                                                          69   -1.14   -0.55  1.0000
   1 -15 -24       2     200                                                         -42   -0.41    0.62  1.0000
   1 -15 -23       9      92                                                         105    0.36   -4.18  1.0000
   1 -15 -22     235     102                                                         171    1.84    0.86  1.0000
   1 -15 -21      93      91                                                          27   -2.52    1.80  1.0000
   1 -15 -20     850     108                                                        1100    2.38   -0.38  1.0000
   1 -15 -19     199      88                                                         365   -2.84   -0.41  1.0000
   1 -15 -18    1592     105                                                        1452    1.97    0.63  1.0000
   1 -15 -17     778      85                                                         556   -1.83    1.51  1.0000
   1 -15 -16     192      81                                                         269    1.99   -0.08  1.0000
   1 -15 -15    2816     113                                                        2965    4.81    3.55  1.0000
   1 -15 -14    1560      89                                                        1462   -0.74   -0.30  1.0000
   1 -15 -13    2139      92                                                        1842   -0.47   -1.87  1.0000
   1 -15 -12     709      67                                                         753   -0.28    0.89  1.0000
   1 -15 -11     211      61                                                         288   -1.51   -0.59  1.0000
   1 -15 -10     876      79                                                        1420    4.68   -5.09  1.0000
   1 -15  -9    1175      82                                                        1795    3.38   -3.14  1.0000
   1 -15  -8    1174      66                                                        1209   -2.08   -4.52  1.0000
   1 -15  -7   12355     342                                                       15802   -3.79   -7.51  1.0000
   1 -15  -6    4346     164                                                        6204    6.08   -5.92  1.0000
   1 -15  -5      73      57                                                         270   -6.97    0.83  1.0000
   1 -15  -4    1141      66                                                        1090   -0.69    0.79  1.0000
   1 -15  -3    1772     121                                                        4223   -4.20  -12.68  1.0000
   1 -15  -2     834      92                                                        2390    1.92  -11.04  1.0000
   1 -15  -1    5573     178                                                        7229   -0.31    5.92  1.0000
   1 -15   0    2752      99                                                        2847    0.75   -0.49  1.0000
   1 -15   1    5072     176                                                        6748    0.27   -6.42  1.0000
   1 -15   2     869      96                                                        2400   -2.64  -10.74  1.0000
   1 -15   3    1824     151                                                        4216   -4.10   12.32  1.0000
   1 -15   4    1009      78                                                         994    0.57    0.41  1.0000
   1 -15   5      93      75                                                         312   -6.84   -0.59  1.0000
   1 -15   6    4279     168                                                        6156   -5.70   -6.14  1.0000
   1 -15   7   12844     355                                                       16278   -3.69    7.38  1.0000
   1 -15   8    1156      96                                                        1189    2.24   -5.19  1.0000
   1 -15   9    1332     102                                                        1968    3.42    2.96  1.0000
   1 -15  10     940      99                                                        1532   -4.64   -5.29  1.0000
   1 -15  11     276      75                                                         346   -0.86    0.75  1.0000
   1 -15  12     596      70                                                         659    0.14    1.09  1.0000
   1 -15  13    2276     114                                                        1971   -0.52    1.86  1.0000
   1 -15  14    1692     112                                                        1592    0.72   -0.27  1.0000
   1 -15  15    2849     116                                                        3003    4.59   -3.47  1.0000
   1 -15  16     258      93                                                         342   -1.89   -0.08  1.0000
   1 -15  17     850     125                                                         626   -1.79   -1.41  1.0000
   1 -15  18    1841     144                                                        1692   -2.11    0.77  1.0000
   1 -15  19      32      98                                                         109   -2.81    0.64  1.0000
   1 -15  20     857     131                                                        1115   -2.46   -0.49  1.0000
   1 -15  21      29     119                                                         -62   -2.39   -1.79  1.0000
   1 -15  22     243      97                                                         183   -1.75    0.92  1.0000
   1 -15  23       4     121                                                          79    0.41    4.06  1.0000
   1 -14 -24      10      90                                                           1    0.69   -1.39  1.0000
   1 -14 -23      66     102                                                         102   -0.10    2.58  1.0000
   1 -14 -22     236      98                                                         365    1.00    2.06  1.0000
   1 -14 -21     597     102                                                         589   -0.11    1.74  1.0000
   1 -14 -20     814     101                                                         694   -0.07    1.77  1.0000
   1 -14 -19    1589     115                                                        1797   -0.64    1.99  1.0000
   1 -14 -18    2319     113                                                        2202    2.32    2.09  1.0000
   1 -14 -17     687      99                                                         972   -1.21    3.46  1.0000
   1 -14 -16    1207      91                                                        1094    1.97    1.51  1.0000
   1 -14 -15     592      75                                                         498   -0.56    5.94  1.0000
   1 -14 -14     300      73                                                         543    1.20    4.44  1.0000
   1 -14 -13     405      62                                                         150    2.72    3.39  1.0000
   1 -14 -12    1139      68                                                        1005   -0.83    3.69  1.0000
   1 -14 -11    3191      84                                                        1778   -4.91    9.44  1.0000
   1 -14 -10    2965      92                                                        2228    1.38    3.97  1.0000
   1 -14  -9    6808     157                                                        5459   -1.59   11.37  1.0000
   1 -14  -8    4487     121                                                        4034    3.00    2.34  1.0000
   1 -14  -7    5732     173                                                        6935   -3.15    9.50  1.0000
   1 -14  -6   38743     936                                                       50741    7.81   14.01  1.0000
   1 -14  -5    4258      95                                                        3195    7.74    4.03  1.0000
   1 -14  -4     114      59                                                         492    5.78    4.17  1.0000
   1 -14  -3     403      62                                                         774   -4.91    4.19  1.0000
   1 -14  -2    3019     118                                                        3683    0.82   -4.05  1.0000
   1 -14  -1    3062     122                                                        4524    5.37   -3.88  1.0000
   1 -14   0     446      56                                                          71   -0.39    7.00  1.0000
   1 -14   1    3318     132                                                        4706    4.78    3.90  1.0000
   1 -14   2    2817     118                                                        3598   -1.35   -4.42  1.0000
   1 -14   3     538      72                                                         888   -4.18   -3.71  1.0000
   1 -14   4     106      64                                                         500   -5.93    4.80  1.0000
   1 -14   5    4036     110                                                        2994    7.76   -4.06  1.0000
   1 -14   6   38715     940                                                       50566   -7.71   13.85  1.0000
   1 -14   7    5844     191                                                        7036   -2.98   -9.82  1.0000
   1 -14   8    4547     147                                                        4158   -3.23    2.09  1.0000
   1 -14   9    7087     171                                                        5706   -1.60  -11.62  1.0000
   1 -14  10    2962      97                                                        2226   -0.86    3.96  1.0000
   1 -14  11    3391     110                                                        1949   -4.88   -9.05  1.0000
   1 -14  12    1139      73                                                         970    1.13    3.58  1.0000
   1 -14  13     406      77                                                         142    2.65   -3.73  1.0000
   1 -14  14     281      90                                                         534   -1.44    4.48  1.0000
   1 -14  15     582      91                                                         485   -0.51   -5.98  1.0000
   1 -14  16    1180      98                                                        1052   -2.20    1.59  1.0000
   1 -14  17     823     105                                                        1117   -1.08   -3.38  1.0000
   1 -14  18    2685     150                                                        2557   -2.40    2.15  1.0000
   1 -14  19    1730     150                                                        1973   -0.51   -2.10  1.0000
   1 -14  20     841     104                                                         722    0.00    1.65  1.0000
   1 -14  21     628     123                                                         635   -0.26   -1.65  1.0000
   1 -14  22     341     122                                                         482   -0.95    1.91  1.0000
   1 -14  23     128      99                                                         188   -0.21   -2.55  1.0000
   1 -14  24     143     113                                                         118   -0.75   -1.34  1.0000
   1 -13 -25     108     152                                                         134   -0.49    0.68  1.0000
   1 -13 -24     189      99                                                         133   -0.87    0.96  1.0000
   1 -13 -23     270      97                                                         171    0.48   -2.32  1.0000
   1 -13 -22      12      98                                                          20    1.28   -1.49  1.0000
   1 -13 -21     436     100                                                         702    2.95   -1.19  1.0000
   1 -13 -20    2074     126                                                        1997   -0.53   -0.41  1.0000
   1 -13 -19    2161     128                                                        2748    5.50   -0.35  1.0000
   1 -13 -18     751      85                                                         478   -1.98   -4.30  1.0000
   1 -13 -17    2581     114                                                        2694   -0.30    1.64  1.0000
   1 -13 -16     127      74                                                         288    1.82    2.96  1.0000
   1 -13 -15     226      74                                                         104    3.48   -1.90  1.0000
   1 -13 -14     902      69                                                         643    5.60    2.07  1.0000
   1 -13 -13     475      74                                                         914   -1.73   -4.45  1.0000
   1 -13 -12     600      65                                                         758   -0.72   -1.55  1.0000
   1 -13 -11     487      59                                                         213   -7.48    1.49  1.0000
   1 -13 -10     260      67                                                        1101    9.42    0.24  1.0000
   1 -13  -9    3331     100                                                        2583    3.54    1.45  1.0000
   1 -13  -8   15295     399                                                       18969    1.72  -10.44  1.0000
   1 -13  -7     255      50                                                         320    3.04   -4.68  1.0000
   1 -13  -6    9345     226                                                       10191   -1.19   -5.71  1.0000
   1 -13  -5    3970     140                                                        4184   -0.75  -10.26  1.0000
   1 -13  -4   33582     505                                                       25831  -12.09    2.80  1.0000
   1 -13  -3   11637     296                                                       13683    2.95    4.44  1.0000
   1 -13  -2    5217     111                                                        2652   -2.29  -12.31  1.0000
   1 -13  -1    5862     167                                                        6459    4.62    4.61  1.0000
   1 -13   0    6535     137                                                        5143   -0.26   -5.02  1.0000
   1 -13   1    6141     164                                                        6755    4.85   -5.15  1.0000
   1 -13   2    4846     100                                                        2422    1.93  -12.36  1.0000
   1 -13   3   11700     317                                                       13836    3.31   -4.55  1.0000
   1 -13   4   32676     509                                                       25193   11.92    2.32  1.0000
   1 -13   5    4087     143                                                        4279   -0.55   10.75  1.0000
   1 -13   6    9290     257                                                       10155    1.17   -6.03  1.0000
   1 -13   7     188      75                                                         222    2.95    4.85  1.0000
   1 -13   8   15684     387                                                       19394   -1.96  -10.58  1.0000
   1 -13   9    3426     115                                                        2638    3.47   -1.88  1.0000
   1 -13  10     252      86                                                        1072   -9.28   -0.34  1.0000
   1 -13  11     500      83                                                         218   -7.17   -1.63  1.0000
   1 -13  12     686      93                                                         820    0.71   -1.21  1.0000
   1 -13  13     532      90                                                         995   -1.68    4.51  1.0000
   1 -13  14     891      76                                                         638   -5.59    2.14  1.0000
   1 -13  15     190      83                                                          73    3.20    1.99  1.0000
   1 -13  16     162     109                                                         339   -1.82    2.95  1.0000
   1 -13  17    2722     127                                                        2830   -0.23   -1.77  1.0000
   1 -13  18     902     102                                                         605    1.95   -4.52  1.0000
   1 -13  19    2358     160                                                        2974    5.42    0.27  1.0000
   1 -13  20    2021     144                                                        1930    0.53   -0.51  1.0000
   1 -13  21     596     104                                                         903    2.98    1.06  1.0000
   1 -13  22      27     117                                                          43   -1.16   -1.36  1.0000
   1 -13  23     266      99                                                         171    0.51    2.16  1.0000
   1 -13  24      67      87                                                          35    0.84    1.02  1.0000
   1 -13  25       7     140                                                          14   -0.50   -0.73  1.0000
   1 -12 -25     310     108                                                         232   -0.79   -2.53  1.0000
   1 -12 -24     258     109                                                         470    1.78    2.76  1.0000
   1 -12 -23     233     103                                                         371    2.52   -2.32  1.0000
   1 -12 -22     912     119                                                        1698   -3.50    4.95  1.0000
   1 -12 -21    2483     118                                                        1812    2.74   -3.16  1.0000
   1 -12 -20    3965     150                                                        3796    0.92   -1.17  1.0000
   1 -12 -19    4233     146                                                        3867   -2.18    0.97  1.0000
   1 -12 -18     877      97                                                         919    5.48   -1.72  1.0000
   1 -12 -17    3050     131                                                        3358    0.88    2.71  1.0000
   1 -12 -16     704      78                                                         613   -0.24   -4.29  1.0000
   1 -12 -15     302      70                                                         580   -0.75   -3.62  1.0000
   1 -12 -14    1669      81                                                        1346   -7.34   -7.12  1.0000
   1 -12 -13     320      65                                                         374   -5.49   -5.44  1.0000
   1 -12 -12    1459      92                                                        2181   -4.65    0.56  1.0000
   1 -12 -11    1572      85                                                        2020   -4.13   -4.54  1.0000
   1 -12 -10    5984     140                                                        4999   -0.65    5.56  1.0000
   1 -12  -9    2873     114                                                        3913   -6.67   -3.71  1.0000
   1 -12  -8   11367     262                                                        9543    7.47   -2.28  1.0000
   1 -12  -7    6798     100                                                        3291   -7.12  -13.44  1.0000
   1 -12  -6     299      51                                                          74   -7.72    4.74  1.0000
   1 -12  -5    8033     223                                                       10665    5.55   -7.48  1.0000
   1 -12  -4   20250     308                                                       14753   13.27  -10.62  1.0000
   1 -12  -3    2889     103                                                        3133   10.76    9.78  1.0000
   1 -12  -2    2848     109                                                        3128   -1.82   -0.51  1.0000
   1 -12  -1    5196     107                                                        3457    3.44   -8.63  1.0000
   1 -12   0    2667     125                                                        4370    0.93   -7.95  1.0000
   1 -12   1    4954     107                                                        3205    3.23    8.82  1.0000
   1 -12   2    2664      99                                                        2859    1.28   -0.27  1.0000
   1 -12   3    2819     104                                                        3084   10.84  -10.02  1.0000
   1 -12   4   19884     327                                                       14626  -14.19  -10.20  1.0000
   1 -12   5    7926     273                                                       10541    5.14    7.50  1.0000
   1 -12   6     306      63                                                          81    8.04    4.87  1.0000
   1 -12   7    6861     114                                                        3384   -6.63   13.86  1.0000
   1 -12   8   12554     225                                                       10571   -7.43   -2.48  1.0000
   1 -12   9    2682     119                                                        3748   -7.29    3.81  1.0000
   1 -12  10    6200     149                                                        5168    1.02    5.17  1.0000
   1 -12  11    1539      90                                                        1969   -4.11    4.99  1.0000
   1 -12  12    1637     113                                                        2355    4.45    0.26  1.0000
   1 -12  13     401      87                                                         487   -5.74    5.44  1.0000
   1 -12  14    1688      92                                                        1376    7.13   -7.00  1.0000
   1 -12  15     293      69                                                         563   -0.53    3.60  1.0000
   1 -12  16     638     105                                                         549    0.24   -4.27  1.0000
   1 -12  17    2744     136                                                        3097    1.14   -2.92  1.0000
   1 -12  18    1010     117                                                        1047   -5.39   -1.58  1.0000
   1 -12  19    4367     145                                                        4002   -2.26   -1.22  1.0000
   1 -12  20    4017     167                                                        3894   -0.69   -1.08  1.0000
   1 -12  21    2433     123                                                        1770    2.54    3.23  1.0000
   1 -12  22     954     112                                                        1788    3.90    4.92  1.0000
   1 -12  23     261     103                                                         412    2.63    2.37  1.0000
   1 -12  24     231     113                                                         439   -1.89    2.81  1.0000
   1 -12  25     365     114                                                         281   -0.88    2.68  1.0000
   1 -12  26     181     198                                                          64   -2.04    2.42  1.0000
   1 -11 -26     123     101                                                         129   -0.06   -0.18  1.0000
   1 -11 -25       5     110                                                         -35    1.17    0.18  1.0000
   1 -11 -24     553     107                                                         515   -2.40   -0.77  1.0000
   1 -11 -23     325     113                                                         471    1.89   -0.79  1.0000
   1 -11 -22     817     110                                                         786   -0.30   -1.40  1.0000
   1 -11 -21     315      98                                                         197    1.65   -2.46  1.0000
   1 -11 -20    1291     111                                                        1498    0.79    1.31  1.0000
   1 -11 -19     387     103                                                         723    0.75   -3.90  1.0000
   1 -11 -18    1860      98                                                        1458    4.52   -4.57  1.0000
   1 -11 -17    2662     114                                                        3074    2.20   -4.90  1.0000
   1 -11 -16    1337      93                                                        1351    4.22    1.25  1.0000
   1 -11 -15    1603     102                                                        2410    6.13   -1.10  1.0000
   1 -11 -14    3788     142                                                        4958    4.78   -1.53  1.0000
   1 -11 -13     276      60                                                         351    2.17   -1.23  1.0000
   1 -11 -12    3098     130                                                        4331    3.29   -9.93  1.0000
   1 -11 -11     909      84                                                        2226   -1.66  -13.84  1.0000
   1 -11 -10    5438     160                                                        6524   12.02   -9.37  1.0000
   1 -11  -9    2611      72                                                        1886   10.15   -1.16  1.0000
   1 -11  -8   22484     477                                                       24605   -3.78    1.64  1.0000
   1 -11  -7    3084      97                                                        2857    1.16   -0.12  1.0000
   1 -11  -6   22377     338                                                       16894   -7.47    8.48  1.0000
   1 -11  -5   22628     400                                                       20095    0.34   -7.18  1.0000
   1 -11  -4    8409     224                                                       10317    2.07    5.23  1.0000
   1 -11  -3    1996      61                                                        1195    2.31   10.82  1.0000
   1 -11  -2    7849     202                                                        8224    2.84   -1.37  1.0000
   1 -11  -1    2140      88                                                        2688    0.89    3.31  1.0000
   1 -11   0   12403     571                                                       29344    0.00   33.00  1.0000
   1 -11   1    2036      93                                                        2579    1.22   -3.08  1.0000
   1 -11   2    7380     181                                                        7729   -2.54   -1.11  1.0000
   1 -11   3    1960      74                                                        1186    2.41  -10.63  1.0000
   1 -11   4    8309     227                                                       10152   -2.02    5.09  1.0000
   1 -11   5   22788     403                                                       20225    0.12    7.00  1.0000
   1 -11   6   22305     361                                                       16895    7.15    8.47  1.0000
   1 -11   7    3378     107                                                        3173    1.03    0.00  1.0000
   1 -11   8   22108     475                                                       24302    3.92    2.18  1.0000
   1 -11   9    2829      90                                                        2054   10.13    0.98  1.0000
   1 -11  10    5300     168                                                        6356  -12.05   -9.36  1.0000
   1 -11  11    1027      94                                                        2376   -1.46   13.59  1.0000
   1 -11  12    3191     135                                                        4474   -3.63   -9.38  1.0000
   1 -11  13     138      75                                                         197    2.20    1.43  1.0000
   1 -11  14    4018     156                                                        5234   -4.84   -1.39  1.0000
   1 -11  15    1509     104                                                        2268    5.88    0.89  1.0000
   1 -11  16    1287      99                                                        1290   -4.30    1.39  1.0000
   1 -11  17    2580     121                                                        2983    2.22    4.92  1.0000
   1 -11  18    1950     123                                                        1529   -4.56   -4.50  1.0000
   1 -11  19     365     123                                                         692    0.60    3.92  1.0000
   1 -11  20    1413      96                                                        1629   -1.06    1.15  1.0000
   1 -11  21     262     100                                                         147    1.71    2.66  1.0000
   1 -11  22     793     112                                                         786    0.08   -1.48  1.0000
   1 -11  23     214     100                                                         344    2.03    0.79  1.0000
   1 -11  24     611     127                                                         578    2.27   -0.68  1.0000
   1 -11  25     173      99                                                         139    1.10   -0.10  1.0000
   1 -11  26      66      90                                                          69   -0.13   -0.05  1.0000
   1 -10 -27     284     131                                                         260    0.70    0.92  1.0000
   1 -10 -26     731     102                                                         808    0.80   -0.07  1.0000
   1 -10 -25      38     105                                                          41    0.34   -0.77  1.0000
   1 -10 -24     197     101                                                         320   -2.37   -2.35  1.0000
   1 -10 -23     210      91                                                         153   -1.01    1.40  1.0000
   1 -10 -22     411      99                                                         699   -2.41   -2.81  1.0000
   1 -10 -21    1393     111                                                        1548   -1.25    1.22  1.0000
   1 -10 -20    1580     118                                                        1376   -0.19   -3.96  1.0000
   1 -10 -19    5766     158                                                        4657   -2.79   -3.75  1.0000
   1 -10 -18    2593     117                                                        2264   -4.27    2.07  1.0000
   1 -10 -17     652      83                                                         769    6.18   -2.27  1.0000
   1 -10 -16    2022     104                                                        2521   -2.89    0.63  1.0000
   1 -10 -15     747      72                                                         668   -0.76   -1.09  1.0000
   1 -10 -14    3292     114                                                        3218    0.37   -0.41  1.0000
   1 -10 -13    3837     127                                                        3990   -0.59   -3.35  1.0000
   1 -10 -12     203      58                                                         465  -15.14    2.01  1.0000
   1 -10 -11      49      54                                                         132   -6.24   -5.71  1.0000
   1 -10 -10   10767     375                                                       15344  -14.82   -5.94  1.0000
   1 -10  -9    1592      72                                                        1791    0.75    1.11  1.0000
   1 -10  -8   14286     324                                                       16844    5.97   -1.18  1.0000
   1 -10  -7   16461     342                                                       17314   25.39    3.69  1.0000
   1 -10  -6   15409     263                                                       12211   -8.93   -0.94  1.0000
   1 -10  -5   10496     271                                                       12940   -5.87   -2.12  1.0000
   1 -10  -4   24354     342                                                       16976    3.01  -15.35  1.0000
   1 -10  -3    4522     136                                                        5443   -3.70   -2.74  1.0000
   1 -10  -2    5930     158                                                        6481   -9.82   19.05  1.0000
   1 -10  -1    5963     103                                                        3605   -7.05   -7.49  1.0000
   1 -10   0     469      86                                                        2158    0.27  -13.65  1.0000
   1 -10   1    5925      99                                                        3495   -7.39    7.66  1.0000
   1 -10   2    5818     152                                                        6259    9.70   18.53  1.0000
   1 -10   3    4678     135                                                        5372   -2.81    2.06  1.0000
   1 -10   4   24314     342                                                       16980   -3.13  -15.17  1.0000
   1 -10   5   10221     274                                                       12690   -6.12    1.73  1.0000
   1 -10   6   14318     240                                                       11157    8.77   -1.43  1.0000
   1 -10   7   16673     377                                                       17539   25.43   -3.76  1.0000
   1 -10   8   13826     330                                                       16348   -5.53   -1.90  1.0000
   1 -10   9    1687     100                                                        1852   -0.26   -1.53  1.0000
   1 -10  10   11209     315                                                       15827   14.65   -5.79  1.0000
   1 -10  11      62      81                                                          93   -5.85    5.92  1.0000
   1 -10  12     201      88                                                         486   15.23    2.29  1.0000
   1 -10  13    4233     135                                                        4378   -0.52    3.48  1.0000
   1 -10  14    3269     108                                                        3197   -0.43   -0.41  1.0000
   1 -10  15     713      82                                                         633   -0.91    1.18  1.0000
   1 -10  16    1834     125                                                        2322    2.95    0.65  1.0000
   1 -10  17     620     110                                                         742    6.32    2.37  1.0000
   1 -10  18    2681     112                                                        2357    4.35    2.03  1.0000
   1 -10  19    5533     148                                                        4433   -3.02    3.77  1.0000
   1 -10  20    1602     110                                                        1407    0.22   -3.81  1.0000
   1 -10  21    1261     112                                                        1429   -1.38   -0.95  1.0000
   1 -10  22     199     126                                                         409    2.50   -2.78  1.0000
   1 -10  23     113     126                                                          77   -0.82   -1.52  1.0000
   1 -10  24     148      98                                                         247    2.26   -2.55  1.0000
   1 -10  25      71      99                                                          80    0.13    0.77  1.0000
   1 -10  26     750     108                                                         831   -0.82   -0.11  1.0000
   1 -10  27     178     185                                                         156    0.69   -0.99  1.0000
   1 -10  29      53     253                                                         120   -0.80   -2.10  1.0000
   1 -10  30     311     227                                                         340   -0.06    0.45  1.0000
   1  -9 -27     128     102                                                         269    2.43    1.37  1.0000
   1  -9 -26     767     110                                                         582   -0.14   -2.36  1.0000
   1  -9 -25     209      97                                                         268    1.34   -1.51  1.0000
   1  -9 -24    2018     130                                                        1830    0.00   -1.88  1.0000
   1  -9 -23    1579      98                                                        1438   -1.21    0.21  1.0000
   1  -9 -22     373     100                                                         506    4.94   -2.17  1.0000
   1  -9 -21      38      99                                                          66   -1.30   -1.92  1.0000
   1  -9 -20      42      95                                                         160    4.11   -1.91  1.0000
   1  -9 -19    6614     184                                                        6498   -1.27    5.39  1.0000
   1  -9 -18    2207     103                                                        1857    3.67   -1.29  1.0000
   1  -9 -17   15402     296                                                       12995   -5.66    0.20  1.0000
   1  -9 -16    3379     119                                                        3566    1.11    6.65  1.0000
   1  -9 -15    5400     179                                                        6614   -6.37    1.07  1.0000
   1  -9 -14    2236     108                                                        2852   -4.53    2.86  1.0000
   1  -9 -13     522      69                                                         906    3.47    2.05  1.0000
   1  -9 -12     922      64                                                         499   -5.98    1.15  1.0000
   1  -9 -11     350      67                                                        1347  -10.22    1.04  1.0000
   1  -9 -10     330      57                                                         199   -4.79    4.07  1.0000
   1  -9  -9    5423     122                                                        4495  -10.69   -4.02  1.0000
   1  -9  -8    3476     102                                                        3485    8.67    1.93  1.0000
   1  -9  -7    1528      85                                                        2701  -29.67  -17.72  1.0000
   1  -9  -6    2784      94                                                        3333    4.15   -7.76  1.0000
   1  -9  -5   18115     158                                                        7201  -21.27   22.89  1.0000
   1  -9  -4    4972      54                                                        1013   17.49   14.35  1.0000
   1  -9  -3     601     112                                                        4037  -18.11   18.03  1.0000
   1  -9  -2   11154     228                                                       10023   -7.19   -2.57  1.0000
   1  -9  -1     930     177                                                        7590  -29.48   10.37  1.0000
   1  -9   0    1383     130                                                        5494    0.48   20.33  1.0000
   1  -9   1     956     172                                                        7452  -29.03   -9.64  1.0000
   1  -9   2   10697     204                                                        9844    6.67   -3.07  1.0000
   1  -9   3     655     110                                                        4142  -17.94  -17.80  1.0000
   1  -9   4    4847      62                                                         892  -18.09   14.26  1.0000
   1  -9   5   18227     180                                                        7227  -21.41  -22.90  1.0000
   1  -9   6    2507      98                                                        2995   -4.42   -7.83  1.0000
   1  -9   7    1527     106                                                        2745  -29.83   17.55  1.0000
   1  -9   8    3920     119                                                        3847   -8.46    2.33  1.0000
   1  -9   9    5301     126                                                        4494  -11.55    3.72  1.0000
   1  -9  10     335      84                                                         203    4.73    3.95  1.0000
   1  -9  11     410      89                                                        1461  -10.20   -1.08  1.0000
   1  -9  12     979      60                                                         537    5.68    0.75  1.0000
   1  -9  13     503      77                                                         879    3.59   -1.86  1.0000
   1  -9  14    2350     120                                                        2945    4.30    2.71  1.0000
   1  -9  15    5436     188                                                        6625   -6.32   -1.20  1.0000
   1  -9  16    3358     124                                                        3568   -0.94    6.50  1.0000
   1  -9  17   15267     290                                                       12891   -5.62   -0.14  1.0000
   1  -9  18    2251     106                                                        1885   -3.46   -1.41  1.0000
   1  -9  19    6621     168                                                        6490   -1.14   -5.12  1.0000
   1  -9  20     128     120                                                         337   -4.38   -1.88  1.0000
   1  -9  21     271     118                                                         352   -1.16    2.03  1.0000
   1  -9  22     425     109                                                         563   -4.82   -2.21  1.0000
   1  -9  23    1644     136                                                        1502   -1.29   -0.41  1.0000
   1  -9  24    1875     124                                                        1692    0.13   -1.75  1.0000
   1  -9  25     257     102                                                         327    1.41    1.60  1.0000
   1  -9  26     770     123                                                         579   -0.06   -2.31  1.0000
   1  -9  27     130      99                                                         273    2.54   -1.26  1.0000
   1  -9  28     192     265                                                         249    1.64   -1.01  1.0000
   1  -9  29       3     231                                                        -164    0.97   -0.27  1.0000
   1  -9  30      54     160                                                          81    0.39   -1.20  1.0000
   1  -8 -29     145     209                                                         180   -0.30    0.83  1.0000
   1  -8 -28      18     209                                                        -113   -1.99   -1.24  1.0000
   1  -8 -27     324     109                                                         266    0.17   -0.92  1.0000
   1  -8 -26     109      86                                                         117   -0.63   -0.86  1.0000
   1  -8 -25    1893     124                                                        2019    1.34   -0.70  1.0000
   1  -8 -24    2366     140                                                        2748    2.55    1.14  1.0000
   1  -8 -23     190     108                                                         282   -0.26    1.74  1.0000
   1  -8 -22    5817     199                                                        5808    1.17    1.58  1.0000
   1  -8 -21    6387     212                                                        7237   -4.49   -2.73  1.0000
   1  -8 -20    2339     118                                                        2358   -0.33   -0.26  1.0000
   1  -8 -19    4068     128                                                        3265   -6.91   -4.01  1.0000
   1  -8 -18    4817     143                                                        4595   -1.91    3.09  1.0000
   1  -8 -17     234      77                                                         294    0.84    0.60  1.0000
   1  -8 -16    2225      85                                                        1440   -2.07    9.53  1.0000
   1  -8 -15    3320     122                                                        3644    0.12   -1.89  1.0000
   1  -8 -14     175      63                                                         152    0.52    3.64  1.0000
   1  -8 -13    1741      62                                                         700   -1.19  -11.78  1.0000
   1  -8 -12    1078      70                                                        1069   -0.18   -0.10  1.0000
   1  -8 -11    2068      76                                                        1926  -10.17    3.95  1.0000
   1  -8 -10   34189     617                                                       32702   -8.06    1.13  1.0000
   1  -8  -9   12861     274                                                       12229   -0.19    1.55  1.0000
   1  -8  -8    5517     220                                                        9857  -13.92    5.24  1.0000
   1  -8  -7    5187     111                                                        3135   16.98  -14.47  1.0000
   1  -8  -6     975      43                                                         654   -1.25    7.83  1.0000
   1  -8  -5   57138    1047                                                       61084   19.45  -12.00  1.0000
   1  -8  -4   53905     839                                                       48389   24.93   17.68  1.0000
   1  -8  -3   73586    1661                                                       98609   24.31  -17.05  1.0000
   1  -8  -2   73607    3388                                                      145489   -5.12   63.71  1.0000
   1  -8  -1   20487     529                                                       27811    2.81   15.12  1.0000
   1  -8   0    5304     321                                                       15305   -0.82   28.01  1.0000
   1  -8   1   20140     503                                                       27619    2.61  -15.44  1.0000
   1  -8   2   69940    2365                                                      140184    4.11   63.45  1.0000
   1  -8   3   72169    1622                                                       97236   25.64   16.79  1.0000
   1  -8   4   54012     853                                                       48333  -23.98   17.42  1.0000
   1  -8   5   54944     987                                                       58497   19.38   12.45  1.0000
   1  -8   6     999      63                                                         678    1.20    7.83  1.0000
   1  -8   7    5022      98                                                        2946   17.09   14.80  1.0000
   1  -8   8    5183     212                                                        9406   14.13    4.98  1.0000
   1  -8   9   12588     254                                                       11892   -0.56   -1.71  1.0000
   1  -8  10   32833     590                                                       31551    7.80    1.33  1.0000
   1  -8  11    2060      90                                                        1909  -10.26   -3.93  1.0000
   1  -8  12    1279      81                                                        1259   -0.04   -0.15  1.0000
   1  -8  13    1832      85                                                         770   -1.15   11.62  1.0000
   1  -8  14      83      86                                                          57   -0.30    3.56  1.0000
   1  -8  15    3256     120                                                        3613   -0.01    2.21  1.0000
   1  -8  16    2104      97                                                        1324    2.16    9.58  1.0000
   1  -8  17     348      79                                                         408    0.70   -0.49  1.0000
   1  -8  18    4884     141                                                        4693    2.11    3.12  1.0000
   1  -8  19    3717     119                                                        2939   -6.92    4.03  1.0000
   1  -8  20    2176     132                                                        2185    0.15   -0.12  1.0000
   1  -8  21    6102     193                                                        6864   -4.27    2.80  1.0000
   1  -8  22    5720     202                                                        5750   -1.21    1.88  1.0000
   1  -8  23      75      91                                                         142   -0.25   -1.88  1.0000
   1  -8  24    2291     132                                                        2686   -2.75    1.48  1.0000
   1  -8  25    1973     135                                                        2108    1.39    0.73  1.0000
   1  -8  26     139      89                                                         147    0.55   -0.69  1.0000
   1  -8  27     335     122                                                         282    0.16    0.81  1.0000
   1  -8  29     124     168                                                         155   -0.42   -0.83  1.0000
   1  -8  30       1     238                                                        -101   -0.60    0.13  1.0000
   1  -8  31     155     240                                                         189   -0.55    0.53  1.0000
   1  -7 -30       9     144                                                         -22   -1.21   -1.14  1.0000
   1  -7 -29     212     223                                                         310    1.65    0.35  1.0000
   1  -7 -28     344     192                                                         426   -1.12    0.36  1.0000
   1  -7 -27     128      96                                                         103    0.64    2.46  1.0000
   1  -7 -26     984     114                                                         775   -1.02    1.70  1.0000
   1  -7 -25      12     102                                                         -58   -0.64    1.79  1.0000
   1  -7 -24     557      92                                                         621   -1.05   -0.48  1.0000
   1  -7 -23     162      95                                                         168   -0.25   -0.79  1.0000
   1  -7 -22    1359     120                                                        1355    0.16    0.52  1.0000
   1  -7 -21    3720     162                                                        4165    1.53    2.11  1.0000
   1  -7 -20    1095      99                                                         645   -4.50    0.50  1.0000
   1  -7 -19    3155     150                                                        3842   -1.88    3.07  1.0000
   1  -7 -18      76      85                                                          47   -4.94    0.74  1.0000
   1  -7 -17    1548     116                                                        2656    3.94   -5.60  1.0000
   1  -7 -16     460      73                                                         574    2.15   -3.27  1.0000
   1  -7 -15    8443     255                                                       11294    5.48    5.94  1.0000
   1  -7 -14      30      56                                                         161   -6.78    4.08  1.0000
   1  -7 -13   12316     267                                                       12210   -0.36    0.21  1.0000
   1  -7 -12     157      69                                                        1128   -6.93   11.78  1.0000
   1  -7 -11     927      64                                                         998   -2.41    6.47  1.0000
   1  -7 -10    5618      78                                                        2051    3.29   17.01  1.0000
   1  -7  -9    2200      49                                                         289   16.70    7.18  1.0000
   1  -7  -8    1479      65                                                        1669   23.08   -9.59  1.0000
   1  -7  -7   20765     425                                                       22726   24.56    1.01  1.0000
   1  -7  -6   22867     725                                                       39712   -7.85  -29.86  1.0000
   1  -7  -5   47549    1291                                                       65662   24.25   34.81  1.0000
   1  -7  -4   71819    2031                                                      105543   31.76   -2.77  1.0000
   1  -7  -2   91756    1492                                                       89421    6.05   -9.08  1.0000
   1  -7  -1    5434     190                                                        9130    8.40   18.28  1.0000
   1  -7   0       7      59                                                        1331    0.26   18.64  1.0000
   1  -7   1    5673     206                                                        9530    8.63  -18.57  1.0000
   1  -7   2   88363    1457                                                       86430   -5.76   -9.30  1.0000
   1  -7   4   70397    1788                                                      103637  -31.55   -2.24  1.0000
   1  -7   5   47842    1099                                                       65723   25.22  -34.79  1.0000
   1  -7   6   21927     732                                                       38442    7.88  -29.84  1.0000
   1  -7   7   20322     421                                                       22105   24.50   -1.26  1.0000
   1  -7   8    1425      87                                                        1558  -23.18   -9.12  1.0000
   1  -7   9    2245      76                                                         314   15.29   -7.62  1.0000
   1  -7  10    5461      83                                                        1953   -3.53   17.09  1.0000
   1  -7  11     871      90                                                         919   -2.30   -6.11  1.0000
   1  -7  12     137      90                                                        1042    6.74   11.83  1.0000
   1  -7  13   11939     260                                                       11896   -0.38   -0.05  1.0000
   1  -7  14      52      67                                                          61    6.23    4.28  1.0000
   1  -7  15    8335     263                                                       11219    5.57   -6.03  1.0000
   1  -7  16     579      94                                                         735   -2.40   -3.68  1.0000
   1  -7  17    1529     103                                                        2641    4.21    5.40  1.0000
   1  -7  18      85      82                                                          73    4.96    0.51  1.0000
   1  -7  19    3065     143                                                        3754   -1.81   -3.13  1.0000
   1  -7  20    1025      95                                                         582    4.44    0.81  1.0000
   1  -7  21    3735     169                                                        4215    1.03   -2.22  1.0000
   1  -7  22    1311      92                                                        1296   -0.14    0.74  1.0000
   1  -7  23     273     122                                                         278   -0.21    0.93  1.0000
   1  -7  24     588     125                                                         661    1.06   -0.56  1.0000
   1  -7  25      22      82                                                           5   -0.58   -1.60  1.0000
   1  -7  26     818     130                                                         625    1.05    1.73  1.0000
   1  -7  27      25     119                                                           5    0.51   -2.39  1.0000
   1  -7  28     215     185                                                         280    1.11    0.41  1.0000
   1  -7  31     338     245                                                         424    0.82    1.16  1.0000
   1  -6 -30     148     211                                                         169    0.56   -1.10  1.0000
   1  -6 -29     486     189                                                         343   -0.88    2.22  1.0000
   1  -6 -28     165      99                                                         210    0.08   -2.04  1.0000
   1  -6 -27     388     119                                                         271    0.52    1.71  1.0000
   1  -6 -26     623     114                                                         596    0.98   -1.29  1.0000
   1  -6 -25     904     118                                                         726   -2.94   -2.79  1.0000
   1  -6 -24     435     118                                                         596   -1.76   -1.12  1.0000
   1  -6 -23    1001     108                                                        1083   -0.28   -0.64  1.0000
   1  -6 -22    6964     219                                                        9439   -1.13   -8.32  1.0000
   1  -6 -21    7548     205                                                        8085   -0.55    1.83  1.0000
   1  -6 -20    2512     116                                                        2247    2.54   -1.60  1.0000
   1  -6 -19    2870     120                                                        3244    0.29    1.91  1.0000
   1  -6 -18     982      97                                                        1414   -0.53   -3.43  1.0000
   1  -6 -17     317      84                                                         748   -5.02    1.72  1.0000
   1  -6 -16    3888     132                                                        3788    1.99  -17.89  1.0000
   1  -6 -15     386      70                                                         303   -0.04    1.34  1.0000
   1  -6 -14    2926     151                                                        5618   14.49  -12.78  1.0000
   1  -6 -13    2717      84                                                        2179    3.46   -0.25  1.0000
   1  -6 -12   17656     329                                                       15644    2.17   -4.47  1.0000
   1  -6 -11    6995     155                                                        6155   -1.19   -4.86  1.0000
   1  -6 -10    2784     136                                                        5335  -11.06   -5.40  1.0000
   1  -6  -9    6267      97                                                        3403   -8.20  -18.21  1.0000
   1  -6  -8   13438     229                                                       10730   -4.96   -6.76  1.0000
   1  -6  -7   11703     269                                                       13023   -5.11   -5.96  1.0000
   1  -6  -6   10634     212                                                        9907   -0.90    3.26  1.0000
   1  -6  -5   34730     466                                                       25505   35.40   56.08  1.0000
   1  -6  -4   59988    1375                                                       80894   -4.16   24.41  1.0000
   1  -6  -2   22763     302                                                       15912  -19.85   -5.61  1.0000
   1  -6  -1    6060     163                                                        7475    0.44   -4.84  1.0000
   1  -6   0    2520      44                                                         714   -1.04  -42.31  1.0000
   1  -6   1    6428     172                                                        7869    1.34    4.90  1.0000
   1  -6   2   21176     300                                                       15004   17.89   -4.65  1.0000
   1  -6   4   60337    1385                                                       80993    4.98   23.45  1.0000
   1  -6   5   34156     466                                                       24461   35.52  -54.97  1.0000
   1  -6   6    9881     212                                                        9366    0.31    3.34  1.0000
   1  -6   7   11317     277                                                       12605   -5.22    5.98  1.0000
   1  -6   8   13238     219                                                       10487    4.98   -7.35  1.0000
   1  -6   9    5894     110                                                        3124   -8.13   18.55  1.0000
   1  -6  10    2891     158                                                        5444   10.53   -5.67  1.0000
   1  -6  11    7215     178                                                        6337   -1.24    5.01  1.0000
   1  -6  12   16905     297                                                       14906   -2.43   -4.56  1.0000
   1  -6  13    2859      92                                                        2296    3.24   -0.30  1.0000
   1  -6  14    2891     164                                                        5510  -14.04  -12.60  1.0000
   1  -6  15     260      84                                                         213   -0.39   -1.06  1.0000
   1  -6  16    3927     129                                                        3795   -2.00  -17.45  1.0000
   1  -6  17     256      84                                                         661   -5.08   -1.83  1.0000
   1  -6  18    1160     102                                                        1608    0.59   -3.29  1.0000
   1  -6  19    2935     127                                                        3299   -0.21   -2.05  1.0000
   1  -6  20    2327     133                                                        2057   -2.82   -1.89  1.0000
   1  -6  21    7344     207                                                        7840   -0.62   -1.74  1.0000
   1  -6  22    6944     232                                                        9430    1.53   -8.48  1.0000
   1  -6  23    1079     125                                                        1165   -0.48    0.55  1.0000
   1  -6  24     344      85                                                         482    1.63   -1.34  1.0000
   1  -6  25     899     118                                                         730   -3.01    2.74  1.0000
   1  -6  26     619     107                                                         585   -0.95   -1.38  1.0000
   1  -6  27     456      99                                                         321    0.62   -1.79  1.0000
   1  -6  28     122     120                                                         161   -0.08   -2.09  1.0000
   1  -6  29     366     233                                                         243   -0.90   -2.23  1.0000
   1  -6  30      85     160                                                          99   -0.52   -0.97  1.0000
   1  -5 -28       0      99                                                         -57    0.31   -0.17  1.0000
   1  -5 -27     159     113                                                         125    0.01   -2.97  1.0000
   1  -5 -26     530     109                                                         794    0.90    2.81  1.0000
   1  -5 -25     974     117                                                        1020    0.20    0.36  1.0000
   1  -5 -24    1883     122                                                        2109   -0.79    2.17  1.0000
   1  -5 -23      47      91                                                          51   -1.19    0.75  1.0000
   1  -5 -22    1884     131                                                        2357   -2.22   -2.10  1.0000
   1  -5 -21     133      80                                                         126   -0.14    2.39  1.0000
   1  -5 -20    1871     106                                                        1850    1.20    0.62  1.0000
   1  -5 -19    6007     147                                                        5039   -4.64   -1.65  1.0000
   1  -5 -18     706      85                                                        1396   -0.88    7.67  1.0000
   1  -5 -17    2880     173                                                        5111  -13.30    1.14  1.0000
   1  -5 -16     324      74                                                         441   -1.64    0.34  1.0000
   1  -5 -15    4189      88                                                        1987  -11.32   -0.38  1.0000
   1  -5 -14     424      73                                                         895   10.92   -8.34  1.0000
   1  -5 -13     681      64                                                         270   -2.77  -18.03  1.0000
   1  -5 -12   32754     767                                                       42525   15.49  -17.40  1.0000
   1  -5 -11    8107     181                                                        7089   -4.13    4.33  1.0000
   1  -5 -10    4000      77                                                        2384    1.52   13.14  1.0000
   1  -5  -9    4153     237                                                       10958  -23.89   23.24  1.0000
   1  -5  -8    1283      42                                                         100  -13.47    5.07  1.0000
   1  -5  -7   19003     460                                                       23307  -19.28   -1.83  1.0000
   1  -5  -6   31147     576                                                       31029   -5.62    2.45  1.0000
   1  -5  -5   30615     660                                                       37069  -12.59  -13.69  1.0000
   1  -5  -4   39024     849                                                       43059   31.38  -14.19  1.0000
   1  -5  -1  145612    2148                                                       62321 -107.26  -15.76  1.0000
   1  -5   0   96019    1063                                                       62487   -0.40   32.98  1.0000
   1  -5   1  167175    1352                                                       79196 -105.87   15.45  1.0000
   1  -5   2   20337    1314                                                       75089   55.52  -47.99  1.0000
   1  -5   3  136152    2377                                                      125715   22.15   42.50  1.0000
   1  -5   4   36827     714                                                       40936  -32.21  -14.70  1.0000
   1  -5   5   30190     653                                                       36524  -13.04   13.68  1.0000
   1  -5   6   29955     570                                                       30027    4.85    2.44  1.0000
   1  -5   7   18548     441                                                       22771  -18.84    1.58  1.0000
   1  -5   8    1256      56                                                         103   13.15    5.15  1.0000
   1  -5   9    3740     234                                                       10088  -23.64  -23.11  1.0000
   1  -5  10    3886      90                                                        2301   -1.29   13.66  1.0000
   1  -5  11    8011     169                                                        6890   -4.41   -3.98  1.0000
   1  -5  12   31969     756                                                       41541  -15.36  -17.39  1.0000
   1  -5  13     688      59                                                         241   -2.68   18.01  1.0000
   1  -5  14     420      93                                                         904  -11.02   -7.96  1.0000
   1  -5  15    4210     111                                                        1992  -11.27    0.76  1.0000
   1  -5  16     261      74                                                         347    1.40    0.15  1.0000
   1  -5  17    2759     164                                                        4936  -13.31   -1.27  1.0000
   1  -5  18     773      89                                                        1435    0.93    7.23  1.0000
   1  -5  19    5639     168                                                        4725   -4.44    1.46  1.0000
   1  -5  20    2080     128                                                        2053   -1.29    0.63  1.0000
   1  -5  21      23      78                                                           5   -0.04   -2.55  1.0000
   1  -5  22    1880     147                                                        2341    1.99   -2.49  1.0000
   1  -5  23      18      89                                                          17   -1.12   -0.73  1.0000
   1  -5  24    1972     141                                                        2167    1.29    2.21  1.0000
   1  -5  25     811     129                                                         840    0.06   -0.31  1.0000
   1  -5  26     396     105                                                         615   -0.14    3.09  1.0000
   1  -5  27     228     120                                                         203   -0.19    2.72  1.0000
   1  -5  28      66      94                                                          78   -0.36    0.11  1.0000
   1  -5  29     126     148                                                          99   -0.26   -1.40  1.0000
   1  -5  30       6     223                                                           8    0.34   -1.02  1.0000
   1  -5  31       3     132                                                        -140   -0.82    0.52  1.0000
   1  -4 -29     608     133                                                         529   -0.06   -0.91  1.0000
   1  -4 -28     247     117                                                         357   -2.42    2.21  1.0000
   1  -4 -27     158     114                                                         164    0.19   -1.16  1.0000
   1  -4 -26    1796     129                                                        1779   -0.04    0.33  1.0000
   1  -4 -25     286     100                                                         251    0.49    0.53  1.0000
   1  -4 -24    2044     113                                                        1833    3.09    3.05  1.0000
   1  -4 -23    2133     139                                                        3118    1.63    5.31  1.0000
   1  -4 -22     647     106                                                         365    2.74    2.61  1.0000
   1  -4 -21    1422     111                                                        2066   -2.97    4.06  1.0000
   1  -4 -20    1769      99                                                        1340   -2.86   -0.89  1.0000
   1  -4 -19    3964     147                                                        4363   -0.39   -1.67  1.0000
   1  -4 -18    3286     136                                                        4085   -5.92    1.88  1.0000
   1  -4 -17     630      75                                                         315    6.14   12.20  1.0000
   1  -4 -16    1210     113                                                        2480    6.26    8.55  1.0000
   1  -4 -15    3691      83                                                        1746    2.67   14.50  1.0000
   1  -4 -14    5792      86                                                        2238   16.36   -0.69  1.0000
   1  -4 -13   16418     387                                                       18597   -5.02   -1.22  1.0000
   1  -4 -12    3305      97                                                        2467   -2.80    3.90  1.0000
   1  -4 -11    7341     180                                                        8071   -1.68    4.24  1.0000
   1  -4 -10    1045      74                                                        1500    4.09   16.67  1.0000
   1  -4  -9    4396     166                                                        7787   -4.65   11.78  1.0000
   1  -4  -8   11215     156                                                        6189    7.18   26.11  1.0000
   1  -4  -7   17957     323                                                       17002   -6.85   -4.34  1.0000
   1  -4  -6   10577     307                                                       15266  -15.93    5.51  1.0000
   1  -4  -5   73251    1357                                                       69607  -18.53  -14.77  1.0000
   1  -4  -4   64524     732                                                       42534  -37.88    1.79  1.0000
   1  -4  -1   46667     224                                                       11862   19.74   55.94  1.0000
   1  -4   0    1020     142                                                        6533   -1.58   26.89  1.0000
   1  -4   1   47550     240                                                       12012   21.79  -55.71  1.0000
   1  -4   2   52595    1083                                                       62971  -11.81   -5.05  1.0000
   1  -4   3   56678    1391                                                       81072  -32.53  -36.18  1.0000
   1  -4   4   62045     718                                                       40609   38.87    0.85  1.0000
   1  -4   5   71702    1163                                                       68384  -17.71   14.44  1.0000
   1  -4   6    9770     302                                                       14211   15.73    5.47  1.0000
   1  -4   7   17158     341                                                       16467   -7.31    3.95  1.0000
   1  -4   8   11223     153                                                        6125   -7.46   26.15  1.0000
   1  -4   9    4323     205                                                        7678   -3.70  -12.37  1.0000
   1  -4  10     974      74                                                        1446   -4.13   17.12  1.0000
   1  -4  11    7318     206                                                        8123   -1.52   -4.42  1.0000
   1  -4  12    3439     105                                                        2592    3.15    3.80  1.0000
   1  -4  13   15743     363                                                       17892   -5.12    1.50  1.0000
   1  -4  14    5814     100                                                        2317  -16.01   -0.88  1.0000
   1  -4  15    3759      98                                                        1778    2.04  -14.04  1.0000
   1  -4  16    1124     108                                                        2378   -6.40    8.63  1.0000
   1  -4  17     577      71                                                         204    6.10  -12.07  1.0000
   1  -4  18    3077     139                                                        3847    6.10    1.80  1.0000
   1  -4  19    3873     160                                                        4290   -0.61    1.74  1.0000
   1  -4  20    1877      87                                                        1488    2.29   -1.50  1.0000
   1  -4  21    1496     138                                                        2177   -3.11   -4.04  1.0000
   1  -4  22     425     122                                                         219   -2.80    2.26  1.0000
   1  -4  23    2216     133                                                        3214    1.36   -5.30  1.0000
   1  -4  24    2210     144                                                        1946   -2.83    3.24  1.0000
   1  -4  25      67      91                                                          49    0.50   -0.57  1.0000
   1  -4  26    1695     146                                                        1711    0.29    0.37  1.0000
   1  -4  27     216      97                                                         227    0.24    1.39  1.0000
   1  -4  28     421     123                                                         569    2.43    2.46  1.0000
   1  -4  29     596     101                                                         518    0.10    0.91  1.0000
   1  -4  30      18     109                                                          32    0.05    1.17  1.0000
   1  -4  31     335     204                                                         370    0.14    0.52  1.0000
   1  -3 -29     141     136                                                          77    1.10   -1.38  1.0000
   1  -3 -28     107     118                                                         133    0.74   -0.07  1.0000
   1  -3 -27     362     113                                                         494    1.50   -1.95  1.0000
   1  -3 -26     587      98                                                         754   -1.47   -1.02  1.0000
   1  -3 -25     231     113                                                         174    1.01    0.91  1.0000
   1  -3 -24     442     105                                                         485    1.53   -2.53  1.0000
   1  -3 -23    2209     141                                                        2296    0.90   -0.93  1.0000
   1  -3 -22    2277     120                                                        2570    2.36    4.48  1.0000
   1  -3 -21      31      98                                                          58   -1.25   -1.26  1.0000
   1  -3 -20     827      84                                                         409   -3.04    4.00  1.0000
   1  -3 -19    1848     113                                                        2162   -1.03    3.36  1.0000
   1  -3 -18    2635     114                                                        2694   -2.09   -3.36  1.0000
   1  -3 -17      63      56                                                         246    4.00    8.00  1.0000
   1  -3 -16      55      76                                                         575    9.09   -0.43  1.0000
   1  -3 -15    9555     178                                                        7427    8.00   -1.44  1.0000
   1  -3 -14   13353     261                                                       12054   -3.33    0.71  1.0000
   1  -3 -13    7887     234                                                       10518   11.68    6.14  1.0000
   1  -3 -12   26241     467                                                       22868   -3.31   -4.96  1.0000
   1  -3 -11   17109     527                                                       26617   15.12   -9.61  1.0000
   1  -3 -10    3284      60                                                         572   20.19   -3.01  1.0000
   1  -3  -9    3502     170                                                        6899   13.98    7.74  1.0000
   1  -3  -8   20957     265                                                       13127   20.49  -15.44  1.0000
   1  -3  -7   37427    1512                                                       90243   32.32  -49.57  1.0000
   1  -3  -6     275      70                                                        1786   18.03   17.77  1.0000
   1  -3  -5   56035     609                                                       33980   29.91  -15.49  1.0000
   1  -3  -4    4835     227                                                       11258  -32.20    4.48  1.0000
   1  -3  -2  135269     303                                                       17651  103.78  -90.27  1.0000
   1  -3  -1  147036     237                                                       11570   79.69 -130.25  1.0000
   1  -3   0    3087     131                                                        6725    0.02  -14.56  1.0000
   1  -3   1  143685     215                                                       10828   79.95  129.38  1.0000
   1  -3   2  134114     327                                                       17188 -104.17  -90.13  1.0000
   1  -3   3  158274     984                                                       57091   82.40  -29.46  1.0000
   1  -3   4    4948     242                                                       11413   31.29    2.64  1.0000
   1  -3   5   54890     599                                                       33119   29.86   15.73  1.0000
   1  -3   6     276      97                                                        2179  -18.15   17.39  1.0000
   1  -3   7   35263    1460                                                       86747   32.38   49.39  1.0000
   1  -3   8   20047     275                                                       12382  -20.65  -15.97  1.0000
   1  -3   9    3705     175                                                        7056   12.83   -7.98  1.0000
   1  -3  10    3107      77                                                         526  -19.76   -3.09  1.0000
   1  -3  11   15781     478                                                       24841   14.38   10.23  1.0000
   1  -3  12   26946     480                                                       23505    3.38   -4.95  1.0000
   1  -3  13    7667     242                                                       10213   11.50   -6.03  1.0000
   1  -3  14   13045     260                                                       11762    3.51    0.44  1.0000
   1  -3  15    9272     176                                                        7150    8.33    1.29  1.0000
   1  -3  16      37      81                                                         493   -8.86   -0.34  1.0000
   1  -3  17      74      69                                                         316    4.22   -8.03  1.0000
   1  -3  18    2496     113                                                        2559    2.35   -3.72  1.0000
   1  -3  19    1788     119                                                        2081   -0.95   -3.28  1.0000
   1  -3  20     934      85                                                         505    2.89    3.76  1.0000
   1  -3  21      25     107                                                          46   -1.47    1.16  1.0000
   1  -3  22    2247     111                                                        2468   -2.64    4.21  1.0000
   1  -3  23    2135     147                                                        2210    0.67    0.49  1.0000
   1  -3  24     470      97                                                         521   -1.82   -2.88  1.0000
   1  -3  25     361     116                                                         296    0.91   -0.87  1.0000
   1  -3  26     658     105                                                         811    1.38   -0.78  1.0000
   1  -3  27     195     128                                                         305    1.79    1.49  1.0000
   1  -3  28     199     124                                                         248   -1.09    0.03  1.0000
   1  -3  29      10     108                                                         -40    1.02    1.39  1.0000
   1  -3  30      25     136                                                         -84   -2.59   -0.93  1.0000
   1  -3  31     151     149                                                         182    0.70   -1.24  1.0000
   1  -2 -29      14      99                                                          63    0.44    2.37  1.0000
   1  -2 -28     552     118                                                         437    1.20    0.84  1.0000
   1  -2 -27      54      93                                                         109   -0.16    1.95  1.0000
   1  -2 -26    1055     123                                                        1057   -0.43   -0.01  1.0000
   1  -2 -25    1036      97                                                         785   -0.72   -2.90  1.0000
   1  -2 -24     274     125                                                         313    0.38   -2.42  1.0000
   1  -2 -23     126      92                                                         231   -0.36   -4.22  1.0000
   1  -2 -22    1217     108                                                         912   -2.61   -3.45  1.0000
   1  -2 -21     841     109                                                        1373    9.31   -2.07  1.0000
   1  -2 -20     432      94                                                         710    2.09    2.49  1.0000
   1  -2 -19     232      78                                                         298   -1.02    0.65  1.0000
   1  -2 -18     560      75                                                         212    5.82   -2.36  1.0000
   1  -2 -17     542      80                                                         899    1.64   -7.73  1.0000
   1  -2 -16    3249      89                                                        2224  -13.28   -7.05  1.0000
   1  -2 -15    2390     152                                                        5504   -1.36  -15.43  1.0000
   1  -2 -14   45354    1022                                                       57637  -14.43   -5.36  1.0000
   1  -2 -13   33672     540                                                       26593   -0.47  -16.99  1.0000
   1  -2 -12   30693     679                                                       33835   -6.21   -4.07  1.0000
   1  -2 -11     556      55                                                         461   -7.52   -4.37  1.0000
   1  -2 -10    5223      67                                                        1398   26.40  -19.81  1.0000
   1  -2  -9    2799      61                                                         637  -16.05  -18.28  1.0000
   1  -2  -8   19943     420                                                       22607    4.29   -3.98  1.0000
   1  -2  -7   96185    1864                                                      111777   14.27  -21.05  1.0000
   1  -2  -6   59766     830                                                       47413   -6.78  -13.27  1.0000
   1  -2  -5   71508     696                                                       38210   29.44   47.18  1.0000
   1  -2  -4   71846     410                                                       22177   74.28   -9.85  1.0000
   1  -2  -3  120554     559                                                       31680   63.72  -71.55  1.0000
   1  -2  -2    1530     221                                                        8851  -38.23   -2.39  1.0000
   1  -2   0     549      35                                                         432   -3.02    2.37  1.0000
   1  -2   1  270078     695                                                       35049    9.76  183.21  1.0000
   1  -2   2    1517     174                                                        8402   37.53   -3.50  1.0000
   1  -2   3  117902     557                                                       30924   62.02   71.20  1.0000
   1  -2   4   72082     405                                                       22141  -75.09   -9.51  1.0000
   1  -2   5   70707     723                                                       38117   28.92  -45.53  1.0000
   1  -2   6   60669     829                                                       47523    8.21  -13.30  1.0000
   1  -2   7   92751    1815                                                      108146   15.68   21.69  1.0000
   1  -2   8   18530     427                                                       21796   -5.62   -4.02  1.0000
   1  -2   9    2881      75                                                         713  -16.15   18.21  1.0000
   1  -2  10    5171      74                                                        1424  -26.37  -19.13  1.0000
   1  -2  11     590      75                                                         510   -7.47    4.45  1.0000
   1  -2  12   29642     615                                                       32617    6.03   -3.92  1.0000
   1  -2  13   33743     533                                                       26550   -0.69   17.04  1.0000
   1  -2  14   44148     992                                                       56462   14.58   -5.51  1.0000
   1  -2  15    2478     158                                                        5663   -1.75   15.36  1.0000
   1  -2  16    3211     103                                                        2190   12.77   -6.86  1.0000
   1  -2  17     455      76                                                         794    1.10    7.62  1.0000
   1  -2  18     494      78                                                         178   -5.56   -2.22  1.0000
   1  -2  19     115      81                                                         162   -0.99   -0.80  1.0000
   1  -2  20     359      94                                                         602   -2.48    2.03  1.0000
   1  -2  21     878     122                                                        1433    9.45    2.04  1.0000
   1  -2  22    1181     113                                                         854    2.81   -3.02  1.0000
   1  -2  23      56     122                                                         119   -0.61    4.26  1.0000
   1  -2  24     399     114                                                         451    0.34   -1.14  1.0000
   1  -2  25     964     132                                                         748   -0.53    2.50  1.0000
   1  -2  26     998     107                                                        1096    0.74   -0.81  1.0000
   1  -2  27     131     112                                                         212    0.21   -1.83  1.0000
   1  -2  28     267      96                                                         212   -0.95    0.46  1.0000
   1  -2  29      16     115                                                          66    0.64   -2.32  1.0000
   1  -2  30     199     139                                                         182    0.34   -0.06  1.0000
   1  -2  31      21     141                                                          17    0.18    0.38  1.0000
   1  -1 -30      88     217                                                         118   -1.15    0.00  1.0000
   1  -1 -29    1003     127                                                         907    0.03    0.89  1.0000
   1  -1 -28     242      98                                                         381   -1.97   -2.02  1.0000
   1  -1 -27      77     110                                                         128    1.51   -0.55  1.0000
   1  -1 -26    1124     105                                                        1057   -1.65   -2.67  1.0000
   1  -1 -25    2261     127                                                        2159   -0.31   -0.69  1.0000
   1  -1 -24    1611     120                                                        1932   -1.74   -2.54  1.0000
   1  -1 -23     735      99                                                         841    0.81   -3.50  1.0000
   1  -1 -22     168      93                                                         242   -0.91   -1.14  1.0000
   1  -1 -21    1664     100                                                        1617    1.38   -3.39  1.0000
   1  -1 -20      59      85                                                         476    7.30   -2.73  1.0000
   1  -1 -19     465      76                                                         364    4.57   -7.85  1.0000
   1  -1 -18    3388     127                                                        3040   -0.92    3.60  1.0000
   1  -1 -17     437      68                                                         515    1.66   -0.95  1.0000
   1  -1 -16    4664     172                                                        5798   -5.52    1.61  1.0000
   1  -1 -15    4942     160                                                        5835    2.51   -3.23  1.0000
   1  -1 -14    6167     212                                                        7546    9.99   -1.39  1.0000
   1  -1 -13   18132     446                                                       22635    3.79  -10.29  1.0000
   1  -1 -12   14267     293                                                       12741   10.99    1.94  1.0000
   1  -1 -11    1021     215                                                        9481   -8.36  -35.05  1.0000
   1  -1 -10    7928     297                                                       14517   19.78  -13.78  1.0000
   1  -1  -9    3595      63                                                         367  -10.05   22.31  1.0000
   1  -1  -8   39676    1494                                                       86020  -51.83    2.00  1.0000
   1  -1  -7   51450    1840                                                      109186  -37.08   57.48  1.0000
   1  -1  -6   30814     497                                                       25491   -3.48   39.48  1.0000
   1  -1  -5   25717     354                                                       18045  -11.12  -24.62  1.0000
   1  -1  -4    2989      82                                                        2734   42.57  -21.40  1.0000
   1  -1  -3   22907     256                                                       13577   21.87   -7.16  1.0000
   1  -1  -2   21913     299                                                       11545    4.14  -25.54  1.0000
   1  -1   2   20961     230                                                       11280   -3.44  -24.65  1.0000
   1  -1   3   22925     259                                                       13573   22.29    6.91  1.0000
   1  -1   4    3184      77                                                        2461  -42.53  -23.43  1.0000
   1  -1   5   25255     353                                                       17584  -11.24   23.28  1.0000
   1  -1   6   30689     468                                                       25595    3.07   39.34  1.0000
   1  -1   7   51444    1856                                                      108856  -36.64  -57.71  1.0000
   1  -1   8   37020    1422                                                       82548   52.27    1.98  1.0000
   1  -1   9    3462      70                                                         318   -9.11  -21.89  1.0000
   1  -1  10    8365     308                                                       14917  -19.32  -14.92  1.0000
   1  -1  11     977     214                                                        9435   -7.08   35.58  1.0000
   1  -1  12   13445     284                                                       11848  -10.63    1.48  1.0000
   1  -1  13   18250     438                                                       22797    3.95   10.16  1.0000
   1  -1  14    6086     199                                                        7423  -10.14   -1.67  1.0000
   1  -1  15    5051     159                                                        5920    2.72    2.20  1.0000
   1  -1  16    4497     161                                                        5642    5.73    1.61  1.0000
   1  -1  17     521      75                                                         626    1.70    1.17  1.0000
   1  -1  18    3639     130                                                        3233    1.13    3.63  1.0000
   1  -1  19     374      71                                                         249    4.42    7.91  1.0000
   1  -1  20      21      81                                                         354   -7.42   -2.63  1.0000
   1  -1  21    1686     100                                                        1637    1.33    3.29  1.0000
   1  -1  22     303     116                                                         380    0.53   -1.16  1.0000
   1  -1  23     732     109                                                         823    1.05    3.61  1.0000
   1  -1  24    1643     142                                                        1860    0.98   -2.91  1.0000
   1  -1  25    2123     115                                                        1967   -0.04    2.04  1.0000
   1  -1  26    1145     140                                                        1126    1.14   -2.55  1.0000
   1  -1  27       2     108                                                          14    1.46    0.28  1.0000
   1  -1  28     168     124                                                         274    1.82   -1.87  1.0000
   1  -1  29    1052     110                                                         940   -0.01   -1.00  1.0000
   1  -1  30     123     150                                                         164    1.31    0.03  1.0000
   1  -1  31     112     205                                                         148   -1.31   -0.88  1.0000
   1   0 -30     129     229                                                         215   -1.83    0.22  1.0000
   1   0 -29     300     112                                                         280    0.00   -0.32  1.0000
   1   0 -28      14     114                                                          31    0.97    0.24  1.0000
   1   0 -27    1153     116                                                        1198   -0.36    0.36  1.0000
   1   0 -26    1743     141                                                        2013   -1.72    0.23  1.0000
   1   0 -25     349     100                                                         463   -0.25   -1.56  1.0000
   1   0 -24    2522     151                                                        2633    0.60   -0.49  1.0000
   1   0 -23      58      78                                                          66    0.05   -0.29  1.0000
   1   0 -22      45     111                                                         128   -2.53    0.08  1.0000
   1   0 -21       9     103                                                         -22    0.03    1.65  1.0000
   1   0 -20      76      89                                                          74   -0.09    0.25  1.0000
   1   0 -19      19      87                                                         397    0.07   -8.57  1.0000
   1   0 -18      58      65                                                         109   -9.90    0.20  1.0000
   1   0 -17    1117      83                                                         401    1.18    7.61  1.0000
   1   0 -16      58      64                                                          53   -0.19   -0.05  1.0000
   1   0 -15     402     110                                                        2607   -0.06   17.07  1.0000
   1   0 -14    2526      86                                                         876   11.38    0.01  1.0000
   1   0 -13    8462     142                                                        4742   -0.08   12.73  1.0000
   1   0 -12    4874      79                                                        1832  -14.87    0.07  1.0000
   1   0 -11    2792      90                                                        2281    0.03   -2.80  1.0000
   1   0 -10    2646     101                                                        3190  -59.42   -0.30  1.0000
   1   0  -9   43343    1144                                                       63025    0.17  -23.60  1.0000
   1   0  -8   13974     758                                                       40782  -46.09   -1.26  1.0000
   1   0  -7   27028     311                                                       14078   -3.32  -25.76  1.0000
   1   0  -6   20315    1341                                                       78096  -75.39   -0.78  1.0000
   1   0  -5  108821     481                                                       25134    0.60  -94.34  1.0000
   1   0  -4    4876      33                                                         165   31.38   -0.03  1.0000
   1   0  -2   30106     110                                                        3727   61.92    0.39  1.0000
   1   0   4    4885      30                                                         141  -31.95   -0.68  1.0000
   1   0   5  109413     478                                                       24934    0.22   95.18  1.0000
   1   0   6   20906    1357                                                       78506   74.66    0.35  1.0000
   1   0   7   25969     305                                                       13401    4.70   26.12  1.0000
   1   0   8   12886     712                                                       38872   46.05    1.06  1.0000
   1   0   9   43321    1107                                                       62850    0.29   23.43  1.0000
   1   0  10    2734     106                                                        3049   59.19   -0.03  1.0000
   1   0  11    2839      97                                                        2317   -0.07    2.83  1.0000
   1   0  12    5200      75                                                        2017   14.98   -0.27  1.0000
   1   0  13    8350     144                                                        4642    0.12  -12.80  1.0000
   1   0  14    2408      88                                                         798  -11.47    0.28  1.0000
   1   0  15     439      94                                                        2685    0.20  -16.99  1.0000
   1   0  16     137      81                                                         130    0.17   -0.01  1.0000
   1   0  17    1115      64                                                         395   -0.32   -7.46  1.0000
   1   0  18     284      58                                                           2   10.06    0.01  1.0000
   1   0  19       3      89                                                         302    0.17    8.59  1.0000
   1   0  20     145      81                                                         144    0.09   -0.54  1.0000
   1   0  21     193     107                                                         120    0.15   -1.62  1.0000
   1   0  22      21     102                                                         -27    2.55   -0.07  1.0000
   1   0  23     161     127                                                         178   -0.02    0.36  1.0000
   1   0  24    2553     128                                                        2651   -0.53    0.46  1.0000
   1   0  25     189     104                                                         273    0.18    1.52  1.0000
   1   0  26    1505     119                                                        1759    1.73   -0.28  1.0000
   1   0  27    1215     123                                                        1259    0.30   -0.34  1.0000
   1   0  28      60     106                                                          90   -0.93    0.31  1.0000
   1   0  29     110      97                                                          98   -0.08    0.32  1.0000
   1   0  30      31     157                                                          77    1.78   -0.13  1.0000
   1   0  31      90     214                                                         148    0.00   -1.46  1.0000
   1   1 -30       7     149                                                         -34    1.46   -0.03  1.0000
   1   1 -29     968     128                                                         864    0.01   -0.99  1.0000
   1   1 -28     244      83                                                         367    1.77   -1.85  1.0000
   1   1 -27      71     119                                                         120    1.50    0.43  1.0000
   1   1 -26    1115     107                                                        1105    1.07   -2.59  1.0000
   1   1 -25    2678     143                                                        2478   -0.18    2.10  1.0000
   1   1 -24    1816     126                                                        2040    0.90   -3.10  1.0000
   1   1 -23     715     102                                                         794    1.08    3.47  1.0000
   1   1 -22     184     111                                                         244    0.54   -1.14  1.0000
   1   1 -21    1744      99                                                        1671    1.46    3.18  1.0000
   1   1 -20       4     100                                                         257   -7.34   -2.61  1.0000
   1   1 -19     364      91                                                         234    4.34    7.77  1.0000
   1   1 -18    3548     123                                                        3144    1.19    3.40  1.0000
   1   1 -17     483      86                                                         575    1.36    1.09  1.0000
   1   1 -16    4630     160                                                        5756    5.81    1.39  1.0000
   1   1 -15    5084     147                                                        5981    2.75    2.39  1.0000
   1   1 -14    6360     194                                                        7710   -9.82   -1.49  1.0000
   1   1 -13   18253     479                                                       22888    3.95   10.44  1.0000
   1   1 -12   14010     260                                                       12387  -10.72    1.52  1.0000
   1   1 -11     986     199                                                        9425   -7.12   35.47  1.0000
   1   1 -10    8303     322                                                       14916  -19.50  -14.62  1.0000
   1   1  -9    3738      69                                                         394   -8.49  -21.94  1.0000
   1   1  -8   36903    1443                                                       82426   52.32    1.99  1.0000
   1   1  -7   51194    1824                                                      108219  -36.46  -57.58  1.0000
   1   1  -6   30553     475                                                       25670    2.69   39.24  1.0000
   1   1  -5   25601     349                                                       17948  -11.11   23.57  1.0000
   1   1  -4    3077      81                                                        2698  -42.40  -23.39  1.0000
   1   1  -3   23569     263                                                       13920   22.47    7.24  1.0000
   1   1  -2   21102     220                                                       11319   -3.61  -24.73  1.0000
   1   1   2   21946     231                                                       11956    4.06  -24.33  1.0000
   1   1   3   23709     262                                                       14127   21.92   -7.35  1.0000
   1   1   4    3151      79                                                        2443   42.33  -22.91  1.0000
   1   1   5   25264     353                                                       17745  -10.92  -24.31  1.0000
   1   1   6   30995     480                                                       25551   -3.64   38.90  1.0000
   1   1   7   51700    1826                                                      109400  -36.61   58.03  1.0000
   1   1   8   38792    1515                                                       84941  -52.04    2.29  1.0000
   1   1   9    3601      73                                                         350  -10.13   22.70  1.0000
   1   1  10    8571     306                                                       15331   19.56  -13.53  1.0000
   1   1  11    1174     227                                                        9926   -8.03  -35.10  1.0000
   1   1  12   13668     271                                                       12189   10.78    1.90  1.0000
   1   1  13   18525     449                                                       23140    3.78  -10.52  1.0000
   1   1  14    5970     172                                                        7313    9.91   -1.37  1.0000
   1   1  15    5296     184                                                        6214    2.47   -3.28  1.0000
   1   1  16    4670     162                                                        5757   -5.58    1.36  1.0000
   1   1  17     507      61                                                         595    1.66   -0.99  1.0000
   1   1  18    3475     133                                                        3140   -0.88    3.28  1.0000
   1   1  19     357      95                                                         216    4.38   -7.57  1.0000
   1   1  20       6      64                                                         278    7.34   -2.84  1.0000
   1   1  21    1726     117                                                        1659    1.44   -3.20  1.0000
   1   1  22     173      92                                                         249   -0.97   -1.09  1.0000
   1   1  23     718     126                                                         818    0.83   -3.47  1.0000
   1   1  24    1608     132                                                        1916   -1.67   -2.49  1.0000
   1   1  25    2460     116                                                        2344   -0.37   -0.69  1.0000
   1   1  26     972     137                                                         917   -1.58   -2.73  1.0000
   1   1  27      76      85                                                         127    1.54   -0.75  1.0000
   1   1  28     230     118                                                         361   -1.88   -2.16  1.0000
   1   1  29     811     106                                                         726   -0.03    0.87  1.0000
   1   1  30       5     242                                                        -136   -1.28   -0.06  1.0000
   1   2 -30      24     173                                                          20   -0.25    0.08  1.0000
   1   2 -29      45     105                                                         118   -0.59    2.28  1.0000
   1   2 -28     431     108                                                         359    1.02   -0.42  1.0000
   1   2 -27      12      95                                                          45   -0.21    1.93  1.0000
   1   2 -26     951     112                                                        1039   -0.75    0.75  1.0000
   1   2 -25    1110     120                                                         876    0.38   -2.44  1.0000
   1   2 -24     385     122                                                         427   -0.21    1.14  1.0000
   1   2 -23      41      93                                                          86    0.61   -4.23  1.0000
   1   2 -22    1371     103                                                        1021   -2.79    2.95  1.0000
   1   2 -21     782      99                                                        1297   -9.52   -2.03  1.0000
   1   2 -20     417     113                                                         680    2.28   -2.23  1.0000
   1   2 -19     188      79                                                         234    0.69    0.99  1.0000
   1   2 -18     578      71                                                         224    5.24    2.44  1.0000
   1   2 -17     506      82                                                         867   -0.99   -7.51  1.0000
   1   2 -16    3260     104                                                        2274  -12.76    6.62  1.0000
   1   2 -15    2309     141                                                        5398    1.60  -15.42  1.0000
   1   2 -14   44579     984                                                       57005  -14.68    5.48  1.0000
   1   2 -13   34109     490                                                       26920    0.36  -17.38  1.0000
   1   2 -12   30444     661                                                       33488   -6.02    3.96  1.0000
   1   2 -11     599      72                                                         517    7.43   -4.38  1.0000
   1   2 -10    5239      81                                                        1479   26.24   19.08  1.0000
   1   2  -9    2786      64                                                         627   15.79  -18.04  1.0000
   1   2  -8   18787     423                                                       22051    5.46    4.50  1.0000
   1   2  -7   94263    1880                                                      109737  -15.70  -21.65  1.0000
   1   2  -6   60460     828                                                       47206   -8.45   13.33  1.0000
   1   2  -5   69799     664                                                       37115  -29.33   45.75  1.0000
   1   2  -4   72148     423                                                       22255   75.56    8.85  1.0000
   1   2  -3  118357     577                                                       30967  -61.79  -71.63  1.0000
   1   2  -2    1530     181                                                        8308  -37.16    3.66  1.0000
   1   2  -1  267821     610                                                       34684   -9.63 -182.55  1.0000
   1   2   0     888      57                                                         740    2.11   -1.90  1.0000
   1   2   1  274894     643                                                       36013   -9.18  184.33  1.0000
   1   2   2    1723     174                                                        8912   36.99    3.27  1.0000
   1   2   3  117387     560                                                       31118  -63.81   69.68  1.0000
   1   2   4   72313     424                                                       22293  -75.54    9.00  1.0000
   1   2   5   72471     709                                                       38962  -29.48  -46.68  1.0000
   1   2   6   61126     868                                                       48803    6.78   12.99  1.0000
   1   2   7   90339    1803                                                      105881  -14.19   21.44  1.0000
   1   2   8   20495     430                                                       23075   -3.94    4.48  1.0000
   1   2   9    2981      71                                                         789   15.68   18.14  1.0000
   1   2  10    5312      62                                                        1465  -26.20   19.77  1.0000
   1   2  11     567      56                                                         462    7.28    4.05  1.0000
   1   2  12   30217     617                                                       33236    6.09    3.94  1.0000
   1   2  13   33292     506                                                       26266    0.46   16.96  1.0000
   1   2  14   44610    1008                                                       56750   14.35    5.38  1.0000
   1   2  15    2449     155                                                        5566    1.02   15.47  1.0000
   1   2  16    3006      95                                                        2029   13.10    6.77  1.0000
   1   2  17     528      82                                                         883   -1.57    7.73  1.0000
   1   2  18     513      81                                                         176   -5.56    2.50  1.0000
   1   2  19     144      71                                                         180    0.65   -0.87  1.0000
   1   2  20     328      92                                                         584   -2.02   -2.67  1.0000
   1   2  21     748     117                                                        1247   -9.52    2.05  1.0000
   1   2  22    1198     104                                                         892    2.63    3.40  1.0000
   1   2  23      62     110                                                         122    0.29    4.29  1.0000
   1   2  24     139     119                                                         164   -0.36    2.49  1.0000
   1   2  25    1106     108                                                         845    0.54    2.80  1.0000
   1   2  26    1245     120                                                        1243    0.35   -0.03  1.0000
   1   2  27     121     111                                                         206    0.10   -2.06  1.0000
   1   2  28     276     108                                                         201   -1.30   -0.63  1.0000
   1   2  29      59     121                                                         139   -0.49   -2.28  1.0000
   1   2  30     110     228                                                         103    0.20    0.25  1.0000
   1   3 -29     198     107                                                         125    0.92    1.49  1.0000
   1   3 -28     139      97                                                         181   -1.11    0.02  1.0000
   1   3 -27     369     124                                                         520    1.79    1.66  1.0000
   1   3 -26     682     114                                                         821    1.29   -0.66  1.0000
   1   3 -25     222     117                                                         171    0.93   -0.80  1.0000
   1   3 -24     538     103                                                         596   -1.74   -2.83  1.0000
   1   3 -23    2339     125                                                        2442    0.85    0.58  1.0000
   1   3 -22    2459     132                                                        2698   -2.82    4.38  1.0000
   1   3 -21      63      85                                                         102   -1.49    1.24  1.0000
   1   3 -20     926      89                                                         494    2.89    3.91  1.0000
   1   3 -19    1794     117                                                        2081   -0.98   -3.08  1.0000
   1   3 -18    2645     119                                                        2701    2.29   -3.58  1.0000
   1   3 -17      68      86                                                         284    4.07   -8.04  1.0000
   1   3 -16      20      75                                                         423   -8.82   -0.68  1.0000
   1   3 -15    9565     185                                                        7414    8.27    1.31  1.0000
   1   3 -14   12847     240                                                       11551    3.49    0.57  1.0000
   1   3 -13    7682     224                                                       10274   11.57   -5.88  1.0000
   1   3 -12   26437     455                                                       23031    3.37   -4.96  1.0000
   1   3 -11   16077     462                                                       25166   14.41   10.07  1.0000
   1   3 -10    3300      55                                                         613  -19.74   -3.01  1.0000
   1   3  -9    3344     155                                                        6573   13.01   -7.99  1.0000
   1   3  -8   20578     278                                                       12874  -20.48  -15.90  1.0000
   1   3  -7   34495    1476                                                       85529   32.40   49.36  1.0000
   1   3  -6     259      92                                                        1841  -18.19   17.42  1.0000
   1   3  -5   53297     574                                                       31734   30.06   15.63  1.0000
   1   3  -4    4969     234                                                       11432   31.14    2.42  1.0000
   1   3  -3  159607    1009                                                       57637   82.55  -29.95  1.0000
   1   3  -2  133531     332                                                       17230 -104.25  -89.48  1.0000
   1   3  -1  144697     218                                                       11169   79.62  129.45  1.0000
   1   3   0    3197     153                                                        6860    0.03  -14.47  1.0000
   1   3   1  145188     234                                                       11100   79.40 -130.33  1.0000
   1   3   2  133038     334                                                       16949  103.94  -89.83  1.0000
   1   3   3  162688    1046                                                       59406   82.50   30.42  1.0000
   1   3   4    4981     235                                                       11498  -31.68    3.26  1.0000
   1   3   5   52449     582                                                       30832   30.46  -15.65  1.0000
   1   3   6     271      91                                                        2109   18.19   17.49  1.0000
   1   3   7   35152    1484                                                       86881   32.72  -49.49  1.0000
   1   3   8   20600     271                                                       12872   20.73  -16.38  1.0000
   1   3   9    3699     179                                                        7168   13.56    7.98  1.0000
   1   3  10    2917      58                                                         424   20.10   -3.22  1.0000
   1   3  11   17418     521                                                       26940   15.03   -9.56  1.0000
   1   3  12   27294     480                                                       23717   -3.38   -5.21  1.0000
   1   3  13    8095     248                                                       10762   11.63    6.02  1.0000
   1   3  14   13162     276                                                       11874   -3.32    0.71  1.0000
   1   3  15    9575     197                                                        7462    8.09   -1.29  1.0000
   1   3  16      44      77                                                         531    9.01   -0.71  1.0000
   1   3  17      62      59                                                         221    4.06    8.06  1.0000
   1   3  18    2691     111                                                        2758   -1.95   -3.25  1.0000
   1   3  19    1770     112                                                        2085   -1.10    3.30  1.0000
   1   3  20     913     108                                                         461   -3.13    4.10  1.0000
   1   3  21      99      89                                                         146   -1.38   -1.19  1.0000
   1   3  22    2467     127                                                        2755    2.48    4.44  1.0000
   1   3  23    2282     157                                                        2371    0.95   -1.07  1.0000
   1   3  24     429     113                                                         464    1.55   -2.43  1.0000
   1   3  25     247     105                                                         189    1.01    0.84  1.0000
   1   3  26     712     128                                                         891   -1.47   -0.99  1.0000
   1   3  27     220     108                                                         326    1.52   -2.07  1.0000
   1   3  28      71     119                                                          93    0.76   -0.11  1.0000
   1   3  29      63     120                                                          23    1.08   -1.45  1.0000
   1   4 -31     256     205                                                         284   -0.17   -0.47  1.0000
   1   4 -30      95     250                                                         125   -0.01   -1.14  1.0000
   1   4 -29     598     154                                                         517   -0.23   -0.94  1.0000
   1   4 -28     408     118                                                         552   -2.40   -2.37  1.0000
   1   4 -27      51      84                                                          53   -0.26   -1.47  1.0000
   1   4 -26    1798     139                                                        1816   -0.28   -0.33  1.0000
   1   4 -25     125     107                                                         102   -0.60    0.53  1.0000
   1   4 -24    1961     109                                                        1716    2.89   -3.22  1.0000
   1   4 -23    2264     157                                                        3291   -1.31    5.39  1.0000
   1   4 -22     257      96                                                         102    2.72   -2.30  1.0000
   1   4 -21    1376     103                                                        2038    3.13    4.13  1.0000
   1   4 -20    1760     103                                                        1389   -2.29    1.35  1.0000
   1   4 -19    3981     154                                                        4430    0.40   -1.87  1.0000
   1   4 -18    3190     127                                                        3968   -6.21   -1.72  1.0000
   1   4 -17     539      80                                                          94   -6.15   11.92  1.0000
   1   4 -16    1183      95                                                        2434    6.19   -8.65  1.0000
   1   4 -15    3771      87                                                        1779   -2.13   14.20  1.0000
   1   4 -14    5392      86                                                        2055   15.97    0.80  1.0000
   1   4 -13   15449     342                                                       17527    5.01   -1.50  1.0000
   1   4 -12    3013      84                                                        2244   -3.31   -3.66  1.0000
   1   4 -11    7267     192                                                        8061    1.63    4.46  1.0000
   1   4 -10     945      73                                                        1412    4.43  -17.25  1.0000
   1   4  -9    4226     188                                                        7534    3.64   12.36  1.0000
   1   4  -8   11256     155                                                        6178    7.43  -25.82  1.0000
   1   4  -7   17020     331                                                       16319    7.61   -4.09  1.0000
   1   4  -6    9667     281                                                       14183  -15.95   -5.41  1.0000
   1   4  -5   70280    1153                                                       66906   17.65  -14.27  1.0000
   1   4  -4   62330     736                                                       40906  -38.92   -0.71  1.0000
   1   4  -3   55786    1355                                                       79455   32.42   35.67  1.0000
   1   4  -2   52768    1078                                                       63263   11.91    5.33  1.0000
   1   4  -1   47494     285                                                       11906  -21.36   56.15  1.0000
   1   4   0     903     146                                                        6300    0.93  -27.14  1.0000
   1   4   1   46028     257                                                       11733  -19.34  -55.60  1.0000
   1   4   2   52747    1114                                                       63616  -12.35    4.72  1.0000
   1   4   3   56800    1658                                                       81286   29.32  -35.79  1.0000
   1   4   4   64499     782                                                       43134   36.66   -1.66  1.0000
   1   4   5   69139    1127                                                       66010   18.26   15.19  1.0000
   1   4   6   10023     300                                                       14591   15.76   -5.07  1.0000
   1   4   7   18132     350                                                       17054    7.26    4.76  1.0000
   1   4   8   11172     143                                                        6199   -7.05  -25.96  1.0000
   1   4   9    4398     189                                                        7786    5.03  -11.49  1.0000
   1   4  10     996      71                                                        1431   -3.87  -16.81  1.0000
   1   4  11    7501     204                                                        8262    1.77   -4.38  1.0000
   1   4  12    3377      94                                                        2543    2.64   -3.85  1.0000
   1   4  13   16297     381                                                       18431    4.94    1.22  1.0000
   1   4  14    5726     103                                                        2188  -16.41    0.67  1.0000
   1   4  15    3687      94                                                        1740   -2.54  -14.39  1.0000
   1   4  16    1139     112                                                        2377   -6.21   -8.73  1.0000
   1   4  17     565      80                                                         172   -6.12  -12.12  1.0000
   1   4  18    3157     142                                                        3937    5.99   -1.85  1.0000
   1   4  19    3902     134                                                        4293    0.31    1.66  1.0000
   1   4  20    1891     107                                                        1456    2.77    0.97  1.0000
   1   4  21    1447     114                                                        2101    2.98   -4.10  1.0000
   1   4  22     501     102                                                         254   -2.78   -2.65  1.0000
   1   4  23    2112     133                                                        3101   -1.40   -5.36  1.0000
   1   4  24    1890     116                                                        1676   -3.23   -3.21  1.0000
   1   4  25       2      92                                                         -57   -0.52   -0.55  1.0000
   1   4  26    1757     128                                                        1740    0.00   -0.26  1.0000
   1   4  27     123      93                                                         126   -0.14    1.23  1.0000
   1   4  28     218     121                                                         319    2.40   -2.17  1.0000
   1   4  29     711     122                                                         617    0.10    1.01  1.0000
   1   4  30     129     146                                                         172    0.26   -1.13  1.0000
   1   5 -31       3     251                                                         -37   -0.79    0.49  1.0000
   1   5 -30       4     229                                                         -67    0.36   -1.00  1.0000
   1   5 -29     231     128                                                         195   -0.30   -1.40  1.0000
   1   5 -28      11      82                                                          16   -0.34    0.08  1.0000
   1   5 -27     199     116                                                         174   -0.17    2.81  1.0000
   1   5 -26     368     125                                                         586   -0.14    3.17  1.0000
   1   5 -25     853      96                                                         884    0.08   -0.31  1.0000
   1   5 -24    1858     147                                                        2042    1.29    2.18  1.0000
   1   5 -23      42     119                                                          44   -1.03   -0.62  1.0000
   1   5 -22    1814     104                                                        2261    1.90   -2.61  1.0000
   1   5 -21      19      79                                                        -116   -0.12   -2.40  1.0000
   1   5 -20    2072     122                                                        2046   -1.24    0.61  1.0000
   1   5 -19    5724     152                                                        4769   -4.59    1.45  1.0000
   1   5 -18     774     110                                                        1452    0.98    7.38  1.0000
   1   5 -17    2696     149                                                        4853  -13.34   -1.29  1.0000
   1   5 -16     330      68                                                         416    1.37   -0.17  1.0000
   1   5 -15    3964      85                                                        1822  -11.30    0.69  1.0000
   1   5 -14     399      63                                                         860  -11.14   -8.12  1.0000
   1   5 -13     688      58                                                         242   -2.62   18.06  1.0000
   1   5 -12   32618     787                                                       42191  -15.22  -17.64  1.0000
   1   5 -11    7880     162                                                        6822   -4.29   -4.23  1.0000
   1   5 -10    3761      93                                                        2183   -1.48   13.41  1.0000
   1   5  -9    3937     249                                                       10517  -23.65  -23.23  1.0000
   1   5  -8    1358      48                                                         134   13.18    5.01  1.0000
   1   5  -7   18114     456                                                       22335  -19.25    1.74  1.0000
   1   5  -6   29484     556                                                       29551    5.08    2.54  1.0000
   1   5  -5   30230     674                                                       36717  -12.81   13.85  1.0000
   1   5  -4   37212     744                                                       41184  -32.18  -14.45  1.0000
   1   5  -3  136886    2442                                                      126350   22.06   42.13  1.0000
   1   5  -2   20775    1308                                                       76313   55.66  -48.47  1.0000
   1   5  -1  163570    1316                                                       76045 -106.36   15.71  1.0000
   1   5   0   92925    1051                                                       59787    0.01   33.21  1.0000
   1   5   1  168374    1584                                                       79527 -106.99  -15.69  1.0000
   1   5   2   21046    1340                                                       75911  -55.34  -47.29  1.0000
   1   5   3  142613    3133                                                      131729   21.97  -41.37  1.0000
   1   5   4   39393     790                                                       44364   32.06  -15.45  1.0000
   1   5   5   30342     661                                                       36850  -12.50  -13.79  1.0000
   1   5   6   31835     568                                                       31603   -5.22    2.08  1.0000
   1   5   7   19462     442                                                       23618  -18.70   -1.88  1.0000
   1   5   8    1417      53                                                         147  -13.28    5.49  1.0000
   1   5   9    3459     213                                                        9528  -23.97   23.06  1.0000
   1   5  10    3751      87                                                        2190    1.31   13.55  1.0000
   1   5  11    8081     183                                                        7061   -4.08    4.07  1.0000
   1   5  12   32820     827                                                       42534   15.40  -17.56  1.0000
   1   5  13     727      59                                                         159   -2.67  -17.98  1.0000
   1   5  14     455      80                                                         966   10.88   -8.25  1.0000
   1   5  15    4009      99                                                        1851  -11.43   -0.29  1.0000
   1   5  16     210      75                                                         309   -1.77    0.16  1.0000
   1   5  17    2771     158                                                        4951  -13.26    1.15  1.0000
   1   5  18     632      95                                                        1286   -0.84    7.64  1.0000
   1   5  19    5693     146                                                        4729   -4.75   -1.66  1.0000
   1   5  20    1924     114                                                        1917    1.06    0.63  1.0000
   1   5  21      21     102                                                         -55   -0.17    2.52  1.0000
   1   5  22    1925     138                                                        2404   -2.19   -2.19  1.0000
   1   5  23     102      97                                                         113   -1.30    0.87  1.0000
   1   5  24    1701     114                                                        1904   -0.75    2.06  1.0000
   1   5  25     725     129                                                         768    0.24    0.36  1.0000
   1   5  26     526     126                                                         789    0.83    2.86  1.0000
   1   5  27     268     103                                                         232    0.01   -3.00  1.0000
   1   5  28      31     109                                                          37    0.38   -0.31  1.0000
   1   5  29      26     130                                                          13   -0.29    1.29  1.0000
   1   5  30       3     133                                                          -2   -0.30   -0.93  1.0000
   1   6 -31      14     232                                                         -60    0.83   -1.90  1.0000
   1   6 -30     121     243                                                         139    0.53    1.01  1.0000
   1   6 -29     569     188                                                         414    0.85    2.21  1.0000
   1   6 -28     116     152                                                         154    0.10    2.11  1.0000
   1   6 -27     422      96                                                         295   -0.55    1.78  1.0000
   1   6 -26     655     101                                                         619    0.85    1.28  1.0000
   1   6 -25    1068     124                                                         889    3.03   -2.73  1.0000
   1   6 -24     328     113                                                         459   -1.57    1.32  1.0000
   1   6 -23     976     101                                                        1052    0.47   -0.50  1.0000
   1   6 -22    7114     270                                                        9631   -1.45    8.46  1.0000
   1   6 -21    7733     230                                                        8253    0.73    1.79  1.0000
   1   6 -20    2445     117                                                        2163    2.79    1.79  1.0000
   1   6 -19    2876     144                                                        3214    0.27    1.96  1.0000
   1   6 -18    1154     103                                                        1601   -0.87    3.21  1.0000
   1   6 -17     459      79                                                         957    5.04    1.65  1.0000
   1   6 -16    3796     119                                                        3697    1.84   17.69  1.0000
   1   6 -15     312      60                                                         245    0.16    1.26  1.0000
   1   6 -14    2799     143                                                        5380   14.03   12.64  1.0000
   1   6 -13    2584      96                                                        2074   -3.16    0.14  1.0000
   1   6 -12   16602     309                                                       14666    2.30    4.45  1.0000
   1   6 -11    6906     156                                                        6050    1.24   -4.99  1.0000
   1   6 -10    2659     150                                                        5129  -10.67    5.58  1.0000
   1   6  -9    6077     110                                                        3275    8.12  -18.47  1.0000
   1   6  -8   13416     252                                                       10739   -4.76    7.24  1.0000
   1   6  -7   11004     263                                                       12335    4.82   -6.00  1.0000
   1   6  -6   10058     214                                                        9579   -0.22   -3.24  1.0000
   1   6  -5   33077     456                                                       23475  -35.12   55.03  1.0000
   1   6  -4   56175    1320                                                       76449   -5.16  -23.69  1.0000
   1   6  -2   21908     305                                                       15545  -18.18    4.73  1.0000
   1   6  -1    6050     174                                                        7424   -1.26   -4.81  1.0000
   1   6   0    2597      55                                                         675    0.45   42.36  1.0000
   1   6   1    5823     167                                                        7399   -0.24    5.42  1.0000
   1   6   2   23153     332                                                       16216   19.24    4.71  1.0000
   1   6   4   60722    1371                                                       80751    3.37  -23.79  1.0000
   1   6   5   34619     537                                                       24844  -35.99  -55.32  1.0000
   1   6   6    9999     196                                                        9459    0.51   -2.93  1.0000
   1   6   7   11267     271                                                       12650    5.07    6.18  1.0000
   1   6   8   12783     237                                                       10149    4.85    7.09  1.0000
   1   6   9    5915      97                                                        3162    7.98   18.07  1.0000
   1   6  10    2741     143                                                        5239   10.49    5.73  1.0000
   1   6  11    6954     189                                                        6074    1.30    5.02  1.0000
   1   6  12   16438     301                                                       14550   -2.33    4.36  1.0000
   1   6  13    2689      87                                                        2159   -3.25   -0.10  1.0000
   1   6  14    2731     136                                                        5325  -14.45   12.82  1.0000
   1   6  15     295      71                                                         221   -0.01   -1.37  1.0000
   1   6  16    4038     130                                                        3977   -1.94   17.99  1.0000
   1   6  17     340      82                                                         778    5.00   -1.66  1.0000
   1   6  18    1074      98                                                        1525    0.85    3.35  1.0000
   1   6  19    2991     128                                                        3372   -0.03   -2.02  1.0000
   1   6  20    2467     110                                                        2201   -2.47    1.44  1.0000
   1   6  21    7502     198                                                        8029    0.68   -1.83  1.0000
   1   6  22    6847     217                                                        9297    1.10    8.30  1.0000
   1   6  23     939     117                                                        1020    0.27    0.67  1.0000
   1   6  24     331     115                                                         472    1.76    1.07  1.0000
   1   6  25     970     127                                                         785    2.92    2.80  1.0000
   1   6  26     535      90                                                         510   -0.97    1.25  1.0000
   1   6  27     252     118                                                         161   -0.45   -1.71  1.0000
   1   6  28      85     118                                                         116   -0.09    2.10  1.0000
   1   6  29      85     220                                                          29    0.86   -2.24  1.0000
   1   6  30      21     206                                                          27   -0.57    1.09  1.0000
   1   7 -31     252     156                                                         324    0.76    1.13  1.0000
   1   7 -30     270     233                                                         311    1.18   -1.28  1.0000
   1   7 -29      10     238                                                         -32    1.70   -0.44  1.0000
   1   7 -28     306     131                                                         386    1.16    0.32  1.0000
   1   7 -27      19     113                                                         -79    0.49   -2.37  1.0000
   1   7 -26     832     129                                                         640    1.05    1.70  1.0000
   1   7 -25      36     110                                                          14   -0.64   -1.61  1.0000
   1   7 -24     744      98                                                         828    1.12   -0.56  1.0000
   1   7 -23     191     120                                                         193   -0.18    0.85  1.0000
   1   7 -22    1429     109                                                        1419   -0.16    0.68  1.0000
   1   7 -21    3767     145                                                        4267    1.03   -2.30  1.0000
   1   7 -20    1345      96                                                         824    4.47    0.85  1.0000
   1   7 -19    3043     133                                                        3728   -1.97   -3.11  1.0000
   1   7 -18      79      66                                                          56    5.00    0.72  1.0000
   1   7 -17    1539     102                                                        2654    4.20    5.40  1.0000
   1   7 -16     525      76                                                         685   -2.49   -3.89  1.0000
   1   7 -15    8490     272                                                       11410    5.64   -6.02  1.0000
   1   7 -14      35      67                                                         110    6.39    4.27  1.0000
   1   7 -13   12016     278                                                       11998   -0.39    0.02  1.0000
   1   7 -12     146      90                                                        1082    6.75   11.90  1.0000
   1   7 -11     909      77                                                         971   -2.39   -6.37  1.0000
   1   7 -10    5549      88                                                        2057   -3.78   16.84  1.0000
   1   7  -9    2059      53                                                         230   15.92   -7.53  1.0000
   1   7  -8    1348      87                                                        1273  -22.90   -8.94  1.0000
   1   7  -7   20319     422                                                       22120   24.19   -1.12  1.0000
   1   7  -6   21139     678                                                       37449    8.12  -29.75  1.0000
   1   7  -5   48500    1191                                                       66644   24.94  -34.84  1.0000
   1   7  -4   67929    1740                                                      100895  -31.77   -2.18  1.0000
   1   7  -2   90942    1534                                                       88883   -5.82   -9.22  1.0000
   1   7  -1    5611     209                                                        9338    8.91  -18.33  1.0000
   1   7   0       2      65                                                        1244   -0.27   18.57  1.0000
   1   7   1    5705     197                                                        9557    8.31   18.41  1.0000
   1   7   2   90085    1477                                                       87725    6.29   -9.54  1.0000
   1   7   4   66810    1688                                                       99621   31.89   -2.52  1.0000
   1   7   5   49821    1165                                                       68138   24.59   34.59  1.0000
   1   7   6   22526     701                                                       39165   -8.00  -29.56  1.0000
   1   7   7   21684     506                                                       23535   24.43    1.33  1.0000
   1   7   8    1441      66                                                        1560   23.19   -9.57  1.0000
   1   7   9    2255      49                                                         307   15.35    7.80  1.0000
   1   7  10    5355      78                                                        1880    3.18   17.05  1.0000
   1   7  11     811      74                                                         876   -2.20    6.35  1.0000
   1   7  12     140      78                                                        1079   -7.09   11.69  1.0000
   1   7  13   12347     270                                                       12246   -0.04    0.25  1.0000
   1   7  14      32      60                                                         135   -6.74    3.99  1.0000
   1   7  15    9042     293                                                       12013    5.12    6.24  1.0000
   1   7  16     576      71                                                         727    2.19   -3.51  1.0000
   1   7  17    1644     114                                                        2795    4.11   -5.51  1.0000
   1   7  18      83      79                                                         -37   -4.93    0.88  1.0000
   1   7  19    3275     153                                                        3954   -1.85    2.98  1.0000
   1   7  20    1050      97                                                         606   -4.56    0.49  1.0000
   1   7  21    3873     188                                                        4341    1.44    2.16  1.0000
   1   7  22    1480     124                                                        1458    0.03    0.57  1.0000
   1   7  23     159     118                                                         166   -0.29   -0.80  1.0000
   1   7  24     602     100                                                         667   -1.03   -0.47  1.0000
   1   7  25      12      89                                                         -36   -0.67    1.80  1.0000
   1   7  26     822     116                                                         630   -1.08    1.71  1.0000
   1   7  27      21      99                                                         -29    0.62    2.46  1.0000
   1   7  28     353     108                                                         437   -1.13    0.43  1.0000
   1   7  29       9     189                                                          37    1.64    0.39  1.0000
   1   7  30     282     215                                                         327   -1.20   -1.12  1.0000
   1   8 -31       2     230                                                         -44    0.56   -0.55  1.0000
   1   8 -30      61     262                                                          52    0.56   -0.11  1.0000
   1   8 -29       3     180                                                         -89    0.40    0.83  1.0000
   1   8 -28      11     253                                                          17   -1.81    1.26  1.0000
   1   8 -27     349     118                                                         296   -0.14   -0.81  1.0000
   1   8 -26     162      87                                                         175   -0.59    0.58  1.0000
   1   8 -25    1939     125                                                        2075   -1.52   -0.74  1.0000
   1   8 -24    2338     141                                                        2720    2.64   -1.41  1.0000
   1   8 -23     305     106                                                         430    0.24    1.88  1.0000
   1   8 -22    5828     186                                                        5843    1.23   -1.81  1.0000
   1   8 -21    6189     199                                                        6964    4.25   -2.69  1.0000
   1   8 -20    2203     103                                                        2212   -0.18    0.14  1.0000
   1   8 -19    4263     111                                                        3457    7.02   -3.97  1.0000
   1   8 -18    4910     155                                                        4722   -2.29   -3.31  1.0000
   1   8 -17     210     100                                                         267   -0.87    0.52  1.0000
   1   8 -16    2014     102                                                        1255   -2.13   -9.35  1.0000
   1   8 -15    3401     125                                                        3757   -0.40   -1.82  1.0000
   1   8 -14      87      70                                                          66    0.16   -3.54  1.0000
   1   8 -13    1581      83                                                         582    1.05  -11.71  1.0000
   1   8 -12    1263      95                                                        1231   -0.04    0.26  1.0000
   1   8 -11    1900      88                                                        1746   10.04    3.92  1.0000
   1   8 -10   33821     630                                                       32440   -8.15   -1.33  1.0000
   1   8  -9   12509     243                                                       11863    0.49    1.59  1.0000
   1   8  -8    5201     207                                                        9373  -13.48   -5.51  1.0000
   1   8  -7    5176     102                                                        3117  -17.38  -14.85  1.0000
   1   8  -6     892      77                                                         577   -1.23   -7.53  1.0000
   1   8  -5   54728    1012                                                       58142  -19.21  -12.48  1.0000
   1   8  -4   53156     825                                                       47635   24.23  -17.37  1.0000
   1   8  -3   70597    1631                                                       95522  -25.69  -16.89  1.0000
   1   8  -2   69753    2308                                                      140145   -4.21  -63.64  1.0000
   1   8  -1   20550     538                                                       28162   -2.25   15.42  1.0000
   1   8   0    5387     302                                                       15555    0.86  -28.25  1.0000
   1   8   1   20162     544                                                       27323   -3.31  -15.10  1.0000
   1   8   2   65580    2230                                                      134215    5.71  -63.96  1.0000
   1   8   3   73258    1661                                                       97985  -24.30   16.82  1.0000
   1   8   4   53660     858                                                       47980  -24.11  -17.48  1.0000
   1   8   5   55694    1027                                                       59351  -19.44   12.35  1.0000
   1   8   6    1044      59                                                         730    1.12   -7.65  1.0000
   1   8   7    5247      94                                                        3182  -17.41   14.83  1.0000
   1   8   8    5402     206                                                        9657   14.00   -4.93  1.0000
   1   8   9   12613     276                                                       11932    0.10   -1.69  1.0000
   1   8  10   32560     617                                                       31191    7.72   -1.14  1.0000
   1   8  11    1869      78                                                        1716    9.87   -3.89  1.0000
   1   8  12    1143      72                                                        1141   -0.14    0.00  1.0000
   1   8  13    1716      68                                                         691    1.12   11.48  1.0000
   1   8  14      42      53                                                          -9   -0.39   -3.55  1.0000
   1   8  15    3332     132                                                        3672   -0.33    1.81  1.0000
   1   8  16    2080      81                                                        1302    2.18   -9.42  1.0000
   1   8  17     190      86                                                         247   -0.92   -0.54  1.0000
   1   8  18    5014     147                                                        4785    2.05   -3.26  1.0000
   1   8  19    4093     135                                                        3287    6.86    4.00  1.0000
   1   8  20    2150     117                                                        2170    0.36    0.29  1.0000
   1   8  21    6094     181                                                        6899    4.37    2.66  1.0000
   1   8  22    5637     168                                                        5609   -1.23   -1.55  1.0000
   1   8  23     256      95                                                         361    0.32   -1.75  1.0000
   1   8  24    2486     152                                                        2860   -2.47   -1.19  1.0000
   1   8  25    1723     136                                                        1856   -1.40    0.78  1.0000
   1   8  26      74     116                                                          79    0.59    0.83  1.0000
   1   8  27     105     118                                                          72   -0.23    0.93  1.0000
   1   8  28     103     223                                                         160    1.97    1.29  1.0000
   1   9 -30      70     148                                                         100    0.36   -1.23  1.0000
   1   9 -29     148     225                                                         109    0.96   -0.08  1.0000
   1   9 -28      76     254                                                         112    1.72   -1.07  1.0000
   1   9 -27      58      96                                                         163    2.59   -1.19  1.0000
   1   9 -26     875     125                                                         674    0.04   -2.34  1.0000
   1   9 -25     376      99                                                         457    1.33    1.61  1.0000
   1   9 -24    1965     133                                                        1781    0.07   -1.79  1.0000
   1   9 -23    1435     114                                                        1308   -1.19   -0.31  1.0000
   1   9 -22     422      87                                                         556   -4.83   -2.29  1.0000
   1   9 -21     148      93                                                         204   -1.12    2.10  1.0000
   1   9 -20     128     124                                                         335   -4.22   -1.98  1.0000
   1   9 -19    6783     206                                                        6656   -1.12   -4.98  1.0000
   1   9 -18    2290     117                                                        1925   -3.56   -1.37  1.0000
   1   9 -17   15203     271                                                       12849   -5.56   -0.26  1.0000
   1   9 -16    3609     126                                                        3821   -1.10    6.77  1.0000
   1   9 -15    5514     180                                                        6699   -6.33   -1.28  1.0000
   1   9 -14    2196     105                                                        2790    4.31    2.81  1.0000
   1   9 -13     528      90                                                         898    3.45   -1.84  1.0000
   1   9 -12     823      90                                                         421    5.96    1.10  1.0000
   1   9 -11     288      78                                                        1198  -10.10   -0.86  1.0000
   1   9 -10     343      64                                                         207    4.65    3.75  1.0000
   1   9  -9    5337     133                                                        4473  -11.08    3.85  1.0000
   1   9  -8    3738     130                                                        3682   -8.13    2.11  1.0000
   1   9  -7    1517      94                                                        2530  -29.76   17.44  1.0000
   1   9  -6    2533     107                                                        3047   -3.86   -7.56  1.0000
   1   9  -5   17650     162                                                        6862  -21.37  -22.91  1.0000
   1   9  -4    5051      66                                                         992  -18.01   14.30  1.0000
   1   9  -3     634     127                                                        4070  -18.07  -17.70  1.0000
   1   9  -2   10436     251                                                        9558    6.87   -3.12  1.0000
   1   9  -1    1021     186                                                        7675  -29.19   -9.62  1.0000
   1   9   0    1366     138                                                        5475   -0.01   20.39  1.0000
   1   9   1     905     187                                                        7518  -29.41   10.53  1.0000
   1   9   2   11125     220                                                       10070   -6.97   -2.65  1.0000
   1   9   3     637     115                                                        4117  -18.02   17.91  1.0000
   1   9   4    4841      65                                                         962   17.42   14.25  1.0000
   1   9   5   18184     168                                                        7236  -21.30   22.93  1.0000
   1   9   6    2335      91                                                        2833    3.92   -7.68  1.0000
   1   9   7    1524      85                                                        2620  -29.76  -17.83  1.0000
   1   9   8    4044     123                                                        3991    8.67    2.32  1.0000
   1   9   9    5461     140                                                        4553  -11.79   -4.16  1.0000
   1   9  10     253      58                                                         126   -4.72    4.14  1.0000
   1   9  11     337      78                                                        1311  -10.18    0.97  1.0000
   1   9  12    1043      70                                                         590   -5.67    0.79  1.0000
   1   9  13     458      78                                                         816    3.44    2.01  1.0000
   1   9  14    2304     113                                                        2892   -4.41    2.69  1.0000
   1   9  15    5339     185                                                        6543   -6.37    1.09  1.0000
   1   9  16    3503     127                                                        3707    1.00    6.52  1.0000
   1   9  17   15064     282                                                       12678   -5.65    0.30  1.0000
   1   9  18    2136     115                                                        1784    3.75   -1.33  1.0000
   1   9  19    6849     182                                                        6722   -1.21    5.29  1.0000
   1   9  20      38      92                                                         153    4.23   -1.86  1.0000
   1   9  21     164     111                                                         230   -1.27   -1.93  1.0000
   1   9  22     342     115                                                         456    4.86   -2.27  1.0000
   1   9  23    1583     129                                                        1442   -1.24    0.27  1.0000
   1   9  24    1983     126                                                        1799    0.09   -1.99  1.0000
   1   9  25     178     120                                                         228    1.27   -1.58  1.0000
   1   9  26     627     100                                                         463   -0.15   -2.33  1.0000
   1   9  27     136      99                                                         281    2.45    1.37  1.0000
   1  10 -30      31     232                                                          41    0.12   -0.45  1.0000
   1  10 -29      78     172                                                         156    0.72    2.09  1.0000
   1  10 -28     119     183                                                         150   -1.66   -0.36  1.0000
   1  10 -27     305     112                                                         278   -0.72    0.99  1.0000
   1  10 -26     585     121                                                         656    0.81    0.09  1.0000
   1  10 -25      35      93                                                          41   -0.14   -0.78  1.0000
   1  10 -24     200      80                                                         316   -2.24    2.53  1.0000
   1  10 -23     211      96                                                         163    0.80    1.36  1.0000
   1  10 -22     385     122                                                         661   -2.35    2.80  1.0000
   1  10 -21    1348     136                                                        1507    1.28    1.06  1.0000
   1  10 -20    1636     123                                                        1438   -0.20    3.80  1.0000
   1  10 -19    5553     165                                                        4441    2.99   -3.81  1.0000
   1  10 -18    2484     134                                                        2152   -4.25   -2.12  1.0000
   1  10 -17     692     113                                                         830   -6.34   -2.37  1.0000
   1  10 -16    1941     112                                                        2408   -2.76   -0.64  1.0000
   1  10 -15     778      95                                                         703    0.94   -1.10  1.0000
   1  10 -14    3336     121                                                        3240    0.54    0.54  1.0000
   1  10 -13    4149     145                                                        4296    0.55   -3.21  1.0000
   1  10 -12     211      70                                                         415  -15.25   -2.10  1.0000
   1  10 -11      67      85                                                          86    6.37   -5.83  1.0000
   1  10 -10   11053     328                                                       15820  -15.15    6.03  1.0000
   1  10  -9    1708     102                                                        1924   -0.38    1.46  1.0000
   1  10  -8   13728     334                                                       16293    5.85    1.60  1.0000
   1  10  -7   16123     362                                                       16966  -25.61    3.76  1.0000
   1  10  -6   14486     248                                                       11331   -8.71    1.40  1.0000
   1  10  -5   10371     269                                                       12883    6.29   -1.37  1.0000
   1  10  -4   24725     346                                                       17209    3.38   15.28  1.0000
   1  10  -3    4652     146                                                        5336    2.81   -2.03  1.0000
   1  10  -2    5798     163                                                        6164   -9.83  -18.31  1.0000
   1  10  -1    6103     118                                                        3597    7.62   -7.51  1.0000
   1  10   0     427      91                                                        2078    0.09   13.72  1.0000
   1  10   1    5691     112                                                        3437    6.80    7.57  1.0000
   1  10   2    5632     164                                                        6112    9.86  -19.02  1.0000
   1  10   3    4469     147                                                        5301    3.66    2.42  1.0000
   1  10   4   24297     323                                                       16970   -3.10   15.17  1.0000
   1  10   5   10572     262                                                       13083    5.91    2.49  1.0000
   1  10   6   14656     271                                                       11527    9.18    0.71  1.0000
   1  10   7   16571     377                                                       17516  -25.74   -3.66  1.0000
   1  10   8   14339     345                                                       16824   -5.85    1.07  1.0000
   1  10   9    1553      81                                                        1741   -0.72   -1.06  1.0000
   1  10  10   11793     351                                                       16517   14.54    5.57  1.0000
   1  10  11      65      62                                                          82    6.22    5.65  1.0000
   1  10  12     205      70                                                         436   14.95   -2.33  1.0000
   1  10  13    4047     136                                                        4192    0.55    3.11  1.0000
   1  10  14    3306     114                                                        3229   -0.25    0.41  1.0000
   1  10  15     850      82                                                         768    0.70    1.05  1.0000
   1  10  16    1829     109                                                        2304    2.88   -0.52  1.0000
   1  10  17     644      98                                                         757   -6.28    2.23  1.0000
   1  10  18    2771     118                                                        2435    4.22   -2.05  1.0000
   1  10  19    5601     144                                                        4519    2.80    3.70  1.0000
   1  10  20    1594     113                                                        1393    0.19    3.87  1.0000
   1  10  21    1190     115                                                        1330    1.23   -1.26  1.0000
   1  10  22     203     111                                                         412    2.27    2.83  1.0000
   1  10  23     265     110                                                         203    0.98   -1.27  1.0000
   1  10  24     191     110                                                         310    2.36    2.22  1.0000
   1  10  25       2      99                                                         -60   -0.25    0.78  1.0000
   1  10  26     768     113                                                         849   -0.85    0.01  1.0000
   1  10  27     149     203                                                         131   -0.69   -0.91  1.0000
   1  11 -30      74     147                                                         105   -0.57   -1.04  1.0000
   1  11 -29       2     238                                                         -72   -0.84    0.23  1.0000
   1  11 -28     272     229                                                         326    0.78   -0.40  1.0000
   1  11 -27       8     208                                                         -35    0.62   -1.47  1.0000
   1  11 -26       0      81                                                         -76    0.26   -0.25  1.0000
   1  11 -25     269     118                                                         223    1.13   -0.06  1.0000
   1  11 -24     648     123                                                         605    2.21   -0.76  1.0000
   1  11 -23     362     126                                                         526    1.99    0.94  1.0000
   1  11 -22     752     103                                                         742    0.12   -1.58  1.0000
   1  11 -21     368     121                                                         229    1.65    2.69  1.0000
   1  11 -20    1242     130                                                        1436   -1.02    1.10  1.0000
   1  11 -19     426     122                                                         779    0.67    3.95  1.0000
   1  11 -18    2218     109                                                        1773   -4.60   -4.55  1.0000
   1  11 -17    2660     126                                                        3062    2.26    4.90  1.0000
   1  11 -16    1256     117                                                        1262   -4.20    1.30  1.0000
   1  11 -15    1544     118                                                        2315    5.96    1.04  1.0000
   1  11 -14    3730     159                                                        4944   -4.97   -1.63  1.0000
   1  11 -13     261      87                                                         351    2.14    1.49  1.0000
   1  11 -12    3179     148                                                        4436   -3.48   -9.51  1.0000
   1  11 -11     995     117                                                        2367   -1.37   14.04  1.0000
   1  11 -10    5165     163                                                        6198  -12.58   -9.49  1.0000
   1  11  -9    2625      93                                                        1915   10.06    1.26  1.0000
   1  11  -8   22032     464                                                       24152    3.80    1.92  1.0000
   1  11  -7    3269     116                                                        3068    1.14   -0.36  1.0000
   1  11  -6   22203     341                                                       16908    7.23    8.20  1.0000
   1  11  -5   23637     439                                                       21093    0.22    6.93  1.0000
   1  11  -4    8022     220                                                        9846   -1.91    5.14  1.0000
   1  11  -3    1983      73                                                        1222    2.56  -10.63  1.0000
   1  11  -2    7955     200                                                        8350   -2.57   -1.00  1.0000
   1  11  -1    2083     104                                                        2644    1.10   -3.28  1.0000
   1  11   0   11753     533                                                       28361    0.32   33.03  1.0000
   1  11   1    2169      94                                                        2742    0.71    3.61  1.0000
   1  11   2    7191     218                                                        7580    2.84   -1.23  1.0000
   1  11   3    2062      70                                                        1221    2.15   11.05  1.0000
   1  11   4    7810     229                                                        9668    2.07    5.27  1.0000
   1  11   5   24047     434                                                       21536    0.39   -6.95  1.0000
   1  11   6   22728     369                                                       17139   -7.48    8.61  1.0000
   1  11   7    3547     117                                                        3289    1.16   -0.36  1.0000
   1  11   8   23208     500                                                       25331   -3.72    1.82  1.0000
   1  11   9    2692      83                                                        1948   10.17   -1.09  1.0000
   1  11  10    5386     162                                                        6406   12.21   -9.21  1.0000
   1  11  11     923      90                                                        2234   -1.60  -13.76  1.0000
   1  11  12    3064     138                                                        4294    3.43   -9.63  1.0000
   1  11  13     232      66                                                         300    2.30   -1.23  1.0000
   1  11  14    3791     151                                                        4951    4.76   -1.28  1.0000
   1  11  15    1476     101                                                        2256    6.17   -1.12  1.0000
   1  11  16    1215      95                                                        1220    4.25    1.32  1.0000
   1  11  17    2584     125                                                        2974    2.18   -4.79  1.0000
   1  11  18    1915     104                                                        1507    4.56   -4.62  1.0000
   1  11  19     468     107                                                         828    0.75   -3.86  1.0000
   1  11  20    1170     118                                                        1366    0.89    1.24  1.0000
   1  11  21      65     104                                                          12    1.63   -2.53  1.0000
   1  11  22     716     115                                                         683   -0.34   -1.42  1.0000
   1  11  23     216     103                                                         338    1.94   -0.67  1.0000
   1  11  24     477     107                                                         434   -2.35   -0.85  1.0000
   1  11  25     209     117                                                         169    1.20    0.12  1.0000
   1  11  26      54     100                                                          58   -0.17   -0.22  1.0000
   1  12 -26      34     207                                                         -42    2.07   -2.43  1.0000
   1  12 -25     246      98                                                         180    0.92   -2.56  1.0000
   1  12 -24     101     102                                                         248    1.86   -2.81  1.0000
   1  12 -23     125     123                                                         222   -2.58   -2.30  1.0000
   1  12 -22     891     122                                                        1700   -3.79   -4.99  1.0000
   1  12 -21    2450     105                                                        1811   -2.49   -3.07  1.0000
   1  12 -20    4173     153                                                        4059    0.64    1.12  1.0000
   1  12 -19    4465     143                                                        4112    2.18    1.21  1.0000
   1  12 -18     882      97                                                         905    5.29    1.53  1.0000
   1  12 -17    3138     146                                                        3513   -1.19    2.71  1.0000
   1  12 -16     672      92                                                         581   -0.25    4.16  1.0000
   1  12 -15     212      82                                                         451    0.70   -3.60  1.0000
   1  12 -14    1793      89                                                        1507   -6.97    7.10  1.0000
   1  12 -13     378      95                                                         454    5.50   -5.39  1.0000
   1  12 -12    1585     117                                                        2306   -4.53   -0.19  1.0000
   1  12 -11    1494      99                                                        1944    4.30   -5.09  1.0000
   1  12 -10    6317     136                                                        5297   -1.11   -4.87  1.0000
   1  12  -9    2709     120                                                        3762    6.54   -3.95  1.0000
   1  12  -8   12357     242                                                       10512    7.46    2.12  1.0000
   1  12  -7    6605     111                                                        3188    6.62  -14.02  1.0000
   1  12  -6     326      56                                                         121   -7.95   -5.06  1.0000
   1  12  -5    7992     267                                                       10616   -5.21   -7.49  1.0000
   1  12  -4   19928     318                                                       14622   14.50   10.31  1.0000
   1  12  -3    2931     120                                                        3208  -10.69    9.90  1.0000
   1  12  -2    2774     112                                                        2991   -1.26    0.03  1.0000
   1  12  -1    4915     102                                                        3149   -3.03   -8.87  1.0000
   1  12   0    2448     135                                                        4127   -0.42    8.12  1.0000
   1  12   1    5027     107                                                        3284   -2.99    8.62  1.0000
   1  12   2    2557     104                                                        2869    2.14    0.62  1.0000
   1  12   3    2674     105                                                        2927  -10.44   -9.89  1.0000
   1  12   4   20631     388                                                       15113  -13.35   10.56  1.0000
   1  12   5    8036     245                                                       10669   -5.42    7.49  1.0000
   1  12   6     284      60                                                          55    7.72   -5.01  1.0000
   1  12   7    6908     109                                                        3395    7.16   13.15  1.0000
   1  12   8   12188     238                                                       10329   -7.50    2.18  1.0000
   1  12   9    2773     109                                                        3770    6.82    3.55  1.0000
   1  12  10    6373     153                                                        5355    0.73   -5.44  1.0000
   1  12  11    1478      85                                                        1906    4.11    4.64  1.0000
   1  12  12    1383      96                                                        2082    4.61   -0.58  1.0000
   1  12  13     360      69                                                         440    5.46    5.53  1.0000
   1  12  14    1755      90                                                        1428    7.33    7.06  1.0000
   1  12  15     347      86                                                         646    0.72    3.67  1.0000
   1  12  16     650      89                                                         567    0.17    4.43  1.0000
   1  12  17    2893     120                                                        3201   -0.88   -2.83  1.0000
   1  12  18     761     105                                                         793   -5.44    1.72  1.0000
   1  12  19    4378     154                                                        4000    2.25   -1.05  1.0000
   1  12  20    4039     154                                                        3862   -0.96    1.27  1.0000
   1  12  21    2323     118                                                        1690   -2.74    3.05  1.0000
   1  12  22     829     124                                                        1590    3.59   -4.93  1.0000
   1  12  23     240     108                                                         379   -2.74    2.27  1.0000
   1  12  24     256     115                                                         462   -1.68   -2.72  1.0000
   1  12  25     258     110                                                         187    0.81    2.53  1.0000
   1  13 -25      99      96                                                         122   -0.40   -0.74  1.0000
   1  13 -24     128      87                                                          81    0.91    0.99  1.0000
   1  13 -23     295      86                                                         197    0.34    2.33  1.0000
   1  13 -22      76     102                                                         108   -1.18   -1.39  1.0000
   1  13 -21     367     111                                                         609    2.91    1.08  1.0000
   1  13 -20    2037     115                                                        1944    0.69   -0.51  1.0000
   1  13 -19    2182     122                                                        2772    5.51    0.37  1.0000
   1  13 -18     920     111                                                         615    2.03   -4.37  1.0000
   1  13 -17    2689     127                                                        2794   -0.22   -1.73  1.0000
   1  13 -16      89     113                                                         232   -1.83    3.04  1.0000
   1  13 -15     122      91                                                          29    3.45    2.04  1.0000
   1  13 -14     927      71                                                         679   -5.55    2.22  1.0000
   1  13 -13     425      79                                                         858   -1.72    4.63  1.0000
   1  13 -12     616      77                                                         752    0.74   -1.30  1.0000
   1  13 -11     460      70                                                         199   -7.32   -1.35  1.0000
   1  13 -10     253      75                                                        1105   -9.57    0.08  1.0000
   1  13  -9    3635     108                                                        2826    3.65   -1.51  1.0000
   1  13  -8   16052     391                                                       19757   -1.70  -10.31  1.0000
   1  13  -7     163      87                                                         192    3.07    4.70  1.0000
   1  13  -6    9370     231                                                       10257    1.14   -6.35  1.0000
   1  13  -5    4198     154                                                        4388   -0.55   10.52  1.0000
   1  13  -4   31836     491                                                       24572   11.71    2.33  1.0000
   1  13  -3   11635     313                                                       13654    3.30   -4.29  1.0000
   1  13  -2    5018     107                                                        2544    2.26  -12.11  1.0000
   1  13  -1    5993     180                                                        6640    4.94   -4.99  1.0000
   1  13   0    6480     152                                                        5062   -0.04   -5.15  1.0000
   1  13   1    5653     168                                                        6286    4.81    4.61  1.0000
   1  13   2    4887      99                                                        2392   -2.28  -12.49  1.0000
   1  13   3   11190     376                                                       13234    2.83    4.56  1.0000
   1  13   4   33014     501                                                       25431  -11.88    2.94  1.0000
   1  13   5    3861     129                                                        4028   -0.70   -9.48  1.0000
   1  13   6    9038     222                                                        9876   -1.24   -5.60  1.0000
   1  13   7     165      62                                                         189    2.95   -4.45  1.0000
   1  13   8   15977     422                                                       19916    1.84  -10.94  1.0000
   1  13   9    3266     102                                                        2507    3.61    1.52  1.0000
   1  13  10     205      76                                                         992    9.46   -0.27  1.0000
   1  13  11     510      63                                                         232   -7.42    1.51  1.0000
   1  13  12     654      75                                                         817   -0.72   -1.53  1.0000
   1  13  13     540      78                                                        1005   -1.76   -4.45  1.0000
   1  13  14    1036      85                                                         761    5.66    2.07  1.0000
   1  13  15     195      86                                                          82    3.41   -1.86  1.0000
   1  13  16      64      92                                                         183    1.90    2.90  1.0000
   1  13  17    2509     128                                                        2623   -0.30    1.70  1.0000
   1  13  18     891     103                                                         594   -1.98   -4.35  1.0000
   1  13  19    2059     131                                                        2629    5.55   -0.42  1.0000
   1  13  20    1783     131                                                        1710   -0.33   -0.45  1.0000
   1  13  21     494     101                                                         776    2.95   -1.24  1.0000
   1  13  22     221     113                                                         284    1.23   -1.47  1.0000
   1  13  23     382     108                                                         266    0.37   -2.42  1.0000
   1  13  24      75     105                                                          40   -0.93    0.94  1.0000
   1  13  25     115     144                                                         140   -0.46    0.62  1.0000
   1  14 -24     195     115                                                         170    0.70    1.39  1.0000
   1  14 -23     160     101                                                         226    0.12    2.64  1.0000
   1  14 -22     456     113                                                         615    0.93   -1.89  1.0000
   1  14 -21     765     122                                                         767    0.21    1.73  1.0000
   1  14 -20     771     126                                                         656    0.06   -1.61  1.0000
   1  14 -19    1634     108                                                        1866    0.55    2.09  1.0000
   1  14 -18    2838     121                                                        2695    2.43   -2.08  1.0000
   1  14 -17     679     102                                                         944    1.06    3.38  1.0000
   1  14 -16    1248     119                                                        1127    2.15   -1.65  1.0000
   1  14 -15     579     103                                                         476    0.42    6.19  1.0000
   1  14 -14     255      95                                                         492    1.63   -4.15  1.0000
   1  14 -13     442      81                                                         168   -2.83    3.42  1.0000
   1  14 -12    1144      92                                                         988   -1.01   -3.52  1.0000
   1  14 -11    3316     103                                                        1838    5.22    9.09  1.0000
   1  14 -10    2923      90                                                        2193    1.22   -3.96  1.0000
   1  14  -9    6862     157                                                        5580    1.32   11.37  1.0000
   1  14  -8    4728     153                                                        4275    3.03   -2.30  1.0000
   1  14  -7    5504     168                                                        6618    2.92    9.54  1.0000
   1  14  -6   37898     869                                                       49744    7.86  -13.95  1.0000
   1  14  -5    4116     125                                                        3073   -7.74    4.02  1.0000
   1  14  -4      96      73                                                         470    6.08   -3.99  1.0000
   1  14  -3     517      81                                                         881    4.37    4.25  1.0000
   1  14  -2    2820     119                                                        3575    1.23    4.38  1.0000
   1  14  -1    3133     127                                                        4426   -4.49   -3.92  1.0000
   1  14   0     171      61                                                         -34    0.41   -7.18  1.0000
   1  14   1    3103     150                                                        4609   -5.45    4.04  1.0000
   1  14   2    2909     112                                                        3555   -0.79    4.03  1.0000
   1  14   3     492      69                                                         890    4.79   -4.10  1.0000
   1  14   4     100      69                                                         464   -5.86   -4.05  1.0000
   1  14   5    3976     100                                                        2991   -7.22   -3.82  1.0000
   1  14   6   37751     885                                                       49601   -7.97  -13.95  1.0000
   1  14   7    5755     176                                                        6963    3.12   -9.68  1.0000
   1  14   8    4356     125                                                        3941   -3.21   -2.24  1.0000
   1  14   9    7565     172                                                        6201    1.42  -11.55  1.0000
   1  14  10    2930      97                                                        2205   -1.30   -3.93  1.0000
   1  14  11    3246      93                                                        1834    4.86   -9.24  1.0000
   1  14  12    1243      80                                                        1102    0.86   -3.78  1.0000
   1  14  13     390      69                                                         142   -2.64   -3.44  1.0000
   1  14  14     320      87                                                         577   -1.18   -4.58  1.0000
   1  14  15     564      88                                                         470    0.57   -5.90  1.0000
   1  14  16    1099      97                                                         997   -1.95   -1.58  1.0000
   1  14  17     883     110                                                        1202    1.28   -3.31  1.0000
   1  14  18    2576     133                                                        2445   -2.39   -2.09  1.0000
   1  14  19    1530     118                                                        1731    0.71   -2.00  1.0000
   1  14  20     628     102                                                         524   -0.13   -1.53  1.0000
   1  14  21     621     106                                                         612    0.09   -1.71  1.0000
   1  14  22     392     108                                                         554   -0.99   -2.04  1.0000
   1  14  23     130      99                                                         184    0.05   -2.57  1.0000
   1  14  24      48     106                                                          33   -0.67    1.37  1.0000
   1  15 -24       2     151                                                         -76    0.44    0.69  1.0000
   1  15 -23      16     118                                                         130    0.44    4.26  1.0000
   1  15 -22     286      92                                                         220   -1.81    0.97  1.0000
   1  15 -21      31     120                                                         -45   -2.48   -1.80  1.0000
   1  15 -20     966     121                                                        1227   -2.40   -0.65  1.0000
   1  15 -19     148     121                                                         291   -2.81    0.64  1.0000
   1  15 -18    1869     121                                                        1713   -2.10    0.70  1.0000
   1  15 -17     897      95                                                         662   -1.94   -1.29  1.0000
   1  15 -16     242      92                                                         331   -1.99   -0.13  1.0000
   1  15 -15    2977     155                                                        3129    4.67   -3.47  1.0000
   1  15 -14    1648     125                                                        1549    0.71   -0.23  1.0000
   1  15 -13    2353     112                                                        2015   -0.53    2.03  1.0000
   1  15 -12     820      96                                                         865    0.24    0.82  1.0000
   1  15 -11     226      85                                                         300   -1.27    0.66  1.0000
   1  15 -10     834      84                                                        1382   -4.66   -5.22  1.0000
   1  15  -9    1294     103                                                        1959    3.69    3.06  1.0000
   1  15  -8    1254     101                                                        1326    2.45   -4.97  1.0000
   1  15  -7   12895     342                                                       16356   -3.84    7.30  1.0000
   1  15  -6    4181     157                                                        6089   -5.81   -6.30  1.0000
   1  15  -5     135      83                                                         418   -6.58   -1.44  1.0000
   1  15  -4    1103      77                                                        1070    0.11    0.35  1.0000
   1  15  -3    1757     128                                                        4183   -3.98   12.62  1.0000
   1  15  -2     827     112                                                        2377   -1.94  -11.05  1.0000
   1  15  -1    5322     173                                                        6986   -0.01   -6.16  1.0000
   1  15   0    2625      95                                                        2730   -0.88   -0.55  1.0000
   1  15   1    5384     187                                                        6946    0.07    5.80  1.0000
   1  15   2     876      95                                                        2455    2.21  -11.01  1.0000
   1  15   3    1774     129                                                        4233   -4.40  -12.70  1.0000
   1  15   4    1221      77                                                        1173    0.11    0.37  1.0000
   1  15   5     112      68                                                         374   -6.94    0.97  1.0000
   1  15   6    4283     176                                                        6095    5.90   -5.85  1.0000
   1  15   7   12487     349                                                       15935   -3.76   -7.49  1.0000
   1  15   8    1226      75                                                        1265   -2.10   -4.57  1.0000
   1  15   9    1358      91                                                        2004    3.28   -3.08  1.0000
   1  15  10     946      88                                                        1540    4.61   -5.29  1.0000
   1  15  11     226      69                                                         297   -1.27   -0.61  1.0000
   1  15  12     685      80                                                         733   -0.22    0.89  1.0000
   1  15  13    2143      98                                                        1846   -0.65   -1.88  1.0000
   1  15  14    1444      97                                                        1346   -0.79   -0.41  1.0000
   1  15  15    2808     127                                                        2949    4.85    3.52  1.0000
   1  15  16     222     103                                                         304    1.99   -0.06  1.0000
   1  15  17     762     100                                                         542   -1.88    1.46  1.0000
   1  15  18    1769     118                                                        1618    1.99    0.61  1.0000
   1  15  19     196      95                                                         363   -2.86   -0.36  1.0000
   1  15  20     802     112                                                        1045    2.40   -0.52  1.0000
   1  15  21      32     102                                                         -46   -2.52    1.83  1.0000
   1  15  22      86     103                                                          47    1.82    0.88  1.0000
   1  15  23       2     101                                                          62    0.28   -4.14  1.0000
   1  16 -24      40     113                                                          64   -1.11   -0.07  1.0000
   1  16 -23      60      97                                                          99    1.15    0.52  1.0000
   1  16 -22      58      87                                                          72    1.97    1.22  1.0000
   1  16 -21     442      85                                                         500    2.52   -0.07  1.0000
   1  16 -20     806     119                                                         696   -0.97    1.80  1.0000
   1  16 -19    1406     136                                                        1657   -2.04    0.14  1.0000
   1  16 -18     975     120                                                        1429    3.25    2.02  1.0000
   1  16 -17    2467     118                                                        2303    1.16   -0.93  1.0000
   1  16 -16     159      96                                                         105   -0.35    3.01  1.0000
   1  16 -15     487     119                                                         733    3.14   -2.50  1.0000
   1  16 -14     806     112                                                         555    4.19    1.92  1.0000
   1  16 -13     328      83                                                         429    2.68   -5.44  1.0000
   1  16 -12     839     102                                                         842    0.10    0.18  1.0000
   1  16 -11      31      91                                                          52   -1.40    3.17  1.0000
   1  16 -10     157      75                                                         543    2.17    6.57  1.0000
   1  16  -9    1666      95                                                        1847   -3.27   -0.07  1.0000
   1  16  -8     121      87                                                         728    2.54    8.44  1.0000
   1  16  -7    1743      99                                                        1330   -1.25    2.69  1.0000
   1  16  -6    1676     114                                                        2940    0.76    7.28  1.0000
   1  16  -5   11764     318                                                       14253    0.63    6.13  1.0000
   1  16  -4    2525     111                                                        3321   -1.82    4.30  1.0000
   1  16  -3     772      89                                                         849   -4.77    0.23  1.0000
   1  16  -2    2743      97                                                        2220    3.91    9.42  1.0000
   1  16  -1    1262      84                                                        1419   -1.13    3.38  1.0000
   1  16   0     291      67                                                         426    0.58   -1.96  1.0000
   1  16   1    1059      79                                                        1163   -2.00   -3.87  1.0000
   1  16   2    3042      97                                                        2348   -4.64    8.70  1.0000
   1  16   3     660      70                                                         718   -4.34   -0.15  1.0000
   1  16   4    2457     116                                                        3203    1.72    4.10  1.0000
   1  16   5   11702     385                                                       14106    1.07   -5.79  1.0000
   1  16   6    1849     115                                                        3207   -0.63    7.48  1.0000
   1  16   7    1478      80                                                        1118   -0.87   -2.80  1.0000
   1  16   8     129      73                                                         745   -2.70    8.39  1.0000
   1  16   9    1574      88                                                        1717   -3.49   -0.26  1.0000
   1  16  10     110      72                                                         441   -2.11    6.54  1.0000
   1  16  11     105      76                                                         170   -1.42   -2.96  1.0000
   1  16  12     712      80                                                         707   -0.16    0.13  1.0000
   1  16  13     256      82                                                         322    2.86    5.42  1.0000
   1  16  14     678      87                                                         454   -4.02    1.86  1.0000
   1  16  15     313      93                                                         516    3.36    2.55  1.0000
   1  16  16     127      90                                                          75    0.30    3.10  1.0000
   1  16  17    2299     114                                                        2164    1.01    0.93  1.0000
   1  16  18     750     115                                                        1133   -3.27    1.79  1.0000
   1  16  19    1205     111                                                        1438   -2.03   -0.11  1.0000
   1  16  20     940     110                                                         822    1.00    1.82  1.0000
   1  16  21     422     102                                                         480    2.43    0.02  1.0000
   1  16  22      57      98                                                          70   -2.00    1.23  1.0000
   1  16  23      42      96                                                          76    1.01   -0.70  1.0000
   1  17 -23      21     107                                                          36   -0.32    1.90  1.0000
   1  17 -22      36      98                                                          72    0.98    1.80  1.0000
   1  17 -21     122      82                                                         164   -0.57   -0.87  1.0000
   1  17 -20     216      89                                                         166    0.48   -1.14  1.0000
   1  17 -19     488     114                                                         582    0.34   -1.31  1.0000
   1  17 -18     755     117                                                         668    1.45    2.62  1.0000
   1  17 -17     515     105                                                         450    0.15   -1.10  1.0000
   1  17 -16     298      97                                                         338    0.70    1.87  1.0000
   1  17 -15    1671     118                                                        1742    1.18    0.61  1.0000
   1  17 -14      81     109                                                         180    4.39    0.88  1.0000
   1  17 -13    2341     106                                                        1879   -3.14   -3.72  1.0000
   1  17 -12      74      84                                                         -57    4.54    1.32  1.0000
   1  17 -11    1244      99                                                        1679    3.74    3.76  1.0000
   1  17 -10      19      67                                                          50    1.82    2.48  1.0000
   1  17  -9     689      84                                                         279    5.93   -5.65  1.0000
   1  17  -8    2249      95                                                        1586    4.89   -1.87  1.0000
   1  17  -7    3118     112                                                        2202    6.13    1.34  1.0000
   1  17  -6       8      69                                                          65   -2.38   -3.83  1.0000
   1  17  -5     240      93                                                        1174    6.86   -8.18  1.0000
   1  17  -4     392      82                                                         372    3.18   -0.30  1.0000
   1  17  -3    2021     101                                                        1646    2.93    4.57  1.0000
   1  17  -2     336      82                                                         652   -5.31   -1.24  1.0000
   1  17  -1    1137      79                                                        1144    5.66   -4.47  1.0000
   1  17   0    3554     143                                                        3683   -0.91    0.58  1.0000
   1  17   1    1122      85                                                        1115    5.33    4.22  1.0000
   1  17   2     293      77                                                         590    5.93   -0.77  1.0000
   1  17   3    2033      91                                                        1630    2.88   -4.74  1.0000
   1  17   4     390      77                                                         374   -2.47   -0.15  1.0000
   1  17   5     213      77                                                        1116    7.26    8.00  1.0000
   1  17   6      65      99                                                         -39    2.34   -3.77  1.0000
   1  17   7    3269     108                                                        2306    6.18   -1.49  1.0000
   1  17   8    2433      93                                                        1712   -4.83   -1.11  1.0000
   1  17   9     753      67                                                         325    6.09    5.93  1.0000
   1  17  10      31      72                                                         -28   -1.96    2.38  1.0000
   1  17  11    1157      96                                                        1601    3.94   -4.09  1.0000
   1  17  12     211      82                                                         131   -4.28    1.33  1.0000
   1  17  13    2204     113                                                        1754   -3.24    3.76  1.0000
   1  17  14      67      91                                                         151   -4.50    0.80  1.0000
   1  17  15    1406     110                                                        1494    1.25   -0.78  1.0000
   1  17  16     266      96                                                         307   -0.77    1.92  1.0000
   1  17  17     613      93                                                         539    0.11    1.23  1.0000
   1  17  18     598     109                                                         518   -1.39    2.42  1.0000
   1  17  19     539     104                                                         625    0.32    1.15  1.0000
   1  17  20     161     105                                                         115   -0.56   -1.12  1.0000
   1  17  21       3      93                                                           9   -0.37    1.02  1.0000
   1  17  22      55      95                                                         100   -1.17    1.77  1.0000
   1  18 -22      41     147                                                          86    1.09   -1.17  1.0000
   1  18 -21     148      93                                                         201    1.59   -0.81  1.0000
   1  18 -20     140      94                                                         121    0.40   -0.94  1.0000
   1  18 -19     274      98                                                         310    0.93    3.02  1.0000
   1  18 -18      15      97                                                          49   -1.78   -0.27  1.0000
   1  18 -17     193     111                                                         346    0.88    2.47  1.0000
   1  18 -16     894     113                                                         755   -1.12   -2.26  1.0000
   1  18 -15       5      87                                                          99   -4.39    1.12  1.0000
   1  18 -14     728     112                                                         554   -1.89   -0.65  1.0000
   1  18 -13     543      97                                                         813    1.49   -2.72  1.0000
   1  18 -12     156     100                                                         270    0.70   -3.34  1.0000
   1  18 -11    1211      88                                                        1058   -1.36    1.40  1.0000
   1  18 -10    1316      89                                                        1161    0.43    1.22  1.0000
   1  18  -9     234      73                                                         209   -1.41    3.66  1.0000
   1  18  -8     240      76                                                         148    2.53   -2.22  1.0000
   1  18  -7    2542     115                                                        1903   -2.04   -3.78  1.0000
   1  18  -6    2691      95                                                        1773   -5.63   -6.05  1.0000
   1  18  -5     981      87                                                         852    3.59    0.02  1.0000
   1  18  -4    1604     103                                                        1919    3.36   -2.83  1.0000
   1  18  -3    2574     121                                                        3045   -3.43   -2.25  1.0000
   1  18  -2    1467      81                                                        1136   -0.51   -3.68  1.0000
   1  18  -1      27      70                                                         113    2.69    5.71  1.0000
   1  18   0    1417      79                                                         682    1.58   -6.50  1.0000
   1  18   1      67      78                                                         256    2.45   -5.40  1.0000
   1  18   2    1518      81                                                        1192    0.96   -2.81  1.0000
   1  18   3    2440     114                                                        2867   -3.14    2.13  1.0000
   1  18   4    1540      96                                                        1849   -3.37   -2.85  1.0000
   1  18   5    1028      79                                                         909    4.48   -0.30  1.0000
   1  18   6    2649     104                                                        1713    5.20   -6.10  1.0000
   1  18   7    2397     112                                                        1835   -1.66    3.69  1.0000
   1  18   8     175      68                                                         105   -2.82   -2.02  1.0000
   1  18   9     221      72                                                         193   -1.33   -3.46  1.0000
   1  18  10    1225      89                                                        1090   -0.16    1.30  1.0000
   1  18  11     902      87                                                         789   -1.11   -0.97  1.0000
   1  18  12      42      89                                                          96   -0.82   -3.16  1.0000
   1  18  13     516      92                                                         778    1.57    2.61  1.0000
   1  18  14     610      98                                                         446    1.77   -0.92  1.0000
   1  18  15       6      86                                                          98   -4.17   -1.20  1.0000
   1  18  16     502      94                                                         399    1.20   -2.26  1.0000
   1  18  17     112      97                                                         242    1.10   -2.50  1.0000
   1  18  18      69      98                                                         129    1.75   -0.15  1.0000
   1  18  19     241      93                                                         279    0.93   -3.20  1.0000
   1  18  20      52     105                                                          41   -0.34   -0.80  1.0000
   1  18  21      13     105                                                          -9    1.71    1.04  1.0000
   1  19 -21     248     170                                                         243   -0.20    1.05  1.0000
   1  19 -20     239     102                                                         301   -0.19   -1.31  1.0000
   1  19 -19     252      94                                                         308   -0.90   -0.23  1.0000
   1  19 -18     502     105                                                         525    1.63   -1.13  1.0000
   1  19 -17     356     101                                                         295    0.89   -0.29  1.0000
   1  19 -16     344     115                                                         459   -0.66    1.95  1.0000
   1  19 -15     600      97                                                         395   -1.91    2.94  1.0000
   1  19 -14     548     113                                                         560    2.59    2.25  1.0000
   1  19 -13     939     107                                                         758   -4.03   -0.84  1.0000
   1  19 -12     398      98                                                         282   -5.26   -3.87  1.0000
   1  19 -11     192      72                                                         102   -2.07    0.40  1.0000
   1  19 -10     535      92                                                         581   -2.85    6.63  1.0000
   1  19  -9     313      99                                                         139   -3.67   -0.94  1.0000
   1  19  -8     256     109                                                         180    4.13   -4.94  1.0000
   1  19  -7     767     101                                                         679   -1.86    0.27  1.0000
   1  19  -6     306      98                                                         200   -4.72   -0.90  1.0000
   1  19  -5     308      84                                                         386   -4.02   -0.90  1.0000
   1  19  -4      68      83                                                          89    1.40   -0.34  1.0000
   1  19  -3     640      74                                                         312   -2.10   -3.74  1.0000
   1  19  -2     188      82                                                         177    0.19    0.48  1.0000
   1  19  -1    1644     117                                                        2161   -4.04    3.93  1.0000
   1  19   0    2775     104                                                        2195   -0.16    3.21  1.0000
   1  19   1    1507     108                                                        2010   -4.14   -4.78  1.0000
   1  19   2     172      81                                                         229   -0.34    3.50  1.0000
   1  19   3     618      80                                                         291   -2.67    3.73  1.0000
   1  19   4     164      81                                                         181   -1.41    0.06  1.0000
   1  19   5     326      77                                                         396   -4.20    0.69  1.0000
   1  19   6     310      76                                                         205    5.01   -0.93  1.0000
   1  19   7     583      82                                                         498   -1.78   -0.10  1.0000
   1  19   8     239      88                                                         145   -3.91   -4.50  1.0000
   1  19   9     516      79                                                         269   -4.03    0.98  1.0000
   1  19  10     555      88                                                         630    2.94    7.06  1.0000
   1  19  11     203      81                                                         108   -2.17   -0.81  1.0000
   1  19  12     383      95                                                         277    5.39   -4.10  1.0000
   1  19  13     723      88                                                         571   -4.18    1.07  1.0000
   1  19  14     471      96                                                         473   -2.54    2.12  1.0000
   1  19  15     569      89                                                         367   -1.92   -3.08  1.0000
   1  19  16     203      93                                                         279    0.64    1.72  1.0000
   1  19  17     304      95                                                         246    0.87    0.41  1.0000
   1  19  18     260      96                                                         270   -1.52   -1.10  1.0000
   1  19  19      74      91                                                         102   -0.86   -0.01  1.0000
   1  19  20     236      99                                                         284    0.26   -0.94  1.0000
   1  20 -20       3     198                                                           5   -0.32    0.15  1.0000
   1  20 -19     184     108                                                         172    0.26   -1.12  1.0000
   1  20 -18     243      97                                                         193   -2.52   -0.42  1.0000
   1  20 -17     855      88                                                        1016   -0.16   -1.96  1.0000
   1  20 -16     332     116                                                         279    2.11    0.94  1.0000
   1  20 -15     624     118                                                         532   -2.92   -1.33  1.0000
   1  20 -14     704     117                                                         834   -0.34    4.94  1.0000
   1  20 -13       1     106                                                         -48    0.39    0.28  1.0000
   1  20 -12      90      94                                                         186   -2.57   -0.18  1.0000
   1  20 -11     800      95                                                         779   -1.88    1.65  1.0000
   1  20 -10    1873     127                                                        1556   -1.41    2.59  1.0000
   1  20  -9     559     132                                                         474    2.02   -1.48  1.0000
   1  20  -8    2592     154                                                        3140    3.10    2.50  1.0000
   1  20  -7    2631     130                                                        1898   -0.85   -4.31  1.0000
   1  20  -6      42     101                                                          12   -3.56   -2.09  1.0000
   1  20  -5     476      89                                                         217    0.36    3.88  1.0000
   1  20  -4      61      92                                                         183    2.59    4.32  1.0000
   1  20  -3     544      89                                                         419    0.45   -2.94  1.0000
   1  20  -2    1102      94                                                         927    3.10    2.30  1.0000
   1  20  -1     882      98                                                        1379    4.47    0.97  1.0000
   1  20   0     513      89                                                         182    0.01    5.04  1.0000
   1  20   1     999     104                                                        1601    5.14   -1.77  1.0000
   1  20   2     974      97                                                         788   -3.05    1.88  1.0000
   1  20   3     559      85                                                         450    0.59    2.75  1.0000
   1  20   4      76      78                                                         219   -3.42    4.34  1.0000
   1  20   5     559      83                                                         277    0.25   -3.84  1.0000
   1  20   6      71      77                                                          72    3.19   -2.13  1.0000
   1  20   7    2627     118                                                        1885   -0.88    4.38  1.0000
   1  20   8    2497     127                                                        2992   -2.85    2.32  1.0000
   1  20   9     483     109                                                         407    1.86    1.35  1.0000
   1  20  10    1988     105                                                        1660    1.15    2.51  1.0000
   1  20  11     751      93                                                         706   -1.50   -1.64  1.0000
   1  20  12      37      84                                                         108    2.68   -0.08  1.0000
   1  20  13      64      89                                                          53    0.29   -0.32  1.0000
   1  20  14     588     105                                                         702    0.41    4.76  1.0000
   1  20  15     535      94                                                         454   -3.18    1.31  1.0000
   1  20  16     261      97                                                         213   -1.82    0.76  1.0000
   1  20  17     732      96                                                         888   -0.12    2.08  1.0000
   1  20  18     295      91                                                         242    2.67   -0.42  1.0000
   1  20  19     274     163                                                         256    0.30    0.98  1.0000
   1  20  20     231     166                                                         246    0.25    0.17  1.0000
   1  21 -24      10      55                                                          20    0.32    1.20  1.0000
   1  21 -23      29      64                                                          35   -0.92    0.41  1.0000
   1  21 -22       8      38                                                          14   -0.36   -0.49  1.0000
   1  21 -20       6     187                                                        -237   -0.94   -1.03  1.0000
   1  21 -19      35     139                                                          55   -0.86    0.47  1.0000
   1  21 -18      33     115                                                          43    0.39   -2.37  1.0000
   1  21 -17      95      77                                                         195    3.67    0.68  1.0000
   1  21 -16     151     115                                                          89    1.50   -0.63  1.0000
   1  21 -15      21      94                                                         -41    2.51    0.43  1.0000
   1  21 -14     477      97                                                         665    3.24   -1.91  1.0000
   1  21 -13    1062     110                                                        1460    2.62    1.79  1.0000
   1  21 -12      21     107                                                          17   -0.18   -0.59  1.0000
   1  21 -11     169     101                                                         284    0.08   -3.40  1.0000
   1  21 -10     992     141                                                         900    0.94    1.41  1.0000
   1  21  -9     906     123                                                         937    2.10    3.13  1.0000
   1  21  -8      27     108                                                         108    1.16   -3.58  1.0000
   1  21  -7     507     109                                                         517   -0.29   -0.91  1.0000
   1  21  -6     419     101                                                         485    0.65   -0.57  1.0000
   1  21  -5    2095     112                                                        1892   -1.22    3.12  1.0000
   1  21  -4     335      86                                                         370    0.16    0.48  1.0000
   1  21  -3    2775     125                                                        2271    1.65   -2.54  1.0000
   1  21  -2     101     104                                                         136    1.48    0.09  1.0000
   1  21  -1     627     104                                                         543   -0.56   -0.85  1.0000
   1  21   0     784     105                                                        1188   -0.30    3.56  1.0000
   1  21   1     574      89                                                         531   -0.24    0.46  1.0000
   1  21   2      25      96                                                          28   -1.31    0.65  1.0000
   1  21   3    2690     112                                                        2192    1.75    2.41  1.0000
   1  21   4     374      91                                                         378   -0.16   -0.01  1.0000
   1  21   5    2371     116                                                        2171   -1.13   -3.09  1.0000
   1  21   6     232      87                                                         289   -0.58   -0.80  1.0000
   1  21   7     504      97                                                         519   -0.23    0.92  1.0000
   1  21   8      44      91                                                         152   -1.19   -3.73  1.0000
   1  21   9    1074     108                                                        1131    2.05   -3.28  1.0000
   1  21  10    1341     127                                                        1223   -1.08    1.65  1.0000
   1  21  11     196      88                                                         326    0.10    3.49  1.0000
   1  21  12      52      89                                                          49    0.29   -1.28  1.0000
   1  21  13     875     105                                                        1255    2.54   -2.05  1.0000
   1  21  14     408      97                                                         580   -3.22   -1.88  1.0000
   1  21  15      23     110                                                         -36    2.60   -0.41  1.0000
   1  21  16       8     107                                                         -43   -1.43   -0.74  1.0000
   1  21  17      53      86                                                         122    3.65   -0.66  1.0000
   1  21  18      33     104                                                          41   -0.32   -2.33  1.0000
   1  21  19       2     165                                                        -142   -0.64   -0.39  1.0000
   1  22 -23       4      44                                                          11    0.63   -1.34  1.0000
   1  22 -22      17      68                                                          25    0.51    0.14  1.0000
   1  22 -19      76     219                                                          93   -0.28   -0.52  1.0000
   1  22 -18      65     149                                                          42   -0.78   -1.02  1.0000
   1  22 -17     346     131                                                         345    0.64   -0.44  1.0000
   1  22 -16      67      95                                                          86    1.43   -1.91  1.0000
   1  22 -15     283     118                                                         344   -2.92   -1.12  1.0000
   1  22 -14     390      83                                                         446   -0.09   -1.46  1.0000
   1  22 -13     118     110                                                         201    1.81   -0.81  1.0000
   1  22 -12     509     106                                                         436   -1.68   -0.01  1.0000
   1  22 -11     567      97                                                         505   -0.71    0.66  1.0000
   1  22 -10      24     102                                                         -93    0.06    2.71  1.0000
   1  22  -9     531      96                                                         677    1.29    1.06  1.0000
   1  22  -8     438     105                                                         715    3.31    0.52  1.0000
   1  22  -7     238     111                                                         286    4.52   -1.69  1.0000
   1  22  -6     623     119                                                         780   -1.74   -0.05  1.0000
   1  22  -5    3606     162                                                        3730   -0.79    0.78  1.0000
   1  22  -4     533      99                                                         334    0.67    2.95  1.0000
   1  22  -3     746     109                                                         840   -1.75   -1.40  1.0000
   1  22  -2     310     106                                                         323   -1.79    0.18  1.0000
   1  22  -1      59     103                                                          50    1.83   -0.62  1.0000
   1  22   0      17      93                                                         -79   -0.04    2.26  1.0000
   1  22   1       7      91                                                        -137    1.45    0.29  1.0000
   1  22   2     185     100                                                         194    2.17    0.19  1.0000
   1  22   3     649      99                                                         760   -1.79    1.66  1.0000
   1  22   4     509     100                                                         330   -0.82    2.48  1.0000
   1  22   5    3253     134                                                        3350   -0.87   -0.69  1.0000
   1  22   6     523      91                                                         664    1.63    0.17  1.0000
   1  22   7     300      92                                                         370    4.52    1.53  1.0000
   1  22   8     493      97                                                         771   -3.10    0.66  1.0000
   1  22   9     443      97                                                         584    1.78   -0.72  1.0000
   1  22  10      24      94                                                           0   -0.04    2.67  1.0000
   1  22  11     290      85                                                         252   -0.76   -0.54  1.0000
   1  22  12     450      98                                                         373    1.86    0.03  1.0000
   1  22  13      72      79                                                         136    1.76    0.77  1.0000
   1  22  14     275      95                                                         321    0.14   -1.51  1.0000
   1  22  15     238     101                                                         285   -2.86    1.03  1.0000
   1  22  16      50     106                                                          68   -1.21   -1.90  1.0000
   1  22  17     150      92                                                         154    0.68    0.33  1.0000
   1  22  18     174      93                                                         136    0.68   -0.99  1.0000
   1  23 -18       5     154                                                         -28   -0.76   -0.89  1.0000
   1  23 -17      88     138                                                          77    0.83    0.82  1.0000
   1  23 -16      32     116                                                          26   -1.39    0.81  1.0000
   1  23 -15     761     110                                                         597   -1.60    1.35  1.0000
   1  23 -14      74      89                                                          37   -0.63   -3.06  1.0000
   1  23 -13     283     132                                                         234   -0.48    0.71  1.0000
   1  23 -12     250     102                                                         214   -1.46    0.33  1.0000
   1  23 -11     547     109                                                         642   -1.06    0.27  1.0000
   1  23 -10      59      98                                                          46   -1.17    0.84  1.0000
   1  23  -9      31     103                                                           8    0.04    1.50  1.0000
   1  23  -8     720     118                                                         609    1.06    0.54  1.0000
   1  23  -7     897     113                                                         756   -3.72    0.05  1.0000
   1  23  -6     681     112                                                         783    0.30   -1.74  1.0000
   1  23  -5      23     108                                                          54    1.43   -0.68  1.0000
   1  23  -4     164      86                                                          75   -0.65    2.23  1.0000
   1  23  -3     485      94                                                         566    2.71    2.56  1.0000
   1  23  -2    3605     148                                                        4032    0.73   -2.75  1.0000
   1  23  -1     720     112                                                         630   -0.06   -1.01  1.0000
   1  23   0       5      93                                                         -93   -0.36   -1.21  1.0000
   1  23   1     870     114                                                         753    0.12    1.14  1.0000
   1  23   2    3839     153                                                        4230   -0.40   -2.89  1.0000
   1  23   3     452     103                                                         533    2.23   -2.42  1.0000
   1  23   4      48      88                                                          14    0.44    1.72  1.0000
   1  23   5       8      83                                                          -9    1.48    0.54  1.0000
   1  23   6     600     102                                                         693   -0.27   -1.71  1.0000
   1  23   7     662      92                                                         543   -3.48   -0.04  1.0000
   1  23   8     652      97                                                         545   -0.99    0.70  1.0000
   1  23   9      79      82                                                          34    0.08   -1.71  1.0000
   1  23  10     133      99                                                         116    0.99    0.71  1.0000
   1  23  11     358      96                                                         428   -1.03   -0.10  1.0000
   1  23  12     266      87                                                         236    1.50    0.21  1.0000
   1  23  13     232      98                                                         181   -0.53   -0.85  1.0000
   1  23  14      29      94                                                         -26    0.70   -2.91  1.0000
   1  23  15     653      92                                                         502   -1.59   -1.38  1.0000
   1  23  17      23     147                                                          15    0.77   -0.66  1.0000
   1  24 -17       4     198                                                         -51    1.05    0.47  1.0000
   1  24 -16       3     148                                                         -35    0.78   -0.62  1.0000
   1  24 -15       1      98                                                         -30    0.53   -0.16  1.0000
   1  24 -14      29     130                                                          17   -0.78    0.59  1.0000
   1  24 -13       6      94                                                        -131   -1.25   -0.50  1.0000
   1  24 -12       3      83                                                           1   -0.44   -1.34  1.0000
   1  24 -11     572     125                                                         502    0.85    0.12  1.0000
   1  24 -10     239     108                                                         188    1.18   -1.13  1.0000
   1  24  -9     132     111                                                         216   -1.57   -1.55  1.0000
   1  24  -8      40      80                                                          43   -0.12   -0.48  1.0000
   1  24  -7     823      87                                                         595    4.57   -2.17  1.0000
   1  24  -6     499      99                                                         565   -1.25    1.64  1.0000
   1  24  -5     201     100                                                         203   -0.91   -0.23  1.0000
   1  24  -4       5      94                                                         -24    0.25    1.15  1.0000
   1  24  -3     289      91                                                         291    0.85   -0.14  1.0000
   1  24  -2     378     104                                                         461   -0.79    1.66  1.0000
   1  24  -1     145      98                                                         138    0.10   -0.14  1.0000
   1  24   0       3      91                                                          39    0.03    2.54  1.0000
   1  24   1      62     100                                                          51   -0.34    0.56  1.0000
   1  24   2     390      99                                                         493    1.06    1.57  1.0000
   1  24   3     330      97                                                         341    0.59   -0.05  1.0000
   1  24   4      42      95                                                          64   -0.04    1.15  1.0000
   1  24   5     357      98                                                         363   -0.81    0.15  1.0000
   1  24   6     388     106                                                         444    1.21    1.51  1.0000
   1  24   7     745     101                                                         544    4.52    1.93  1.0000
   1  24   8     101      94                                                         105    0.10   -0.64  1.0000
   1  24   9     175      93                                                         256   -1.27    1.77  1.0000
   1  24  10     130      84                                                          95   -0.94   -1.00  1.0000
   1  24  11     669      91                                                         606    0.69   -0.13  1.0000
   1  24  12      11      87                                                          32    0.57   -1.20  1.0000
   1  24  13      80      80                                                          58   -1.29    0.57  1.0000
   1  24  14      70      84                                                          52    0.75    0.60  1.0000
   1  25 -15      35     179                                                          97    0.42    2.42  1.0000
   1  25 -14     196     195                                                         222   -1.41    1.03  1.0000
   1  25 -13     122      98                                                         126    0.33   -0.57  1.0000
   1  25 -12       8     107                                                         -24    0.08    1.54  1.0000
   1  25 -11     168     138                                                         139   -0.86    1.74  1.0000
   1  25 -10     454      98                                                         375    0.24   -1.05  1.0000
   1  25  -9      18      61                                                           1    2.80   -0.44  1.0000
   1  25  -8     104      89                                                         225    2.54    2.26  1.0000
   1  25  -7      13      94                                                           4    1.16    0.08  1.0000
   1  25  -6     192      90                                                         244    1.39   -0.58  1.0000
   1  25  -5      31     103                                                          20    0.15   -1.94  1.0000
   1  25  -4     678     115                                                         708   -0.10    2.59  1.0000
   1  25  -3     106      88                                                         212    0.74    2.26  1.0000
   1  25  -2      36      85                                                         -20    1.83   -2.74  1.0000
   1  25  -1     100      90                                                          48    2.35   -1.91  1.0000
   1  25   0       1      94                                                          22    0.05   -2.01  1.0000
   1  25   1     108     105                                                          57    2.42    2.11  1.0000
   1  25   2      13      95                                                          81   -1.79   -2.81  1.0000
   1  25   3     168      94                                                         287    0.60   -2.16  1.0000
   1  25   4     792     107                                                         856   -0.13    2.81  1.0000
   1  25   5     117      90                                                         110    0.08    1.71  1.0000
   1  25   6      49     104                                                          79   -1.07   -0.84  1.0000
   1  25   7      25     107                                                          15    1.05    0.14  1.0000
   1  25   8     105      95                                                         224   -2.46    2.42  1.0000
   1  25   9       5      88                                                          17    2.87    0.36  1.0000
   1  25  10     479     101                                                         389   -0.05   -1.22  1.0000
   1  25  11     190     103                                                         165   -0.71   -1.67  1.0000
   1  25  12     104     136                                                         128    0.02    1.48  1.0000
   1  26 -12      67     189                                                          53    0.49   -0.71  1.0000
   1  26 -10     186     142                                                         146    1.80    0.26  1.0000
   1  26  -6     286     152                                                         374    1.90   -0.16  1.0000
   1  26  -5     121     148                                                         111   -1.21    1.63  1.0000
   1  26  -3      70     101                                                         110    1.11    0.94  1.0000
   1  26  -2     190      97                                                         211   -0.68   -0.76  1.0000
   1  26  -1     210     103                                                         168   -0.84    0.07  1.0000
   1  26   0     309      96                                                         383    0.05   -1.09  1.0000
   1  26   1     143      99                                                          98   -1.11   -0.15  1.0000
   1  26   2      56     103                                                          69    0.79   -1.09  1.0000
   1  26   3      72     109                                                         116    1.00   -1.07  1.0000
   1  26   4       3     133                                                          -1    0.68   -0.58  1.0000
   1  26   5      52     119                                                          35   -0.96   -1.70  1.0000
   1  26   6     224     167                                                         305   -2.07   -0.08  1.0000
   1  26   7      31     151                                                         113    2.80    0.56  1.0000
   1  27  -1      22     158                                                          17   -1.31   -0.68  1.0000
   1  27   0       7     145                                                        -145    0.00   -1.43  1.0000
   1  27   1     247     145                                                         235   -1.39    1.07  1.0000
   1  27   2       3     214                                                           1    0.50   -0.24  1.0000
   1  27   3     247     207                                                         158    2.28   -1.35  1.0000
   2 -27 -10      10      41                                                          -5    1.67    0.36  1.0000
   2 -27  -9      12      41                                                          -5   -0.44    1.88  1.0000
   2 -27  -4       2     168                                                         -83    0.84   -0.07  1.0000
   2 -27  -3      34     109                                                         106   -2.01   -1.65  1.0000
   2 -27  -2     127     104                                                         118   -0.05    0.28  1.0000
   2 -27  -1     166     109                                                         137   -0.70   -0.02  1.0000
   2 -27   0     171     119                                                          82   -2.22    0.00  1.0000
   2 -27   1     308     166                                                         258    0.95   -0.12  1.0000
   2 -27   2     154     106                                                         147   -0.07   -0.15  1.0000
   2 -27   3      75     143                                                         159    1.79   -1.45  1.0000
   2 -26 -10      31      35                                                         -15    0.21   -3.05  1.0000
   2 -26  -9      23      44                                                         -19   -1.65    2.06  1.0000
   2 -26  -8      36      27                                                         -28   -3.27   -0.33  1.0000
   2 -26  -7      13      42                                                          15    0.07    0.84  1.0000
   2 -26  -6      34      63                                                          93    2.09    0.41  1.0000
   2 -26  -5      60      72                                                          68    0.09    0.90  1.0000
   2 -26  -4      15      87                                                         -48   -1.84    1.08  1.0000
   2 -26  -3      19      90                                                         -23   -0.86   -2.22  1.0000
   2 -26  -2     330      90                                                         330   -0.64   -0.44  1.0000
   2 -26  -1       5      93                                                         -33    0.58   -1.06  1.0000
   2 -26   0      88      89                                                          78   -0.38   -0.32  1.0000
   2 -26   1      75      98                                                         106   -0.62   -0.73  1.0000
   2 -26   2     238      98                                                         242   -0.82    0.48  1.0000
   2 -26   3     103      91                                                          62    0.90   -2.26  1.0000
   2 -26   4      14     120                                                         -59   -1.81   -1.06  1.0000
   2 -26   5     230     100                                                         245   -0.05    0.89  1.0000
   2 -26   9      24     161                                                          -8    1.68    2.09  1.0000
   2 -25 -12       9     138                                                         -71    0.01   -1.68  1.0000
   2 -25 -11     127      86                                                         110   -0.93   -1.36  1.0000
   2 -25 -10       2      86                                                         -29   -0.66    0.48  1.0000
   2 -25  -9     102      79                                                          17    0.14    3.27  1.0000
   2 -25  -8       5      58                                                          10   -0.54    0.12  1.0000
   2 -25  -7      46      62                                                          62   -1.22   -0.25  1.0000
   2 -25  -6     215      83                                                         278   -0.48   -2.82  1.0000
   2 -25  -5       0      64                                                          -1   -0.05    0.28  1.0000
   2 -25  -4     409      90                                                         392    0.62    1.15  1.0000
   2 -25  -3     556      98                                                         602    0.67   -0.70  1.0000
   2 -25  -2     162      87                                                         219   -0.77    2.76  1.0000
   2 -25  -1     320      93                                                         476   -0.67    2.26  1.0000
   2 -25   0     880     102                                                        1032    1.35   -0.03  1.0000
   2 -25   1     215      95                                                         337    0.55    2.12  1.0000
   2 -25   2      80      97                                                         113   -0.71   -3.01  1.0000
   2 -25   3     568     101                                                         620   -0.65   -0.25  1.0000
   2 -25   4     416     102                                                         397    0.76   -1.39  1.0000
   2 -25   5      66      95                                                          74    0.25    0.25  1.0000
   2 -25   6     159     102                                                         204   -0.51    2.67  1.0000
   2 -25   7       5      91                                                         -15    1.25   -0.04  1.0000
   2 -25   8      95     100                                                         123   -0.65   -0.39  1.0000
   2 -25   9      79     100                                                           8   -0.03    3.34  1.0000
   2 -25  10       3     106                                                         -33   -0.74   -0.47  1.0000
   2 -25  11      10     114                                                         -91    0.96   -1.44  1.0000
   2 -25  12      83     119                                                         129   -0.08    1.53  1.0000
   2 -25  13       6     182                                                        -170    0.58    1.25  1.0000
   2 -25  14     167     222                                                         176   -0.40    0.59  1.0000
   2 -24 -15       4     111                                                         -70    1.06   -0.03  1.0000
   2 -24 -14      73     124                                                          72   -0.11   -0.04  1.0000
   2 -24 -13     141      67                                                         108    1.49    0.21  1.0000
   2 -24 -12      85      65                                                         207    2.34    1.59  1.0000
   2 -24 -11     487      69                                                         456   -0.23    0.79  1.0000
   2 -24 -10       1      58                                                          -6    0.59    0.18  1.0000
   2 -24  -9       0      70                                                         -19    0.03   -0.31  1.0000
   2 -24  -8     406      77                                                         364    0.61    0.38  1.0000
   2 -24  -7      12      70                                                         -73   -1.39   -1.34  1.0000
   2 -24  -6      53      75                                                          52    3.11   -0.30  1.0000
   2 -24  -5     531      87                                                         631   -0.02    1.17  1.0000
   2 -24  -4      28      86                                                          68   -1.04   -1.55  1.0000
   2 -24  -3     136      89                                                          95    1.35    0.89  1.0000
   2 -24  -2     363      93                                                         410   -0.02    0.72  1.0000
   2 -24  -1     171      90                                                         168    0.15   -1.76  1.0000
   2 -24   0     577     107                                                         851    2.84   -0.12  1.0000
   2 -24   1     200      98                                                         194   -0.07   -1.75  1.0000
   2 -24   2     633     105                                                         678   -0.56   -0.25  1.0000
   2 -24   3       8      88                                                         -19   -1.28    0.87  1.0000
   2 -24   4      23      98                                                          59   -1.03    1.60  1.0000
   2 -24   5     622     112                                                         749    0.28    1.42  1.0000
   2 -24   6      35     105                                                          26    2.86    0.54  1.0000
   2 -24   7      14     104                                                          36    1.32   -1.25  1.0000
   2 -24   8     505     108                                                         459    0.60   -0.40  1.0000
   2 -24   9      50      93                                                          41    0.18   -0.33  1.0000
   2 -24  10      82     125                                                          69    0.67   -0.17  1.0000
   2 -24  11     446      89                                                         417    0.19    0.97  1.0000
   2 -24  12      71      96                                                         186    2.39   -1.59  1.0000
   2 -24  13      75     121                                                          48   -1.44    0.32  1.0000
   2 -24  14     131     110                                                         135   -0.04    0.13  1.0000
   2 -24  15     206     247                                                         195   -1.23   -0.12  1.0000
   2 -24  16      75     206                                                          76    0.01    0.26  1.0000
   2 -24  17     178     181                                                         197    0.60   -0.34  1.0000
   2 -23 -16      58      84                                                          86    0.94   -0.10  1.0000
   2 -23 -15       6      90                                                           0    1.39   -0.07  1.0000
   2 -23 -14     112      66                                                         142    0.69    0.35  1.0000
   2 -23 -13      29      57                                                         -34   -0.01   -2.94  1.0000
   2 -23 -12     614      74                   