data_image0
_cell_length_a       21.335
_cell_length_b       15.168
_cell_length_c       37.948
_cell_angle_alpha    90
_cell_angle_beta     90
_cell_angle_gamma    90

_symmetry_space_group_name_H-M    "P 1"
_symmetry_int_tables_number       1

loop_
  _symmetry_equiv_pos_as_xyz
  'x, y, z'

loop_
  _atom_site_label
  _atom_site_occupancy
  _atom_site_fract_x
  _atom_site_fract_y
  _atom_site_fract_z
  _atom_site_thermal_displace_type
  _atom_site_B_iso_or_equiv
  _atom_site_type_symbol
  O1       1.0000 0.49018  0.40882  0.51080  Biso   1.000  O
  N1       1.0000 0.48540  0.32859  0.51220  Biso   1.000  N
  C1       1.0000 0.53869  0.27143  0.50269  Biso   1.000  C
  O2       1.0000 0.43600  0.29008  0.52000  Biso   1.000  O
  C2       1.0000 0.53040  0.18170  0.50129  Biso   1.000  C
  C3       1.0000 0.59442  0.31580  0.49249  Biso   1.000  C
  C4       1.0000 0.58181  0.12691  0.48909  Biso   1.000  C
  H1       1.0000 0.49210  0.15618  0.50809  Biso   1.000  H
  C5       1.0000 0.64209  0.26101  0.48121  Biso   1.000  C
  H2       1.0000 0.59841  0.37737  0.49331  Biso   1.000  H
  C6       1.0000 0.57502  0.02881  0.48630  Biso   1.000  C
  C7       1.0000 0.63778  0.16917  0.47921  Biso   1.000  C
  N2       1.0000 0.70209  0.30327  0.47070  Biso   1.000  N
  C8       1.0000 0.50532  0.99921  0.48830  Biso   1.000  C
  C9       1.0000 0.60422  0.99697  0.45299  Biso   1.000  C
  C10      1.0000 0.61158  0.98708  0.51900  Biso   1.000  C
  H3       1.0000 0.67218  0.13588  0.47130  Biso   1.000  H
  O3       1.0000 0.70818  0.38153  0.47441  Biso   1.000  O
  O4       1.0000 0.74221  0.25732  0.45979  Biso   1.000  O
  N3       1.0000 0.46309  0.02182  0.46240  Biso   1.000  N
  C11      1.0000 0.47542  0.95312  0.51249  Biso   1.000  C
  N4       1.0000 0.59948  0.04312  0.42042  Biso   1.000  N
  C12      1.0000 0.63890  0.92260  0.44390  Biso   1.000  C
  H4       1.0000 0.59250  0.00712  0.54079  Biso   1.000  H
  H5       1.0000 0.65512  0.00560  0.51839  Biso   1.000  H
  H6       1.0000 0.60942  0.92333  0.51779  Biso   1.000  H
  C13      1.0000 0.40708  0.99110  0.47241  Biso   1.000  C
  H7       1.0000 0.47129  0.05070  0.44321  Biso   1.000  H
  C14      1.0000 0.41200  0.94732  0.50340  Biso   1.000  C
  H8       1.0000 0.49370  0.92801  0.53260  Biso   1.000  H
  C15      1.0000 0.63061  0.00053  0.39380  Biso   1.000  C
  H9       1.0000 0.57928  0.09243  0.41781  Biso   1.000  H
  C16      1.0000 0.65489  0.92590  0.40779  Biso   1.000  C
  H10      1.0000 0.65011  0.87698  0.45950  Biso   1.000  H
  C17      1.0000 0.34689  0.00903  0.44959  Biso   1.000  C
  H11      1.0000 0.37989  0.91911  0.51610  Biso   1.000  H
  C18      1.0000 0.63801  0.03633  0.35641  Biso   1.000  C
  H12      1.0000 0.67851  0.88331  0.39559  Biso   1.000  H
  C19      1.0000 0.35650  0.98391  0.41130  Biso   1.000  C
  C20      1.0000 0.32871  0.10951  0.45199  Biso   1.000  C
  C21      1.0000 0.28990  0.95899  0.46500  Biso   1.000  C
  C22      1.0000 0.58022  0.01958  0.33541  Biso   1.000  C
  C23      1.0000 0.65090  0.13819  0.35899  Biso   1.000  C
  C24      1.0000 0.69670  0.99499  0.34099  Biso   1.000  C
  N5       1.0000 0.38500  0.03771  0.38750  Biso   1.000  N
  C25      1.0000 0.33611  0.90961  0.39320  Biso   1.000  C
  H13      1.0000 0.36382  0.14531  0.44421  Biso   1.000  H
  H14      1.0000 0.31840  0.12427  0.47610  Biso   1.000  H
  H15      1.0000 0.29271  0.12078  0.43699  Biso   1.000  H
  H16      1.0000 0.29829  0.89610  0.46479  Biso   1.000  H
  H17      1.0000 0.25311  0.97119  0.45091  Biso   1.000  H
  H18      1.0000 0.28259  0.97831  0.48909  Biso   1.000  H
  N6       1.0000 0.52069  0.04542  0.34489  Biso   1.000  N
  C26      1.0000 0.57460  0.98688  0.30049  Biso   1.000  C
  H19      1.0000 0.65620  0.16218  0.33551  Biso   1.000  H
  H20      1.0000 0.68882  0.14821  0.37259  Biso   1.000  H
  H21      1.0000 0.61580  0.16693  0.37051  Biso   1.000  H
  H22      1.0000 0.73279  0.01239  0.35491  Biso   1.000  H
  H23      1.0000 0.70218  0.01490  0.31691  Biso   1.000  H
  H24      1.0000 0.69271  0.93130  0.34139  Biso   1.000  H
  C27      1.0000 0.38411  0.00138  0.35380  Biso   1.000  C
  H25      1.0000 0.40178  0.08841  0.39270  Biso   1.000  H
  C28      1.0000 0.35182  0.92102  0.35820  Biso   1.000  C
  H26      1.0000 0.31540  0.86069  0.40310  Biso   1.000  H
  C29      1.0000 0.47832  0.02802  0.31859  Biso   1.000  C
  H27      1.0000 0.51109  0.06949  0.36500  Biso   1.000  H
  C30      1.0000 0.51001  0.99347  0.29140  Biso   1.000  C
  H28      1.0000 0.60708  0.96519  0.28631  Biso   1.000  H
  C31      1.0000 0.40951  0.04760  0.32160  Biso   1.000  C
  H29      1.0000 0.34230  0.88113  0.33999  Biso   1.000  H
  H30      1.0000 0.49238  0.97633  0.26979  Biso   1.000  H
  C32      1.0000 0.39630  0.14709  0.32489  Biso   1.000  C
  C33      1.0000 0.37319  0.01312  0.28771  Biso   1.000  C
  C34      1.0000 0.33700  0.17860  0.33480  Biso   1.000  C
  C35      1.0000 0.44312  0.20781  0.31849  Biso   1.000  C
  H31      1.0000 0.39250  0.03718  0.26671  Biso   1.000  H
  H32      1.0000 0.32969  0.03171  0.28890  Biso   1.000  H
  H33      1.0000 0.37511  0.94917  0.28689  Biso   1.000  H
  C36      1.0000 0.32491  0.26793  0.33831  Biso   1.000  C
  H34      1.0000 0.30462  0.13799  0.33920  Biso   1.000  H
  C37      1.0000 0.42831  0.29740  0.32149  Biso   1.000  C
  H35      1.0000 0.48381  0.18948  0.31230  Biso   1.000  H
  C38      1.0000 0.37010  0.32839  0.33230  Biso   1.000  C
  N7       1.0000 0.26360  0.29589  0.34979  Biso   1.000  N
  N8       1.0000 0.47921  0.36353  0.31659  Biso   1.000  N
  H36      1.0000 0.36250  0.38898  0.33530  Biso   1.000  H
  O5       1.0000 0.22372  0.24347  0.35630  Biso   1.000  O
  O6       1.0000 0.25568  0.37520  0.35501  Biso   1.000  O
  O7       1.0000 0.46731  0.44139  0.32170  Biso   1.000  O
  O8       1.0000 0.53161  0.33531  0.30671  Biso   1.000  O
  C39      1.0000 0.45718  0.45662  0.59979  Biso   1.000  C
  C40      1.0000 0.40319  0.50758  0.61621  Biso   1.000  C
  H37      1.0000 0.46342  0.47607  0.57579  Biso   1.000  H
  H38      1.0000 0.49510  0.46697  0.61331  Biso   1.000  H
  H39      1.0000 0.44748  0.39412  0.60001  Biso   1.000  H
  C41      1.0000 0.34722  0.49110  0.59410  Biso   1.000  C
  C42      1.0000 0.39522  0.48147  0.65421  Biso   1.000  C
  C43      1.0000 0.41861  0.61050  0.61350  Biso   1.000  C
  C44      1.0000 0.33921  0.44811  0.56240  Biso   1.000  C
  N9       1.0000 0.28620  0.52209  0.60219  Biso   1.000  N
  C45      1.0000 0.41172  0.40737  0.67150  Biso   1.000  C
  N10      1.0000 0.36480  0.53547  0.67901  Biso   1.000  N
  H40      1.0000 0.38172  0.64432  0.62001  Biso   1.000  H
  H41      1.0000 0.45268  0.62480  0.62939  Biso   1.000  H
  H42      1.0000 0.43051  0.62500  0.58960  Biso   1.000  H
  C46      1.0000 0.27392  0.45227  0.55160  Biso   1.000  C
  H43      1.0000 0.37131  0.42009  0.54959  Biso   1.000  H
  C47      1.0000 0.24181  0.49960  0.57679  Biso   1.000  C
  H44      1.0000 0.27738  0.55222  0.62111  Biso   1.000  H
  C48      1.0000 0.39498  0.41528  0.70739  Biso   1.000  C
  H45      1.0000 0.43131  0.35812  0.66130  Biso   1.000  H
  C49      1.0000 0.36911  0.49552  0.71129  Biso   1.000  C
  H46      1.0000 0.34652  0.58557  0.67461  Biso   1.000  H
  H47      1.0000 0.25671  0.42722  0.53110  Biso   1.000  H
  C50      1.0000 0.17460  0.52347  0.57890  Biso   1.000  C
  H48      1.0000 0.40089  0.37269  0.72510  Biso   1.000  H
  C51      1.0000 0.33958  0.54127  0.74331  Biso   1.000  C
  C52      1.0000 0.13940  0.48767  0.54941  Biso   1.000  C
  C53      1.0000 0.16869  0.63021  0.57600  Biso   1.000  C
  C54      1.0000 0.14390  0.49558  0.61460  Biso   1.000  C
  C55      1.0000 0.27040  0.52129  0.74731  Biso   1.000  C
  C56      1.0000 0.37361  0.50290  0.77530  Biso   1.000  C
  C57      1.0000 0.35289  0.63957  0.74270  Biso   1.000  C
  H49      1.0000 0.13532  0.42438  0.55210  Biso   1.000  H
  H50      1.0000 0.09801  0.51431  0.54870  Biso   1.000  H
  H51      1.0000 0.16128  0.50053  0.52751  Biso   1.000  H
  C58      1.0000 0.21748  0.67952  0.56430  Biso   1.000  C
  C59      1.0000 0.11338  0.66950  0.58501  Biso   1.000  C
  C60      1.0000 0.10968  0.42049  0.61969  Biso   1.000  C
  N11      1.0000 0.14929  0.54200  0.64499  Biso   1.000  N
  N12      1.0000 0.22751  0.54219  0.72059  Biso   1.000  N
  C61      1.0000 0.23609  0.48259  0.77369  Biso   1.000  C
  H52      1.0000 0.36189  0.44152  0.77809  Biso   1.000  H
  H53      1.0000 0.41851  0.50719  0.77169  Biso   1.000  H
  H54      1.0000 0.36189  0.53560  0.79619  Biso   1.000  H
  C62      1.0000 0.41139  0.67227  0.73300  Biso   1.000  C
  C63      1.0000 0.30738  0.70662  0.75129  Biso   1.000  C
  H55      1.0000 0.25479  0.65223  0.55700  Biso   1.000  H
  C64      1.0000 0.21181  0.77288  0.56311  Biso   1.000  C
  C65      1.0000 0.10930  0.76187  0.58359  Biso   1.000  C
  H56      1.0000 0.07879  0.63542  0.59199  Biso   1.000  H
  H57      1.0000 0.09979  0.37671  0.60309  Biso   1.000  H
  C66      1.0000 0.09238  0.42398  0.65629  Biso   1.000  C
  C67      1.0000 0.11690  0.49769  0.67171  Biso   1.000  C
  H58      1.0000 0.16972  0.59131  0.64749  Biso   1.000  H
  C68      1.0000 0.16761  0.52103  0.73071  Biso   1.000  C
  H59      1.0000 0.23750  0.56527  0.70041  Biso   1.000  H
  C69      1.0000 0.17281  0.48200  0.76210  Biso   1.000  C
  H60      1.0000 0.25142  0.46077  0.79519  Biso   1.000  H
  H61      1.0000 0.44420  0.63403  0.72670  Biso   1.000  H
  C70      1.0000 0.42001  0.76457  0.73290  Biso   1.000  C
  C71      1.0000 0.31938  0.79397  0.74921  Biso   1.000  C
  H62      1.0000 0.26731  0.68862  0.75859  Biso   1.000  H
  C72      1.0000 0.15960  0.81382  0.57331  Biso   1.000  C
  N13      1.0000 0.26712  0.82582  0.55471  Biso   1.000  N
  N14      1.0000 0.05020  0.80340  0.59421  Biso   1.000  N
  H63      1.0000 0.06782  0.38159  0.66789  Biso   1.000  H
  C73      1.0000 0.11019  0.53692  0.70739  Biso   1.000  C
  H64      1.0000 0.13921  0.45748  0.77480  Biso   1.000  H
  C74      1.0000 0.37600  0.82509  0.74049  Biso   1.000  C
  N15      1.0000 0.48498  0.79437  0.72249  Biso   1.000  N
  N16      1.0000 0.26951  0.85667  0.75519  Biso   1.000  N
  H65      1.0000 0.15702  0.87573  0.57350  Biso   1.000  H
  O9       1.0000 0.26300  0.90348  0.55531  Biso   1.000  O
  O10      1.0000 0.31399  0.78679  0.54419  Biso   1.000  O
  O11      1.0000 0.00652  0.76141  0.60491  Biso   1.000  O
  O12      1.0000 0.04828  0.88443  0.59310  Biso   1.000  O
  C75      1.0000 0.09932  0.63621  0.70670  Biso   1.000  C
  C76      1.0000 0.05418  0.49539  0.72681  Biso   1.000  C
  H66      1.0000 0.38449  0.88588  0.73970  Biso   1.000  H
  O13      1.0000 0.52918  0.73912  0.72199  Biso   1.000  O
  O14      1.0000 0.49220  0.87348  0.71690  Biso   1.000  O
  O15      1.0000 0.22128  0.82667  0.76571  Biso   1.000  O
  O16      1.0000 0.27771  0.93289  0.74850  Biso   1.000  O
  H67      1.0000 0.06342  0.64939  0.69200  Biso   1.000  H
  H68      1.0000 0.09159  0.65730  0.73039  Biso   1.000  H
  H69      1.0000 0.13621  0.66528  0.69719  Biso   1.000  H
  H70      1.0000 0.06070  0.43229  0.72889  Biso   1.000  H
  H71      1.0000 0.05062  0.52123  0.75011  Biso   1.000  H
  H72      1.0000 0.01608  0.50653  0.71361  Biso   1.000  H
  C77      1.0000 0.63942  0.51233  0.54941  Biso   1.000  C
  C78      1.0000 0.67462  0.47653  0.57890  Biso   1.000  C
  H73      1.0000 0.63529  0.57562  0.55210  Biso   1.000  H
  H74      1.0000 0.59798  0.48569  0.54870  Biso   1.000  H
  H75      1.0000 0.66131  0.49947  0.52751  Biso   1.000  H
  C79      1.0000 0.66871  0.36979  0.57600  Biso   1.000  C
  C80      1.0000 0.74179  0.50040  0.57679  Biso   1.000  C
  C81      1.0000 0.64392  0.50442  0.61460  Biso   1.000  C
  C82      1.0000 0.61341  0.33050  0.58501  Biso   1.000  C
  C83      1.0000 0.71751  0.32048  0.56430  Biso   1.000  C
  C84      1.0000 0.77389  0.54773  0.55160  Biso   1.000  C
  N17      1.0000 0.78622  0.47791  0.60219  Biso   1.000  N
  C85      1.0000 0.60970  0.57951  0.61969  Biso   1.000  C
  N18      1.0000 0.64931  0.45800  0.64499  Biso   1.000  N
  C86      1.0000 0.60928  0.23813  0.58359  Biso   1.000  C
  H76      1.0000 0.57881  0.36458  0.59199  Biso   1.000  H
  C87      1.0000 0.71179  0.22712  0.56311  Biso   1.000  C
  H77      1.0000 0.75482  0.34777  0.55700  Biso   1.000  H
  C88      1.0000 0.83918  0.55189  0.56240  Biso   1.000  C
  H78      1.0000 0.75669  0.57278  0.53110  Biso   1.000  H
  C89      1.0000 0.84720  0.50890  0.59410  Biso   1.000  C
  H79      1.0000 0.77741  0.44778  0.62111  Biso   1.000  H
  H80      1.0000 0.59981  0.62329  0.60309  Biso   1.000  H
  C90      1.0000 0.59241  0.57602  0.65629  Biso   1.000  C
  C91      1.0000 0.61692  0.50231  0.67171  Biso   1.000  C
  H81      1.0000 0.66970  0.40869  0.64749  Biso   1.000  H
  N19      1.0000 0.55022  0.19660  0.59421  Biso   1.000  N
  C92      1.0000 0.65962  0.18618  0.57331  Biso   1.000  C
  N20      1.0000 0.76710  0.17418  0.55471  Biso   1.000  N
  H82      1.0000 0.87129  0.57991  0.54959  Biso   1.000  H
  C93      1.0000 0.90321  0.49242  0.61621  Biso   1.000  C
  H83      1.0000 0.56780  0.61841  0.66789  Biso   1.000  H
  C94      1.0000 0.61022  0.46308  0.70739  Biso   1.000  C
  O17      1.0000 0.50649  0.23859  0.60491  Biso   1.000  O
  O18      1.0000 0.54830  0.11557  0.59310  Biso   1.000  O
  H84      1.0000 0.65700  0.12427  0.57350  Biso   1.000  H
  O19      1.0000 0.76302  0.09652  0.55531  Biso   1.000  O
  O20      1.0000 0.81401  0.21321  0.54419  Biso   1.000  O
  C95      1.0000 0.89520  0.51853  0.65421  Biso   1.000  C
  C96      1.0000 0.95721  0.54338  0.59979  Biso   1.000  C
  C97      1.0000 0.91858  0.38950  0.61350  Biso   1.000  C
  C98      1.0000 0.66759  0.47897  0.73071  Biso   1.000  C
  C99      1.0000 0.59930  0.36379  0.70670  Biso   1.000  C
  C100     1.0000 0.55421  0.50461  0.72681  Biso   1.000  C
  C101     1.0000 0.91169  0.59263  0.67150  Biso   1.000  C
  N21      1.0000 0.86482  0.46453  0.67901  Biso   1.000  N
  H85      1.0000 0.96339  0.52393  0.57579  Biso   1.000  H
  H86      1.0000 0.99508  0.53303  0.61331  Biso   1.000  H
  H87      1.0000 0.94750  0.60588  0.60001  Biso   1.000  H
  H88      1.0000 0.88170  0.35568  0.62001  Biso   1.000  H
  H89      1.0000 0.95271  0.37520  0.62939  Biso   1.000  H
  H90      1.0000 0.93049  0.37500  0.58960  Biso   1.000  H
  C102     1.0000 0.67279  0.51800  0.76210  Biso   1.000  C
  N22      1.0000 0.72749  0.45781  0.72059  Biso   1.000  N
  H91      1.0000 0.56339  0.35061  0.69200  Biso   1.000  H
  H92      1.0000 0.59161  0.34270  0.73039  Biso   1.000  H
  H93      1.0000 0.63618  0.33472  0.69719  Biso   1.000  H
  H94      1.0000 0.56072  0.56771  0.72889  Biso   1.000  H
  H95      1.0000 0.55060  0.47877  0.75011  Biso   1.000  H
  H96      1.0000 0.51610  0.49347  0.71361  Biso   1.000  H
  C103     1.0000 0.89501  0.58472  0.70739  Biso   1.000  C
  H97      1.0000 0.93129  0.64188  0.66130  Biso   1.000  H
  C104     1.0000 0.86909  0.50448  0.71129  Biso   1.000  C
  H98      1.0000 0.84650  0.41443  0.67461  Biso   1.000  H
  H99      1.0000 0.63918  0.54252  0.77480  Biso   1.000  H
  C105     1.0000 0.73611  0.51741  0.77369  Biso   1.000  C
  C106     1.0000 0.77038  0.47871  0.74731  Biso   1.000  C
  H100     1.0000 0.73752  0.43473  0.70041  Biso   1.000  H
  H101     1.0000 0.90091  0.62731  0.72510  Biso   1.000  H
  C107     1.0000 0.83961  0.45873  0.74331  Biso   1.000  C
  H102     1.0000 0.75139  0.53923  0.79519  Biso   1.000  H
  C108     1.0000 0.87359  0.49710  0.77530  Biso   1.000  C
  C109     1.0000 0.85292  0.36043  0.74270  Biso   1.000  C
  H103     1.0000 0.86192  0.55848  0.77809  Biso   1.000  H
  H104     1.0000 0.91849  0.49281  0.77169  Biso   1.000  H
  H105     1.0000 0.86192  0.46440  0.79619  Biso   1.000  H
  C110     1.0000 0.91141  0.32773  0.73300  Biso   1.000  C
  C111     1.0000 0.80741  0.29338  0.75129  Biso   1.000  C
  H106     1.0000 0.94422  0.36597  0.72670  Biso   1.000  H
  C112     1.0000 0.91999  0.23543  0.73290  Biso   1.000  C
  C113     1.0000 0.81940  0.20603  0.74921  Biso   1.000  C
  H107     1.0000 0.76728  0.31138  0.75859  Biso   1.000  H
  C114     1.0000 0.87598  0.17491  0.74049  Biso   1.000  C
  N23      1.0000 0.98500  0.20563  0.72249  Biso   1.000  N
  N24      1.0000 0.76949  0.14333  0.75519  Biso   1.000  N
  H108     1.0000 0.88451  0.11412  0.73970  Biso   1.000  H
  O21      1.0000 0.99222  0.12652  0.71690  Biso   1.000  O
  O22      1.0000 0.02920  0.26088  0.72199  Biso   1.000  O
  O23      1.0000 0.72130  0.17333  0.76571  Biso   1.000  O
  O24      1.0000 0.77769  0.06711  0.74850  Biso   1.000  O
  O25      1.0000 0.75571  0.62480  0.35501  Biso   1.000  O
  N25      1.0000 0.76358  0.70411  0.34979  Biso   1.000  N
  C115     1.0000 0.82489  0.73207  0.33831  Biso   1.000  C
  O26      1.0000 0.72369  0.75653  0.35630  Biso   1.000  O
  C116     1.0000 0.87012  0.67161  0.33230  Biso   1.000  C
  C117     1.0000 0.83698  0.82140  0.33480  Biso   1.000  C
  C118     1.0000 0.92829  0.70260  0.32149  Biso   1.000  C
  H109     1.0000 0.86248  0.61102  0.33530  Biso   1.000  H
  C119     1.0000 0.89632  0.85291  0.32489  Biso   1.000  C
  H110     1.0000 0.80459  0.86201  0.33920  Biso   1.000  H
  C120     1.0000 0.94310  0.79219  0.31849  Biso   1.000  C
  N26      1.0000 0.97919  0.63647  0.31659  Biso   1.000  N
  C121     1.0000 0.90949  0.95240  0.32160  Biso   1.000  C
  H111     1.0000 0.98378  0.81052  0.31230  Biso   1.000  H
  O27      1.0000 0.96728  0.55861  0.32170  Biso   1.000  O
  O28      1.0000 0.03159  0.66469  0.30671  Biso   1.000  O
  C122     1.0000 0.88409  0.99862  0.35380  Biso   1.000  C
  C123     1.0000 0.97830  0.97198  0.31859  Biso   1.000  C
  C124     1.0000 0.87321  0.98688  0.28771  Biso   1.000  C
  N27      1.0000 0.88498  0.96229  0.38750  Biso   1.000  N
  C125     1.0000 0.85179  0.07898  0.35820  Biso   1.000  C
  N28      1.0000 0.02072  0.95458  0.34489  Biso   1.000  N
  C126     1.0000 0.00998  0.00653  0.29140  Biso   1.000  C
  H112     1.0000 0.89248  0.96282  0.26671  Biso   1.000  H
  H113     1.0000 0.82972  0.96829  0.28890  Biso   1.000  H
  H114     1.0000 0.87509  0.05083  0.28689  Biso   1.000  H
  H115     1.0000 0.90180  0.91159  0.39270  Biso   1.000  H
  C127     1.0000 0.85648  0.01609  0.41130  Biso   1.000  C
  H116     1.0000 0.84228  0.11887  0.33999  Biso   1.000  H
  C128     1.0000 0.83609  0.09039  0.39320  Biso   1.000  C
  C129     1.0000 0.08020  0.98042  0.33541  Biso   1.000  C
  H117     1.0000 0.01111  0.93051  0.36500  Biso   1.000  H
  H118     1.0000 0.99241  0.02367  0.26979  Biso   1.000  H
  C130     1.0000 0.07462  0.01312  0.30049  Biso   1.000  C
  C131     1.0000 0.84692  0.99097  0.44959  Biso   1.000  C
  H119     1.0000 0.81542  0.13931  0.40310  Biso   1.000  H
  C132     1.0000 0.13799  0.96367  0.35641  Biso   1.000  C
  H120     1.0000 0.10710  0.03481  0.28631  Biso   1.000  H
  C133     1.0000 0.82869  0.89049  0.45199  Biso   1.000  C
  C134     1.0000 0.78992  0.04101  0.46500  Biso   1.000  C
  C135     1.0000 0.90710  0.00890  0.47241  Biso   1.000  C
  C136     1.0000 0.13058  0.99947  0.39380  Biso   1.000  C
  C137     1.0000 0.15088  0.86181  0.35899  Biso   1.000  C
  C138     1.0000 0.19672  0.00501  0.34099  Biso   1.000  C
  H121     1.0000 0.86379  0.85469  0.44421  Biso   1.000  H
  H122     1.0000 0.81842  0.87573  0.47610  Biso   1.000  H
  H123     1.0000 0.79269  0.87922  0.43699  Biso   1.000  H
  H124     1.0000 0.79831  0.10390  0.46479  Biso   1.000  H
  H125     1.0000 0.75308  0.02881  0.45091  Biso   1.000  H
  H126     1.0000 0.78261  0.02169  0.48909  Biso   1.000  H
  N29      1.0000 0.96311  0.97818  0.46240  Biso   1.000  N
  C139     1.0000 0.91202  0.05268  0.50340  Biso   1.000  C
  N30      1.0000 0.09951  0.95688  0.42042  Biso   1.000  N
  C140     1.0000 0.15491  0.07410  0.40779  Biso   1.000  C
  H127     1.0000 0.15622  0.83782  0.33551  Biso   1.000  H
  H128     1.0000 0.18880  0.85179  0.37259  Biso   1.000  H
  H129     1.0000 0.11582  0.83307  0.37051  Biso   1.000  H
  H130     1.0000 0.23281  0.98761  0.35491  Biso   1.000  H
  H131     1.0000 0.20220  0.98510  0.31691  Biso   1.000  H
  H132     1.0000 0.19269  0.06870  0.34139  Biso   1.000  H
  H133     1.0000 0.97131  0.94930  0.44321  Biso   1.000  H
  C141     1.0000 0.00530  0.00079  0.48830  Biso   1.000  C
  H134     1.0000 0.87992  0.08089  0.51610  Biso   1.000  H
  C142     1.0000 0.97539  0.04688  0.51249  Biso   1.000  C
  H135     1.0000 0.07931  0.90757  0.41781  Biso   1.000  H
  C143     1.0000 0.10419  0.00303  0.45299  Biso   1.000  C
  C144     1.0000 0.13888  0.07740  0.44390  Biso   1.000  C
  H136     1.0000 0.17849  0.11669  0.39559  Biso   1.000  H
  C145     1.0000 0.07499  0.97119  0.48630  Biso   1.000  C
  H137     1.0000 0.99372  0.07199  0.53260  Biso   1.000  H
  H138     1.0000 0.15008  0.12302  0.45950  Biso   1.000  H
  C146     1.0000 0.08179  0.87309  0.48909  Biso   1.000  C
  C147     1.0000 0.11160  0.01292  0.51900  Biso   1.000  C
  C148     1.0000 0.13780  0.83083  0.47921  Biso   1.000  C
  C149     1.0000 0.03042  0.81830  0.50129  Biso   1.000  C
  H139     1.0000 0.09248  0.99288  0.54079  Biso   1.000  H
  H140     1.0000 0.15510  0.99440  0.51839  Biso   1.000  H
  H141     1.0000 0.10940  0.07667  0.51779  Biso   1.000  H
  H142     1.0000 0.17221  0.86412  0.47130  Biso   1.000  H
  C150     1.0000 0.14211  0.73899  0.48121  Biso   1.000  C
  H143     1.0000 0.99208  0.84382  0.50809  Biso   1.000  H
  C151     1.0000 0.03872  0.72857  0.50269  Biso   1.000  C
  C152     1.0000 0.09440  0.68420  0.49249  Biso   1.000  C
  N31      1.0000 0.20211  0.69673  0.47070  Biso   1.000  N
  N32      1.0000 0.98542  0.67141  0.51220  Biso   1.000  N
  H144     1.0000 0.09838  0.62263  0.49331  Biso   1.000  H
  O29      1.0000 0.20820  0.61847  0.47441  Biso   1.000  O
  O30      1.0000 0.24218  0.74268  0.45979  Biso   1.000  O
  O31      1.0000 0.93602  0.70992  0.52000  Biso   1.000  O
  O32      1.0000 0.99020  0.59118  0.51080  Biso   1.000  O
  C153     1.0000 0.62639  0.49710  0.27530  Biso   1.000  C
  C154     1.0000 0.66042  0.45873  0.24331  Biso   1.000  C
  H145     1.0000 0.63811  0.55848  0.27809  Biso   1.000  H
  H146     1.0000 0.58149  0.49281  0.27169  Biso   1.000  H
  H147     1.0000 0.63811  0.46440  0.29619  Biso   1.000  H
  C155     1.0000 0.64711  0.36043  0.24270  Biso   1.000  C
  C156     1.0000 0.72960  0.47871  0.24731  Biso   1.000  C
  C157     1.0000 0.63089  0.50448  0.21129  Biso   1.000  C
  C158     1.0000 0.58861  0.32773  0.23300  Biso   1.000  C
  C159     1.0000 0.69262  0.29338  0.25129  Biso   1.000  C
  C160     1.0000 0.76391  0.51741  0.27369  Biso   1.000  C
  N33      1.0000 0.77249  0.45781  0.22059  Biso   1.000  N
  C161     1.0000 0.60502  0.58472  0.20739  Biso   1.000  C
  N34      1.0000 0.63520  0.46453  0.17901  Biso   1.000  N
  C162     1.0000 0.57999  0.23543  0.23290  Biso   1.000  C
  H148     1.0000 0.55580  0.36597  0.22670  Biso   1.000  H
  C163     1.0000 0.68062  0.20603  0.24921  Biso   1.000  C
  H149     1.0000 0.73269  0.31138  0.25859  Biso   1.000  H
  C164     1.0000 0.82719  0.51800  0.26210  Biso   1.000  C
  H150     1.0000 0.74858  0.53923  0.29519  Biso   1.000  H
  C165     1.0000 0.83239  0.47897  0.23071  Biso   1.000  C
  H151     1.0000 0.76250  0.43473  0.20041  Biso   1.000  H
  H152     1.0000 0.59911  0.62731  0.22510  Biso   1.000  H
  C166     1.0000 0.58828  0.59263  0.17150  Biso   1.000  C
  C167     1.0000 0.60478  0.51853  0.15421  Biso   1.000  C
  H153     1.0000 0.65348  0.41443  0.17461  Biso   1.000  H
  N35      1.0000 0.51502  0.20563  0.22249  Biso   1.000  N
  C168     1.0000 0.62400  0.17491  0.24049  Biso   1.000  C
  N36      1.0000 0.73049  0.14333  0.25519  Biso   1.000  N
  H154     1.0000 0.86079  0.54252  0.27480  Biso   1.000  H
  C169     1.0000 0.88981  0.46308  0.20739  Biso   1.000  C
  H155     1.0000 0.56869  0.64188  0.16130  Biso   1.000  H
  C170     1.0000 0.59681  0.49242  0.11621  Biso   1.000  C
  O33      1.0000 0.47082  0.26088  0.22199  Biso   1.000  O
  O34      1.0000 0.50780  0.12652  0.21690  Biso   1.000  O
  H156     1.0000 0.61551  0.11412  0.23970  Biso   1.000  H
  O35      1.0000 0.77872  0.17333  0.26571  Biso   1.000  O
  O36      1.0000 0.72229  0.06711  0.24850  Biso   1.000  O
  C171     1.0000 0.88310  0.50231  0.17171  Biso   1.000  C
  C172     1.0000 0.90068  0.36379  0.20670  Biso   1.000  C
  C173     1.0000 0.94582  0.50461  0.22681  Biso   1.000  C
  C174     1.0000 0.54282  0.54338  0.09979  Biso   1.000  C
  C175     1.0000 0.58139  0.38950  0.11350  Biso   1.000  C
  C176     1.0000 0.65278  0.50890  0.09410  Biso   1.000  C
  C177     1.0000 0.90762  0.57602  0.15629  Biso   1.000  C
  N37      1.0000 0.85071  0.45800  0.14499  Biso   1.000  N
  H157     1.0000 0.93658  0.35061  0.19200  Biso   1.000  H
  H158     1.0000 0.90841  0.34270  0.23039  Biso   1.000  H
  H159     1.0000 0.86379  0.33472  0.19719  Biso   1.000  H
  H160     1.0000 0.93930  0.56771  0.22889  Biso   1.000  H
  H161     1.0000 0.94938  0.47877  0.25011  Biso   1.000  H
  H162     1.0000 0.98392  0.49347  0.21361  Biso   1.000  H
  H163     1.0000 0.53658  0.52393  0.07579  Biso   1.000  H
  H164     1.0000 0.50490  0.53303  0.11331  Biso   1.000  H
  H165     1.0000 0.55252  0.60588  0.10001  Biso   1.000  H
  H166     1.0000 0.61828  0.35568  0.12001  Biso   1.000  H
  H167     1.0000 0.54732  0.37520  0.12939  Biso   1.000  H
  H168     1.0000 0.56949  0.37500  0.08960  Biso   1.000  H
  C178     1.0000 0.66079  0.55189  0.06240  Biso   1.000  C
  N38      1.0000 0.71380  0.47791  0.10219  Biso   1.000  N
  C179     1.0000 0.89032  0.57951  0.11969  Biso   1.000  C
  H169     1.0000 0.93218  0.61841  0.16789  Biso   1.000  H
  C180     1.0000 0.85610  0.50442  0.11460  Biso   1.000  C
  H170     1.0000 0.83028  0.40869  0.14749  Biso   1.000  H
  H171     1.0000 0.62869  0.57991  0.04959  Biso   1.000  H
  C181     1.0000 0.72608  0.54773  0.05160  Biso   1.000  C
  C182     1.0000 0.75819  0.50040  0.07679  Biso   1.000  C
  H172     1.0000 0.72262  0.44778  0.12111  Biso   1.000  H
  H173     1.0000 0.90021  0.62329  0.10309  Biso   1.000  H
  C183     1.0000 0.82540  0.47653  0.07890  Biso   1.000  C
  H174     1.0000 0.74329  0.57278  0.03110  Biso   1.000  H
  C184     1.0000 0.86060  0.51233  0.04941  Biso   1.000  C
  C185     1.0000 0.83131  0.36979  0.07600  Biso   1.000  C
  H175     1.0000 0.86468  0.57562  0.05210  Biso   1.000  H
  H176     1.0000 0.90199  0.48569  0.04870  Biso   1.000  H
  H177     1.0000 0.83872  0.49947  0.02751  Biso   1.000  H
  C186     1.0000 0.78252  0.32048  0.06430  Biso   1.000  C
  C187     1.0000 0.88662  0.33050  0.08501  Biso   1.000  C
  H178     1.0000 0.74521  0.34777  0.05700  Biso   1.000  H
  C188     1.0000 0.78819  0.22712  0.06311  Biso   1.000  C
  C189     1.0000 0.89070  0.23813  0.08359  Biso   1.000  C
  H179     1.0000 0.92121  0.36458  0.09199  Biso   1.000  H
  C190     1.0000 0.84040  0.18618  0.07331  Biso   1.000  C
  N39      1.0000 0.73288  0.17418  0.05471  Biso   1.000  N
  N40      1.0000 0.94980  0.19660  0.09421  Biso   1.000  N
  H180     1.0000 0.84298  0.12427  0.07350  Biso   1.000  H
  O37      1.0000 0.73700  0.09652  0.05531  Biso   1.000  O
  O38      1.0000 0.68601  0.21321  0.04419  Biso   1.000  O
  O39      1.0000 0.99348  0.23859  0.10491  Biso   1.000  O
  O40      1.0000 0.95172  0.11557  0.09310  Biso   1.000  O
  O41      1.0000 0.46839  0.66469  0.80671  Biso   1.000  O
  N41      1.0000 0.52079  0.63647  0.81659  Biso   1.000  N
  C191     1.0000 0.57169  0.70260  0.82149  Biso   1.000  C
  O42      1.0000 0.53269  0.55861  0.82170  Biso   1.000  O
  C192     1.0000 0.55688  0.79219  0.81849  Biso   1.000  C
  C193     1.0000 0.62990  0.67161  0.83230  Biso   1.000  C
  C194     1.0000 0.60370  0.85291  0.82489  Biso   1.000  C
  H181     1.0000 0.51619  0.81052  0.81230  Biso   1.000  H
  H182     1.0000 0.63750  0.61102  0.83530  Biso   1.000  H
  C195     1.0000 0.67509  0.73207  0.83831  Biso   1.000  C
  C196     1.0000 0.59049  0.95240  0.82160  Biso   1.000  C
  C197     1.0000 0.66300  0.82140  0.83480  Biso   1.000  C
  N42      1.0000 0.73640  0.70411  0.84979  Biso   1.000  N
  C198     1.0000 0.61589  0.99862  0.85380  Biso   1.000  C
  C199     1.0000 0.52168  0.97198  0.81859  Biso   1.000  C
  C200     1.0000 0.62681  0.98688  0.78771  Biso   1.000  C
  H183     1.0000 0.69538  0.86201  0.83920  Biso   1.000  H
  O43      1.0000 0.77628  0.75653  0.85630  Biso   1.000  O
  O44      1.0000 0.74432  0.62480  0.85501  Biso   1.000  O
  N43      1.0000 0.61500  0.96229  0.88750  Biso   1.000  N
  C201     1.0000 0.64818  0.07898  0.85820  Biso   1.000  C
  N44      1.0000 0.47931  0.95458  0.84489  Biso   1.000  N
  C202     1.0000 0.48999  0.00653  0.79140  Biso   1.000  C
  H184     1.0000 0.60750  0.96282  0.76671  Biso   1.000  H
  H185     1.0000 0.67031  0.96829  0.78890  Biso   1.000  H
  H186     1.0000 0.62489  0.05083  0.78689  Biso   1.000  H
  H187     1.0000 0.59822  0.91159  0.89270  Biso   1.000  H
  C203     1.0000 0.64350  0.01609  0.91130  Biso   1.000  C
  H188     1.0000 0.65770  0.11887  0.83999  Biso   1.000  H
  C204     1.0000 0.66389  0.09039  0.89320  Biso   1.000  C
  C205     1.0000 0.41978  0.98042  0.83541  Biso   1.000  C
  H189     1.0000 0.48891  0.93051  0.86500  Biso   1.000  H
  C206     1.0000 0.42540  0.01312  0.80049  Biso   1.000  C
  H190     1.0000 0.50762  0.02367  0.76979  Biso   1.000  H
  C207     1.0000 0.65311  0.99097  0.94959  Biso   1.000  C
  H191     1.0000 0.68460  0.13931  0.90310  Biso   1.000  H
  C208     1.0000 0.36199  0.96367  0.85641  Biso   1.000  C
  H192     1.0000 0.39292  0.03481  0.78631  Biso   1.000  H
  C209     1.0000 0.67129  0.89049  0.95199  Biso   1.000  C
  C210     1.0000 0.71010  0.04101  0.96500  Biso   1.000  C
  C211     1.0000 0.59292  0.00890  0.97241  Biso   1.000  C
  C212     1.0000 0.36939  0.99947  0.89380  Biso   1.000  C
  C213     1.0000 0.34910  0.86181  0.85899  Biso   1.000  C
  C214     1.0000 0.30330  0.00501  0.84099  Biso   1.000  C
  H193     1.0000 0.63618  0.85469  0.94421  Biso   1.000  H
  H194     1.0000 0.68160  0.87573  0.97610  Biso   1.000  H
  H195     1.0000 0.70729  0.87922  0.93699  Biso   1.000  H
  H196     1.0000 0.70171  0.10390  0.96479  Biso   1.000  H
  H197     1.0000 0.74689  0.02881  0.95091  Biso   1.000  H
  H198     1.0000 0.71741  0.02169  0.98909  Biso   1.000  H
  N45      1.0000 0.53691  0.97818  0.96240  Biso   1.000  N
  C215     1.0000 0.58800  0.05268  0.00340  Biso   1.000  C
  N46      1.0000 0.40052  0.95688  0.92042  Biso   1.000  N
  C216     1.0000 0.34511  0.07410  0.90779  Biso   1.000  C
  H199     1.0000 0.34380  0.83782  0.83551  Biso   1.000  H
  H200     1.0000 0.31118  0.85179  0.87259  Biso   1.000  H
  H201     1.0000 0.38420  0.83307  0.87051  Biso   1.000  H
  H202     1.0000 0.26721  0.98761  0.85491  Biso   1.000  H
  H203     1.0000 0.29782  0.98510  0.81691  Biso   1.000  H
  H204     1.0000 0.30729  0.06870  0.84139  Biso   1.000  H
  H205     1.0000 0.52871  0.94930  0.94321  Biso   1.000  H
  C217     1.0000 0.49468  0.00079  0.98830  Biso   1.000  C
  H206     1.0000 0.62011  0.08089  0.01610  Biso   1.000  H
  C218     1.0000 0.52458  0.04688  0.01249  Biso   1.000  C
  H207     1.0000 0.42072  0.90757  0.91781  Biso   1.000  H
  C219     1.0000 0.39578  0.00303  0.95299  Biso   1.000  C
  C220     1.0000 0.36110  0.07740  0.94390  Biso   1.000  C
  H208     1.0000 0.32149  0.11669  0.89559  Biso   1.000  H
  C221     1.0000 0.42498  0.97119  0.98630  Biso   1.000  C
  H209     1.0000 0.50630  0.07199  0.03260  Biso   1.000  H
  H210     1.0000 0.34989  0.12302  0.95950  Biso   1.000  H
  C222     1.0000 0.41819  0.87309  0.98909  Biso   1.000  C
  C223     1.0000 0.38842  0.01292  0.01900  Biso   1.000  C
  C224     1.0000 0.36222  0.83083  0.97921  Biso   1.000  C
  C225     1.0000 0.46960  0.81830  0.00129  Biso   1.000  C
  H211     1.0000 0.40750  0.99288  0.04079  Biso   1.000  H
  H212     1.0000 0.34488  0.99440  0.01839  Biso   1.000  H
  H213     1.0000 0.39058  0.07667  0.01779  Biso   1.000  H
  H214     1.0000 0.32782  0.86412  0.97130  Biso   1.000  H
  C226     1.0000 0.35791  0.73899  0.98121  Biso   1.000  C
  C227     1.0000 0.46131  0.72857  0.00269  Biso   1.000  C
  H215     1.0000 0.50790  0.84382  0.00809  Biso   1.000  H
  C228     1.0000 0.40558  0.68420  0.99249  Biso   1.000  C
  N47      1.0000 0.29791  0.69673  0.97070  Biso   1.000  N
  N48      1.0000 0.51460  0.67141  0.01220  Biso   1.000  N
  H216     1.0000 0.40159  0.62263  0.99331  Biso   1.000  H
  O45      1.0000 0.29182  0.61847  0.97441  Biso   1.000  O
  O46      1.0000 0.25779  0.74268  0.95979  Biso   1.000  O
  O47      1.0000 0.56400  0.70992  0.02000  Biso   1.000  O
  O48      1.0000 0.50982  0.59118  0.01080  Biso   1.000  O
  C229     1.0000 0.32721  0.48200  0.26210  Biso   1.000  C
  C230     1.0000 0.26389  0.48259  0.27369  Biso   1.000  C
  C231     1.0000 0.33241  0.52103  0.23071  Biso   1.000  C
  H217     1.0000 0.36082  0.45748  0.27480  Biso   1.000  H
  H218     1.0000 0.24861  0.46077  0.29519  Biso   1.000  H
  C232     1.0000 0.22962  0.52129  0.24731  Biso   1.000  C
  N49      1.0000 0.27251  0.54219  0.22059  Biso   1.000  N
  C233     1.0000 0.38978  0.53692  0.20739  Biso   1.000  C
  C234     1.0000 0.16039  0.54127  0.24331  Biso   1.000  C
  H219     1.0000 0.26248  0.56527  0.20041  Biso   1.000  H
  C235     1.0000 0.38308  0.49769  0.17171  Biso   1.000  C
  C236     1.0000 0.40070  0.63621  0.20670  Biso   1.000  C
  C237     1.0000 0.44579  0.49539  0.22681  Biso   1.000  C
  C238     1.0000 0.12641  0.50290  0.27530  Biso   1.000  C
  C239     1.0000 0.14708  0.63957  0.24270  Biso   1.000  C
  C240     1.0000 0.13091  0.49552  0.21129  Biso   1.000  C
  C241     1.0000 0.40759  0.42398  0.15629  Biso   1.000  C
  N50      1.0000 0.35069  0.54200  0.14499  Biso   1.000  N
  H220     1.0000 0.43661  0.64939  0.19200  Biso   1.000  H
  H221     1.0000 0.40839  0.65730  0.23039  Biso   1.000  H
  H222     1.0000 0.36382  0.66528  0.19719  Biso   1.000  H
  H223     1.0000 0.43928  0.43229  0.22889  Biso   1.000  H
  H224     1.0000 0.44940  0.52123  0.25011  Biso   1.000  H
  H225     1.0000 0.48390  0.50653  0.21361  Biso   1.000  H
  H226     1.0000 0.13808  0.44152  0.27809  Biso   1.000  H
  H227     1.0000 0.08151  0.50719  0.27169  Biso   1.000  H
  H228     1.0000 0.13808  0.53560  0.29619  Biso   1.000  H
  C242     1.0000 0.08859  0.67227  0.23300  Biso   1.000  C
  C243     1.0000 0.19259  0.70662  0.25129  Biso   1.000  C
  C244     1.0000 0.10499  0.41528  0.20739  Biso   1.000  C
  N51      1.0000 0.13518  0.53547  0.17901  Biso   1.000  N
  C245     1.0000 0.39030  0.42049  0.11969  Biso   1.000  C
  H229     1.0000 0.43220  0.38159  0.16789  Biso   1.000  H
  C246     1.0000 0.35608  0.49558  0.11460  Biso   1.000  C
  H230     1.0000 0.33030  0.59131  0.14749  Biso   1.000  H
  H231     1.0000 0.05578  0.63403  0.22670  Biso   1.000  H
  C247     1.0000 0.08001  0.76457  0.23290  Biso   1.000  C
  C248     1.0000 0.18060  0.79397  0.24921  Biso   1.000  C
  H232     1.0000 0.23272  0.68862  0.25859  Biso   1.000  H
  H233     1.0000 0.09909  0.37269  0.22510  Biso   1.000  H
  C249     1.0000 0.08831  0.40737  0.17150  Biso   1.000  C
  C250     1.0000 0.10480  0.48147  0.15421  Biso   1.000  C
  H234     1.0000 0.15350  0.58557  0.17461  Biso   1.000  H
  H235     1.0000 0.40019  0.37671  0.10309  Biso   1.000  H
  C251     1.0000 0.32538  0.52347  0.07890  Biso   1.000  C
  C252     1.0000 0.12402  0.82509  0.24049  Biso   1.000  C
  N52      1.0000 0.01500  0.79437  0.22249  Biso   1.000  N
  N53      1.0000 0.23051  0.85667  0.25519  Biso   1.000  N
  H236     1.0000 0.06871  0.35812  0.16130  Biso   1.000  H
  C253     1.0000 0.09679  0.50758  0.11621  Biso   1.000  C
  C254     1.0000 0.25821  0.49960  0.07679  Biso   1.000  C
  C255     1.0000 0.36058  0.48767  0.04941  Biso   1.000  C
  C256     1.0000 0.33129  0.63021  0.07600  Biso   1.000  C
  H237     1.0000 0.11549  0.88588  0.23970  Biso   1.000  H
  O49      1.0000 0.00778  0.87348  0.21690  Biso   1.000  O
  O50      1.0000 0.97080  0.73912  0.22199  Biso   1.000  O
  O51      1.0000 0.27870  0.82667  0.26571  Biso   1.000  O
  O52      1.0000 0.22231  0.93289  0.24850  Biso   1.000  O
  C257     1.0000 0.04279  0.45662  0.09979  Biso   1.000  C
  C258     1.0000 0.08142  0.61050  0.11350  Biso   1.000  C
  C259     1.0000 0.15280  0.49110  0.09410  Biso   1.000  C
  N54      1.0000 0.21378  0.52209  0.10219  Biso   1.000  N
  C260     1.0000 0.22611  0.45227  0.05160  Biso   1.000  C
  H238     1.0000 0.36471  0.42438  0.05210  Biso   1.000  H
  H239     1.0000 0.40202  0.51431  0.04870  Biso   1.000  H
  H240     1.0000 0.33869  0.50053  0.02751  Biso   1.000  H
  C261     1.0000 0.28249  0.67952  0.06430  Biso   1.000  C
  C262     1.0000 0.38659  0.66950  0.08501  Biso   1.000  C
  H241     1.0000 0.03661  0.47607  0.07579  Biso   1.000  H
  H242     1.0000 0.00492  0.46697  0.11331  Biso   1.000  H
  H243     1.0000 0.05250  0.39412  0.10001  Biso   1.000  H
  H244     1.0000 0.11830  0.64432  0.12001  Biso   1.000  H
  H245     1.0000 0.04729  0.62480  0.12939  Biso   1.000  H
  H246     1.0000 0.06951  0.62500  0.08960  Biso   1.000  H
  C263     1.0000 0.16082  0.44811  0.06240  Biso   1.000  C
  H247     1.0000 0.22259  0.55222  0.12111  Biso   1.000  H
  H248     1.0000 0.24331  0.42722  0.03110  Biso   1.000  H
  H249     1.0000 0.24518  0.65223  0.05700  Biso   1.000  H
  C264     1.0000 0.28821  0.77288  0.06311  Biso   1.000  C
  C265     1.0000 0.39072  0.76187  0.08359  Biso   1.000  C
  H250     1.0000 0.42119  0.63542  0.09199  Biso   1.000  H
  H251     1.0000 0.12871  0.42009  0.04959  Biso   1.000  H
  C266     1.0000 0.34038  0.81382  0.07331  Biso   1.000  C
  N55      1.0000 0.23290  0.82582  0.05471  Biso   1.000  N
  N56      1.0000 0.44978  0.80340  0.09421  Biso   1.000  N
  H252     1.0000 0.34300  0.87573  0.07350  Biso   1.000  H
  O53      1.0000 0.23698  0.90348  0.05531  Biso   1.000  O
  O54      1.0000 0.18599  0.78679  0.04419  Biso   1.000  O
  O55      1.0000 0.49351  0.76141  0.10491  Biso   1.000  O
  O56      1.0000 0.45170  0.88443  0.09310  Biso   1.000  O
  O57      1.0000 0.24429  0.37520  0.85501  Biso   1.000  O
  N57      1.0000 0.23642  0.29589  0.84979  Biso   1.000  N
  C267     1.0000 0.17511  0.26793  0.83831  Biso   1.000  C
  O58      1.0000 0.27631  0.24347  0.85630  Biso   1.000  O
  C268     1.0000 0.16302  0.17860  0.83480  Biso   1.000  C
  C269     1.0000 0.12988  0.32839  0.83230  Biso   1.000  C
  C270     1.0000 0.10368  0.14709  0.82489  Biso   1.000  C
  H253     1.0000 0.19541  0.13799  0.83920  Biso   1.000  H
  C271     1.0000 0.07171  0.29740  0.82149  Biso   1.000  C
  H254     1.0000 0.13752  0.38898  0.83530  Biso   1.000  H
  C272     1.0000 0.09051  0.04760  0.82160  Biso   1.000  C
  C273     1.0000 0.05690  0.20781  0.81849  Biso   1.000  C
  N58      1.0000 0.02081  0.36353  0.81659  Biso   1.000  N
  C274     1.0000 0.12679  0.01312  0.78771  Biso   1.000  C
  C275     1.0000 0.11591  0.00138  0.85380  Biso   1.000  C
  C276     1.0000 0.02170  0.02802  0.81859  Biso   1.000  C
  H255     1.0000 0.01622  0.18948  0.81230  Biso   1.000  H
  O59      1.0000 0.03272  0.44139  0.82170  Biso   1.000  O
  O60      1.0000 0.96841  0.33531  0.80671  Biso   1.000  O
  H256     1.0000 0.10752  0.03718  0.76671  Biso   1.000  H
  H257     1.0000 0.17028  0.03171  0.78890  Biso   1.000  H
  H258     1.0000 0.12491  0.94917  0.78689  Biso   1.000  H
  N59      1.0000 0.11502  0.03771  0.88750  Biso   1.000  N
  C277     1.0000 0.14821  0.92102  0.85820  Biso   1.000  C
  C278     1.0000 0.99002  0.99347  0.79140  Biso   1.000  C
  N60      1.0000 0.97928  0.04542  0.84489  Biso   1.000  N
  H259     1.0000 0.09820  0.08841  0.89270  Biso   1.000  H
  C279     1.0000 0.14352  0.98391  0.91130  Biso   1.000  C
  H260     1.0000 0.15772  0.88113  0.83999  Biso   1.000  H
  C280     1.0000 0.16391  0.90961  0.89320  Biso   1.000  C
  C281     1.0000 0.92538  0.98688  0.80049  Biso   1.000  C
  H261     1.0000 0.00759  0.97633  0.76979  Biso   1.000  H
  C282     1.0000 0.91980  0.01958  0.83541  Biso   1.000  C
  H262     1.0000 0.98889  0.06949  0.86500  Biso   1.000  H
  C283     1.0000 0.15308  0.00903  0.94959  Biso   1.000  C
  H263     1.0000 0.18458  0.86069  0.90310  Biso   1.000  H
  H264     1.0000 0.89290  0.96519  0.78631  Biso   1.000  H
  C284     1.0000 0.86201  0.03633  0.85641  Biso   1.000  C
  C285     1.0000 0.17131  0.10951  0.95199  Biso   1.000  C
  C286     1.0000 0.21008  0.95899  0.96500  Biso   1.000  C
  C287     1.0000 0.09290  0.99110  0.97241  Biso   1.000  C
  C288     1.0000 0.80328  0.99499  0.84099  Biso   1.000  C
  C289     1.0000 0.86942  0.00053  0.89380  Biso   1.000  C
  C290     1.0000 0.84912  0.13819  0.85899  Biso   1.000  C
  H265     1.0000 0.13621  0.14531  0.94421  Biso   1.000  H
  H266     1.0000 0.18158  0.12427  0.97610  Biso   1.000  H
  H267     1.0000 0.20731  0.12078  0.93699  Biso   1.000  H
  H268     1.0000 0.20169  0.89610  0.96479  Biso   1.000  H
  H269     1.0000 0.24692  0.97119  0.95091  Biso   1.000  H
  H270     1.0000 0.21739  0.97831  0.98909  Biso   1.000  H
  N61      1.0000 0.03689  0.02182  0.96240  Biso   1.000  N
  C291     1.0000 0.08798  0.94732  0.00340  Biso   1.000  C
  H271     1.0000 0.80731  0.93130  0.84139  Biso   1.000  H
  H272     1.0000 0.76719  0.01239  0.85491  Biso   1.000  H
  H273     1.0000 0.79780  0.01490  0.81691  Biso   1.000  H
  C292     1.0000 0.84509  0.92590  0.90779  Biso   1.000  C
  N62      1.0000 0.90049  0.04312  0.92042  Biso   1.000  N
  H274     1.0000 0.84378  0.16218  0.83551  Biso   1.000  H
  H275     1.0000 0.81120  0.14821  0.87259  Biso   1.000  H
  H276     1.0000 0.88418  0.16693  0.87051  Biso   1.000  H
  H277     1.0000 0.02869  0.05070  0.94321  Biso   1.000  H
  C293     1.0000 0.99470  0.99921  0.98830  Biso   1.000  C
  H278     1.0000 0.12008  0.91911  0.01610  Biso   1.000  H
  C294     1.0000 0.02461  0.95312  0.01249  Biso   1.000  C
  C295     1.0000 0.86112  0.92260  0.94390  Biso   1.000  C
  H279     1.0000 0.82151  0.88331  0.89559  Biso   1.000  H
  C296     1.0000 0.89581  0.99697  0.95299  Biso   1.000  C
  H280     1.0000 0.92069  0.09243  0.91781  Biso   1.000  H
  C297     1.0000 0.92501  0.02881  0.98630  Biso   1.000  C
  H281     1.0000 0.00628  0.92801  0.03260  Biso   1.000  H
  H282     1.0000 0.84992  0.87698  0.95950  Biso   1.000  H
  C298     1.0000 0.88840  0.98708  0.01900  Biso   1.000  C
  C299     1.0000 0.91821  0.12691  0.98909  Biso   1.000  C
  H283     1.0000 0.89060  0.92333  0.01779  Biso   1.000  H
  H284     1.0000 0.90752  0.00712  0.04079  Biso   1.000  H
  H285     1.0000 0.84490  0.00560  0.01839  Biso   1.000  H
  C300     1.0000 0.86220  0.16917  0.97921  Biso   1.000  C
  C301     1.0000 0.96958  0.18170  0.00129  Biso   1.000  C
  H286     1.0000 0.82779  0.13588  0.97130  Biso   1.000  H
  C302     1.0000 0.85789  0.26101  0.98121  Biso   1.000  C
  C303     1.0000 0.96128  0.27143  0.00269  Biso   1.000  C
  H287     1.0000 0.00792  0.15618  0.00809  Biso   1.000  H
  C304     1.0000 0.90560  0.31580  0.99249  Biso   1.000  C
  N63      1.0000 0.79789  0.30327  0.97070  Biso   1.000  N
  N64      1.0000 0.01458  0.32859  0.01220  Biso   1.000  N
  H288     1.0000 0.90162  0.37737  0.99331  Biso   1.000  H
  O61      1.0000 0.79180  0.38153  0.97441  Biso   1.000  O
  O62      1.0000 0.75782  0.25732  0.95979  Biso   1.000  O
  O63      1.0000 0.06398  0.29008  0.02000  Biso   1.000  O
  O64      1.0000 0.00980  0.40882  0.01080  Biso   1.000  O
