data_image0
_cell_length_a       27.081
_cell_length_b       28.239
_cell_length_c       28.508
_cell_angle_alpha    117.14
_cell_angle_beta     96.53
_cell_angle_gamma    108.11

_symmetry_space_group_name_H-M    "P 1"
_symmetry_int_tables_number       1

loop_
  _symmetry_equiv_pos_as_xyz
  'x, y, z'

loop_
  _atom_site_label
  _atom_site_occupancy
  _atom_site_fract_x
  _atom_site_fract_y
  _atom_site_fract_z
  _atom_site_thermal_displace_type
  _atom_site_B_iso_or_equiv
  _atom_site_type_symbol
  C1       1.0000 0.58163  0.56761  0.52275  Biso   1.000  C
  C2       1.0000 0.63554  0.56444  0.51278  Biso   1.000  C
  H1       1.0000 0.55266  0.52863  0.50137  Biso   1.000  H
  H2       1.0000 0.57276  0.59111  0.50964  Biso   1.000  H
  C3       1.0000 0.58395  0.59348  0.58308  Biso   1.000  C
  C4       1.0000 0.63092  0.52842  0.45175  Biso   1.000  C
  C5       1.0000 0.68161  0.62472  0.53949  Biso   1.000  C
  H3       1.0000 0.64583  0.54500  0.53077  Biso   1.000  H
  H4       1.0000 0.58325  0.56550  0.59408  Biso   1.000  H
  H5       1.0000 0.61756  0.62815  0.60590  Biso   1.000  H
  C6       1.0000 0.53464  0.60929  0.59139  Biso   1.000  C
  H6       1.0000 0.61514  0.63085  0.60214  Biso   1.000  H
  H7       1.0000 0.59456  0.56918  0.59379  Biso   1.000  H
  C7       1.0000 0.54197  0.60511  0.61091  Biso   1.000  C
  C8       1.0000 0.59861  0.52807  0.40986  Biso   1.000  C
  C9       1.0000 0.66081  0.49425  0.43641  Biso   1.000  C
  C10      1.0000 0.73403  0.63702  0.56807  Biso   1.000  C
  C11      1.0000 0.67369  0.67091  0.53825  Biso   1.000  C
  H8       1.0000 0.50116  0.57481  0.56761  Biso   1.000  H
  H9       1.0000 0.53603  0.63804  0.58126  Biso   1.000  H
  C12      1.0000 0.53523  0.63388  0.65188  Biso   1.000  C
  H10      1.0000 0.50756  0.57099  0.59193  Biso   1.000  H
  C13      1.0000 0.53645  0.65531  0.60780  Biso   1.000  C
  H11      1.0000 0.55376  0.61564  0.64907  Biso   1.000  H
  C14      1.0000 0.59547  0.49636  0.35437  Biso   1.000  C
  H12      1.0000 0.57809  0.55009  0.41937  Biso   1.000  H
  C15      1.0000 0.65817  0.46118  0.38150  Biso   1.000  C
  O1       1.0000 0.69049  0.49062  0.47734  Biso   1.000  O
  O2       1.0000 0.74287  0.59342  0.57423  Biso   1.000  O
  C16      1.0000 0.77622  0.69213  0.59391  Biso   1.000  C
  C17      1.0000 0.71486  0.72718  0.56352  Biso   1.000  C
  H13      1.0000 0.63929  0.66382  0.51965  Biso   1.000  H
  H14      1.0000 0.53120  0.60398  0.66094  Biso   1.000  H
  H15      1.0000 0.57019  0.66633  0.67562  Biso   1.000  H
  C18      1.0000 0.48955  0.65482  0.66301  Biso   1.000  C
  C19      1.0000 0.49465  0.65878  0.67578  Biso   1.000  C
  H16      1.0000 0.57180  0.68811  0.62641  Biso   1.000  H
  H17      1.0000 0.52696  0.64393  0.56918  Biso   1.000  H
  C20      1.0000 0.49424  0.67628  0.63270  Biso   1.000  C
  C21      1.0000 0.56204  0.49739  0.30864  Biso   1.000  C
  C22      1.0000 0.62648  0.46319  0.34168  Biso   1.000  C
  H18      1.0000 0.67757  0.43795  0.37170  Biso   1.000  H
  C23      1.0000 0.74698  0.51524  0.49178  Biso   1.000  C
  C24      1.0000 0.77505  0.56988  0.54466  Biso   1.000  C
  H19      1.0000 0.81058  0.69950  0.61297  Biso   1.000  H
  C25      1.0000 0.76606  0.73637  0.59069  Biso   1.000  C
  C26      1.0000 0.70442  0.77681  0.56277  Biso   1.000  C
  C27      1.0000 0.49217  0.67609  0.72540  Biso   1.000  C
  H20      1.0000 0.49450  0.68651  0.65647  Biso   1.000  H
  H21      1.0000 0.45446  0.62311  0.63865  Biso   1.000  H
  H22      1.0000 0.46963  0.66933  0.69547  Biso   1.000  H
  H23      1.0000 0.53070  0.67868  0.70130  Biso   1.000  H
  H24      1.0000 0.48387  0.61743  0.65788  Biso   1.000  H
  H25      1.0000 0.45871  0.65614  0.60545  Biso   1.000  H
  H26      1.0000 0.50605  0.71807  0.64936  Biso   1.000  H
  C28      1.0000 0.50755  0.50162  0.31612  Biso   1.000  C
  C29      1.0000 0.59664  0.54626  0.30128  Biso   1.000  C
  H27      1.0000 0.55297  0.46046  0.27423  Biso   1.000  H
  O3       1.0000 0.62017  0.42654  0.28552  Biso   1.000  O
  C30      1.0000 0.77456  0.48847  0.46089  Biso   1.000  C
  C31      1.0000 0.83003  0.59438  0.56559  Biso   1.000  C
  O4       1.0000 0.80678  0.79314  0.62004  Biso   1.000  O
  C32      1.0000 0.71371  0.77804  0.51183  Biso   1.000  C
  H28      1.0000 0.73192  0.81324  0.59490  Biso   1.000  H
  C33      1.0000 0.64904  0.77559  0.56869  Biso   1.000  C
  H29      1.0000 0.46393  0.68939  0.73355  Biso   1.000  H
  H30      1.0000 0.52706  0.70743  0.74910  Biso   1.000  H
  H31      1.0000 0.48713  0.64424  0.73132  Biso   1.000  H
  C34      1.0000 0.50716  0.69519  0.79247  Biso   1.000  C
  H32      1.0000 0.47728  0.66515  0.75989  Biso   1.000  H
  C35      1.0000 0.47047  0.48769  0.26249  Biso   1.000  C
  H33      1.0000 0.51491  0.54068  0.34552  Biso   1.000  H
  H34      1.0000 0.48909  0.47443  0.32679  Biso   1.000  H
  C36      1.0000 0.60200  0.60350  0.33353  Biso   1.000  C
  C37      1.0000 0.62397  0.53553  0.26154  Biso   1.000  C
  C38      1.0000 0.66365  0.43794  0.26559  Biso   1.000  C
  C39      1.0000 0.83300  0.51468  0.47896  Biso   1.000  C
  H35      1.0000 0.75581  0.45299  0.42777  Biso   1.000  H
  C40      1.0000 0.86185  0.56914  0.53333  Biso   1.000  C
  H36      1.0000 0.84712  0.62749  0.60077  Biso   1.000  H
  C41      1.0000 0.85057  0.80567  0.59999  Biso   1.000  C
  C42      1.0000 0.67237  0.74523  0.46138  Biso   1.000  C
  C43      1.0000 0.76433  0.81280  0.51299  Biso   1.000  C
  H37      1.0000 0.64189  0.76472  0.59577  Biso   1.000  H
  H38      1.0000 0.62167  0.74511  0.53362  Biso   1.000  H
  C44      1.0000 0.64205  0.82890  0.58490  Biso   1.000  C
  H39      1.0000 0.62167  0.73731  0.54024  Biso   1.000  H
  H40      1.0000 0.64302  0.80358  0.56071  Biso   1.000  H
  C45      1.0000 0.63938  0.78730  0.61971  Biso   1.000  C
  C46      1.0000 0.49116  0.69886  0.84507  Biso   1.000  C
  H41      1.0000 0.53853  0.68618  0.79078  Biso   1.000  H
  H42      1.0000 0.51541  0.73194  0.79487  Biso   1.000  H
  C47      1.0000 0.42304  0.50619  0.26741  Biso   1.000  C
  H43      1.0000 0.45566  0.44594  0.23673  Biso   1.000  H
  H44      1.0000 0.49290  0.50633  0.24636  Biso   1.000  H
  H45      1.0000 0.58554  0.61200  0.36148  Biso   1.000  H
  C48      1.0000 0.63073  0.64855  0.32600  Biso   1.000  C
  O5       1.0000 0.61741  0.47818  0.22598  Biso   1.000  O
  C49      1.0000 0.65416  0.57952  0.25364  Biso   1.000  C
  C50      1.0000 0.66212  0.46512  0.23326  Biso   1.000  C
  C51      1.0000 0.70316  0.41857  0.27026  Biso   1.000  C
  N1       1.0000 0.86206  0.49235  0.44902  Biso   1.000  N
  N2       1.0000 0.91521  0.59241  0.54892  Biso   1.000  N
  C52      1.0000 0.84982  0.83587  0.56997  Biso   1.000  C
  C53      1.0000 0.89403  0.79480  0.61215  Biso   1.000  C
  C54      1.0000 0.67910  0.74580  0.41400  Biso   1.000  C
  H46      1.0000 0.63843  0.72169  0.45944  Biso   1.000  H
  C55      1.0000 0.77315  0.81451  0.46672  Biso   1.000  C
  O6       1.0000 0.80534  0.84934  0.56356  Biso   1.000  O
  H47      1.0000 0.67394  0.86040  0.61545  Biso   1.000  H
  H48      1.0000 0.64258  0.83534  0.55430  Biso   1.000  H
  C56      1.0000 0.59396  0.83498  0.60139  Biso   1.000  C
  H49      1.0000 0.64553  0.75921  0.62753  Biso   1.000  H
  H50      1.0000 0.66687  0.82545  0.64800  Biso   1.000  H
  C57      1.0000 0.58435  0.78637  0.62678  Biso   1.000  C
  H51      1.0000 0.51618  0.73357  0.89341  Biso   1.000  H
  C58      1.0000 0.50856  0.65078  0.85901  Biso   1.000  C
  H52      1.0000 0.52098  0.72907  0.87844  Biso   1.000  H
  H53      1.0000 0.48269  0.66197  0.84329  Biso   1.000  H
  C59      1.0000 0.43997  0.71347  0.84548  Biso   1.000  C
  C60      1.0000 0.38084  0.47699  0.21179  Biso   1.000  C
  H54      1.0000 0.43704  0.54822  0.28416  Biso   1.000  H
  H55      1.0000 0.40567  0.49642  0.29160  Biso   1.000  H
  C61      1.0000 0.63247  0.70979  0.35983  Biso   1.000  C
  C62      1.0000 0.65776  0.63593  0.28614  Biso   1.000  C
  H56      1.0000 0.67196  0.57135  0.22676  Biso   1.000  H
  C63      1.0000 0.69975  0.47275  0.20700  Biso   1.000  C
  C64      1.0000 0.74417  0.42646  0.24413  Biso   1.000  C
  H57      1.0000 0.70331  0.40032  0.29036  Biso   1.000  H
  Te1      1.0000 0.94215  0.54334  0.48921  Biso   1.000  Te
  C65      1.0000 0.89326  0.85462  0.55384  Biso   1.000  C
  C66      1.0000 0.94035  0.81261  0.59457  Biso   1.000  C
  H58      1.0000 0.89392  0.77595  0.63175  Biso   1.000  H
  C67      1.0000 0.73067  0.78079  0.41747  Biso   1.000  C
  H59      1.0000 0.80710  0.83799  0.46862  Biso   1.000  H
  H60      1.0000 0.58179  0.85262  0.58270  Biso   1.000  H
  H61      1.0000 0.60833  0.86502  0.64035  Biso   1.000  H
  C68      1.0000 0.54598  0.79372  0.59701  Biso   1.000  C
  H62      1.0000 0.59938  0.86533  0.63514  Biso   1.000  H
  H63      1.0000 0.55629  0.81365  0.57890  Biso   1.000  H
  H64      1.0000 0.55723  0.76721  0.60330  Biso   1.000  H
  H65      1.0000 0.58488  0.79449  0.66387  Biso   1.000  H
  H66      1.0000 0.55666  0.74726  0.60102  Biso   1.000  H
  C69      1.0000 0.56755  0.82870  0.61831  Biso   1.000  C
  C70      1.0000 0.48877  0.69528  0.86500  Biso   1.000  C
  H67      1.0000 0.54168  0.65829  0.84908  Biso   1.000  H
  H68      1.0000 0.48164  0.61298  0.83056  Biso   1.000  H
  H69      1.0000 0.51551  0.65189  0.89333  Biso   1.000  H
  C71      1.0000 0.43376  0.68378  0.88138  Biso   1.000  C
  C72      1.0000 0.41185  0.72409  0.87397  Biso   1.000  C
  H70      1.0000 0.40844  0.71618  0.83659  Biso   1.000  H
  C73      1.0000 0.41465  0.70738  0.88799  Biso   1.000  C
  H71      1.0000 0.41327  0.68756  0.80918  Biso   1.000  H
  H72      1.0000 0.45058  0.75317  0.85346  Biso   1.000  H
  H73      1.0000 0.39861  0.48629  0.18756  Biso   1.000  H
  H74      1.0000 0.36684  0.43506  0.19542  Biso   1.000  H
  C74      1.0000 0.33293  0.49451  0.21419  Biso   1.000  C
  H75      1.0000 0.64011  0.72872  0.33841  Biso   1.000  H
  C75      1.0000 0.57742  0.70723  0.36921  Biso   1.000  C
  O7       1.0000 0.68425  0.67903  0.27535  Biso   1.000  O
  C76      1.0000 0.74280  0.45418  0.21192  Biso   1.000  C
  H76      1.0000 0.69779  0.48985  0.18603  Biso   1.000  H
  N3       1.0000 0.78412  0.40931  0.24765  Biso   1.000  N
  C77      1.0000 0.93989  0.84301  0.56459  Biso   1.000  C
  H77      1.0000 0.89283  0.87499  0.53586  Biso   1.000  H
  N4       1.0000 0.98381  0.80228  0.60433  Biso   1.000  N
  O8       1.0000 0.73758  0.78458  0.37091  Biso   1.000  O
  H78      1.0000 0.52515  0.77173  0.55814  Biso   1.000  H
  C78      1.0000 0.50454  0.80169  0.62720  Biso   1.000  C
  C79      1.0000 0.52196  0.84148  0.64117  Biso   1.000  C
  H79      1.0000 0.48224  0.69459  0.83052  Biso   1.000  H
  H80      1.0000 0.44101  0.69322  0.91946  Biso   1.000  H
  H81      1.0000 0.40813  0.64339  0.85743  Biso   1.000  H
  H82      1.0000 0.40679  0.66879  0.88204  Biso   1.000  H
  C80      1.0000 0.35857  0.71738  0.88382  Biso   1.000  C
  H83      1.0000 0.43779  0.76412  0.89924  Biso   1.000  H
  H84      1.0000 0.44013  0.73584  0.92475  Biso   1.000  H
  H85      1.0000 0.32134  0.49590  0.24562  Biso   1.000  H
  H86      1.0000 0.34469  0.53329  0.21973  Biso   1.000  H
  C81      1.0000 0.28382  0.45129  0.16060  Biso   1.000  C
  H87      1.0000 0.57136  0.69156  0.39311  Biso   1.000  H
  H88      1.0000 0.54945  0.67913  0.33386  Biso   1.000  H
  C82      1.0000 0.56825  0.76071  0.39278  Biso   1.000  C
  H89      1.0000 0.58188  0.74639  0.39547  Biso   1.000  H
  H90      1.0000 0.56706  0.68390  0.38596  Biso   1.000  H
  C83      1.0000 0.53286  0.68322  0.32021  Biso   1.000  C
  C84      1.0000 0.74041  0.70173  0.29218  Biso   1.000  C
  N5       1.0000 0.78149  0.46141  0.18798  Biso   1.000  N
  Te2      1.0000 0.83351  0.43104  0.20683  Biso   1.000  Te
  N6       1.0000 0.98251  0.85801  0.54781  Biso   1.000  N
  Te3      1.0000 0.03682  0.83156  0.56993  Biso   1.000  Te
  C85      1.0000 0.76924  0.75844  0.34312  Biso   1.000  C
  H91      1.0000 0.47289  0.76474  0.60842  Biso   1.000  H
  H92      1.0000 0.51970  0.80992  0.66396  Biso   1.000  H
  C86      1.0000 0.48476  0.84940  0.63348  Biso   1.000  C
  H93      1.0000 0.47554  0.76256  0.63274  Biso   1.000  H
  H94      1.0000 0.51521  0.88678  0.65337  Biso   1.000  H
  H95      1.0000 0.53548  0.86250  0.68120  Biso   1.000  H
  H96      1.0000 0.51363  0.86716  0.63100  Biso   1.000  H
  C87      1.0000 0.46835  0.78790  0.62190  Biso   1.000  C
  C88      1.0000 0.34721  0.72290  0.93720  Biso   1.000  C
  H97      1.0000 0.34891  0.74554  0.87898  Biso   1.000  H
  H98      1.0000 0.33256  0.67908  0.85384  Biso   1.000  H
  H99      1.0000 0.32931  0.68433  0.85131  Biso   1.000  H
  H100     1.0000 0.36384  0.75258  0.88311  Biso   1.000  H
  H101     1.0000 0.25489  0.46437  0.16366  Biso   1.000  H
  H102     1.0000 0.29504  0.44983  0.12938  Biso   1.000  H
  H103     1.0000 0.27115  0.41312  0.15568  Biso   1.000  H
  H104     1.0000 0.60054  0.79207  0.42301  Biso   1.000  H
  H105     1.0000 0.56364  0.77071  0.36479  Biso   1.000  H
  C89      1.0000 0.51755  0.75670  0.41499  Biso   1.000  C
  H106     1.0000 0.54384  0.70457  0.30169  Biso   1.000  H
  H107     1.0000 0.52603  0.64289  0.29495  Biso   1.000  H
  C90      1.0000 0.48126  0.68591  0.33229  Biso   1.000  C
  C91      1.0000 0.76799  0.67415  0.26075  Biso   1.000  C
  C92      1.0000 0.82424  0.78578  0.36049  Biso   1.000  C
  H108     1.0000 0.45852  0.84979  0.65358  Biso   1.000  H
  H109     1.0000 0.46819  0.84137  0.59763  Biso   1.000  H
  H110     1.0000 0.44254  0.80077  0.63861  Biso   1.000  H
  H111     1.0000 0.45363  0.76723  0.58237  Biso   1.000  H
  C93      1.0000 0.29092  0.72208  0.94080  Biso   1.000  C
  H112     1.0000 0.37487  0.75907  0.96846  Biso   1.000  H
  H113     1.0000 0.35055  0.69108  0.94018  Biso   1.000  H
  H114     1.0000 0.51383  0.79340  0.42897  Biso   1.000  H
  H115     1.0000 0.52312  0.74998  0.44522  Biso   1.000  H
  C94      1.0000 0.46445  0.70622  0.36818  Biso   1.000  C
  H116     1.0000 0.46909  0.66998  0.35329  Biso   1.000  H
  H117     1.0000 0.45857  0.71384  0.33857  Biso   1.000  H
  H118     1.0000 0.47134  0.66596  0.35214  Biso   1.000  H
  H119     1.0000 0.48809  0.72647  0.35656  Biso   1.000  H
  C95      1.0000 0.43332  0.65929  0.28180  Biso   1.000  C
  C96      1.0000 0.82652  0.70001  0.27895  Biso   1.000  C
  H120     1.0000 0.74907  0.63870  0.22763  Biso   1.000  H
  C97      1.0000 0.85498  0.75766  0.32977  Biso   1.000  C
  H121     1.0000 0.84188  0.82266  0.39229  Biso   1.000  H
  C98      1.0000 0.27884  0.71945  0.99042  Biso   1.000  C
  C99      1.0000 0.28173  0.77226  0.93976  Biso   1.000  C
  H122     1.0000 0.26406  0.68600  0.90788  Biso   1.000  H
  C100     1.0000 0.41384  0.69910  0.38819  Biso   1.000  C
  H123     1.0000 0.44017  0.68377  0.26592  Biso   1.000  H
  H124     1.0000 0.43062  0.62132  0.25439  Biso   1.000  H
  C101     1.0000 0.37925  0.65252  0.29449  Biso   1.000  C
  N7       1.0000 0.85556  0.67439  0.25224  Biso   1.000  N
  N8       1.0000 0.90853  0.78070  0.34519  Biso   1.000  N
  C102     1.0000 0.22711  0.68478  0.98657  Biso   1.000  C
  C103     1.0000 0.31868  0.75012  0.04157  Biso   1.000  C
  C104     1.0000 0.23177  0.76401  0.91057  Biso   1.000  C
  C105     1.0000 0.32302  0.82844  0.96689  Biso   1.000  C
  C106     1.0000 0.36322  0.64670  0.34048  Biso   1.000  C
  H125     1.0000 0.41979  0.69276  0.41871  Biso   1.000  H
  H126     1.0000 0.40769  0.73440  0.40138  Biso   1.000  H
  H127     1.0000 0.35723  0.65328  0.31054  Biso   1.000  H
  H128     1.0000 0.38328  0.68835  0.32671  Biso   1.000  H
  H129     1.0000 0.35179  0.64399  0.26344  Biso   1.000  H
  C107     1.0000 0.36174  0.60201  0.30599  Biso   1.000  C
  Te4      1.0000 0.93544  0.72517  0.29185  Biso   1.000  Te
  O9       1.0000 0.18724  0.64982  0.93480  Biso   1.000  O
  C108     1.0000 0.21561  0.68009  0.03094  Biso   1.000  C
  H130     1.0000 0.35327  0.77411  0.04529  Biso   1.000  H
  C109     1.0000 0.30962  0.74674  0.08730  Biso   1.000  C
  O10      1.0000 0.19012  0.70736  0.87927  Biso   1.000  O
  C110     1.0000 0.22325  0.80883  0.90780  Biso   1.000  C
  C111     1.0000 0.31689  0.87515  0.96565  Biso   1.000  C
  H131     1.0000 0.35660  0.83511  0.98690  Biso   1.000  H
  H132     1.0000 0.33193  0.64264  0.35350  Biso   1.000  H
  H133     1.0000 0.36927  0.61169  0.32782  Biso   1.000  H
  H134     1.0000 0.32768  0.59674  0.31368  Biso   1.000  H
  H135     1.0000 0.38909  0.61061  0.33651  Biso   1.000  H
  H136     1.0000 0.35768  0.56640  0.27345  Biso   1.000  H
  C112     1.0000 0.14384  0.66444  0.92744  Biso   1.000  C
  H137     1.0000 0.18094  0.65628  0.02722  Biso   1.000  H
  C113     1.0000 0.25678  0.71150  0.08093  Biso   1.000  C
  C114     1.0000 0.35424  0.77984  0.14180  Biso   1.000  C
  C115     1.0000 0.14529  0.69500  0.89787  Biso   1.000  C
  C116     1.0000 0.26566  0.86399  0.93563  Biso   1.000  C
  H138     1.0000 0.18971  0.80200  0.88762  Biso   1.000  H
  C117     1.0000 0.36377  0.93505  0.99459  Biso   1.000  C
  C118     1.0000 0.09986  0.64723  0.94324  Biso   1.000  C
  O11      1.0000 0.24676  0.70451  0.12505  Biso   1.000  O
  H139     1.0000 0.34296  0.76023  0.16206  Biso   1.000  H
  C119     1.0000 0.35773  0.84130  0.17604  Biso   1.000  C
  C120     1.0000 0.40873  0.77808  0.13473  Biso   1.000  C
  C121     1.0000 0.10266  0.70657  0.88489  Biso   1.000  C
  O12      1.0000 0.25801  0.90845  0.93029  Biso   1.000  O
  H140     1.0000 0.35494  0.95599  0.97764  Biso   1.000  H
  C122     1.0000 0.41759  0.93141  0.98545  Biso   1.000  C
  C123     1.0000 0.36645  0.96899  0.05529  Biso   1.000  C
  C124     1.0000 0.05349  0.65856  0.93083  Biso   1.000  C
  H141     1.0000 0.09959  0.62785  0.96230  Biso   1.000  H
  C125     1.0000 0.21422  0.73038  0.15181  Biso   1.000  C
  C126     1.0000 0.38966  0.88739  0.17149  Biso   1.000  C
  C127     1.0000 0.32830  0.85372  0.21371  Biso   1.000  C
  H142     1.0000 0.41943  0.79314  0.11120  Biso   1.000  H
  H143     1.0000 0.43647  0.80273  0.17045  Biso   1.000  H
  C128     1.0000 0.40466  0.71503  0.10859  Biso   1.000  C
  H144     1.0000 0.10425  0.72607  0.86579  Biso   1.000  H
  C129     1.0000 0.05457  0.68865  0.90069  Biso   1.000  C
  C130     1.0000 0.22506  0.93129  0.95899  Biso   1.000  C
  C131     1.0000 0.41640  0.90792  0.92533  Biso   1.000  C
  H145     1.0000 0.42492  0.90625  0.99703  Biso   1.000  H
  H146     1.0000 0.44702  0.97001  0.00832  Biso   1.000  H
  C132     1.0000 0.39716  0.96718  0.09677  Biso   1.000  C
  C133     1.0000 0.33619  0.00263  0.07076  Biso   1.000  C
  N9       1.0000 0.00913  0.64253  0.94514  Biso   1.000  N
  C134     1.0000 0.24207  0.78735  0.20242  Biso   1.000  C
  C135     1.0000 0.15941  0.70245  0.13291  Biso   1.000  C
  C136     1.0000 0.39461  0.94449  0.20320  Biso   1.000  C
  H147     1.0000 0.40888  0.87962  0.14581  Biso   1.000  H
  O13      1.0000 0.29813  0.80922  0.22160  Biso   1.000  O
  C137     1.0000 0.33242  0.91041  0.24703  Biso   1.000  C
  H148     1.0000 0.37604  0.69064  0.07349  Biso   1.000  H
  H149     1.0000 0.39396  0.70053  0.13254  Biso   1.000  H
  C138     1.0000 0.45574  0.70875  0.09921  Biso   1.000  C
  N10      1.0000 0.01157  0.69879  0.88911  Biso   1.000  N
  C139     1.0000 0.17023  0.90768  0.93662  Biso   1.000  C
  C140     1.0000 0.25193  0.98373  0.01370  Biso   1.000  C
  H150     1.0000 0.38364  0.87228  0.90209  Biso   1.000  H
  H151     1.0000 0.41436  0.93611  0.91553  Biso   1.000  H
  C141     1.0000 0.46585  0.89522  0.91313  Biso   1.000  C
  C142     1.0000 0.39830  0.99698  0.15205  Biso   1.000  C
  H152     1.0000 0.41768  0.94518  0.08718  Biso   1.000  H
  O14      1.0000 0.30842  0.00808  0.03036  Biso   1.000  O
  C143     1.0000 0.33706  0.03373  0.12522  Biso   1.000  C
  Te5      1.0000 0.95571  0.66824  0.92037  Biso   1.000  Te
  C144     1.0000 0.21330  0.81532  0.23211  Biso   1.000  C
  C145     1.0000 0.12681  0.73099  0.16119  Biso   1.000  C
  H153     1.0000 0.14262  0.66499  0.10181  Biso   1.000  H
  C146     1.0000 0.43083  0.99408  0.19750  Biso   1.000  C
  C147     1.0000 0.36507  0.95450  0.24116  Biso   1.000  C
  H154     1.0000 0.31336  0.91828  0.27284  Biso   1.000  H
  H155     1.0000 0.45106  0.66909  0.08763  Biso   1.000  H
  H156     1.0000 0.48510  0.73482  0.13378  Biso   1.000  H
  C148     1.0000 0.47104  0.72184  0.05670  Biso   1.000  C
  C149     1.0000 0.13765  0.93153  0.96817  Biso   1.000  C
  H157     1.0000 0.15383  0.87584  0.90065  Biso   1.000  H
  C150     1.0000 0.22335  0.00906  0.04475  Biso   1.000  C
  H158     1.0000 0.49878  0.92988  0.93832  Biso   1.000  H
  H159     1.0000 0.46615  0.86446  0.91967  Biso   1.000  H
  C151     1.0000 0.46578  0.87665  0.85367  Biso   1.000  C
  C152     1.0000 0.36742  0.03017  0.16512  Biso   1.000  C
  H160     1.0000 0.31754  0.05684  0.13493  Biso   1.000  H
  C153     1.0000 0.15525  0.78931  0.21189  Biso   1.000  C
  H161     1.0000 0.23142  0.85094  0.26515  Biso   1.000  H
  N11      1.0000 0.07360  0.70790  0.14378  Biso   1.000  N
  C154     1.0000 0.48496  0.98981  0.18960  Biso   1.000  C
  H162     1.0000 0.43994  0.03051  0.23236  Biso   1.000  H
  O15      1.0000 0.37228  0.01192  0.27801  Biso   1.000  O
  H163     1.0000 0.43953  0.70077  0.02424  Biso   1.000  H
  H164     1.0000 0.48218  0.76322  0.07105  Biso   1.000  H
  C155     1.0000 0.51705  0.70485  0.04041  Biso   1.000  C
  N12      1.0000 0.08411  0.90907  0.95035  Biso   1.000  N
  C156     1.0000 0.16518  0.98356  0.02424  Biso   1.000  C
  H165     1.0000 0.24135  0.04295  0.07932  Biso   1.000  H
  H166     1.0000 0.46686  0.90814  0.84780  Biso   1.000  H
  H167     1.0000 0.43189  0.84318  0.82870  Biso   1.000  H
  C157     1.0000 0.51314  0.86091  0.83879  Biso   1.000  C
  O16      1.0000 0.37268  0.06575  0.22103  Biso   1.000  O
  N13      1.0000 0.12480  0.81511  0.23653  Biso   1.000  N
  Te6      1.0000 0.04544  0.76379  0.19493  Biso   1.000  Te
  H168     1.0000 0.47724  0.95220  0.15755  Biso   1.000  H
  C158     1.0000 0.52072  0.99716  0.24021  Biso   1.000  C
  H169     1.0000 0.50479  0.01974  0.18257  Biso   1.000  H
  C159     1.0000 0.32810  0.02576  0.27118  Biso   1.000  C
  H170     1.0000 0.50469  0.66297  0.02345  Biso   1.000  H
  H171     1.0000 0.54724  0.72337  0.07345  Biso   1.000  H
  C160     1.0000 0.53665  0.72213  0.00071  Biso   1.000  C
  Te7      1.0000 0.05554  0.95582  0.01022  Biso   1.000  Te
  N14      1.0000 0.13489  0.00469  0.05368  Biso   1.000  N
  H172     1.0000 0.51221  0.82922  0.84433  Biso   1.000  H
  H173     1.0000 0.54720  0.89425  0.86335  Biso   1.000  H
  C161     1.0000 0.51123  0.84278  0.77974  Biso   1.000  C
  C162     1.0000 0.32809  0.05444  0.24005  Biso   1.000  C
  H174     1.0000 0.49925  0.96972  0.24927  Biso   1.000  H
  C163     1.0000 0.57222  0.98795  0.23322  Biso   1.000  C
  H175     1.0000 0.53076  0.03609  0.27135  Biso   1.000  H
  C164     1.0000 0.28982  0.01839  0.29711  Biso   1.000  C
  H176     1.0000 0.56457  0.70889  0.99058  Biso   1.000  H
  H177     1.0000 0.50669  0.70446  0.96821  Biso   1.000  H
  H178     1.0000 0.55106  0.76379  0.01816  Biso   1.000  H
  H179     1.0000 0.51235  0.87406  0.77407  Biso   1.000  H
  H180     1.0000 0.54195  0.83386  0.77238  Biso   1.000  H
  H181     1.0000 0.47815  0.80891  0.75518  Biso   1.000  H
  C165     1.0000 0.28905  0.07404  0.23475  Biso   1.000  C
  C166     1.0000 0.56506  0.92703  0.20200  Biso   1.000  C
  H182     1.0000 0.56688  0.96932  0.19373  Biso   1.000  H
  C167     1.0000 0.59787  0.95793  0.25059  Biso   1.000  C
  H183     1.0000 0.59756  0.00667  0.26961  Biso   1.000  H
  H184     1.0000 0.58861  0.00739  0.21482  Biso   1.000  H
  H185     1.0000 0.60037  0.02687  0.24947  Biso   1.000  H
  C168     1.0000 0.24736  0.03739  0.29202  Biso   1.000  C
  H186     1.0000 0.29118  0.00109  0.31799  Biso   1.000  H
  C169     1.0000 0.24695  0.06547  0.26006  Biso   1.000  C
  H187     1.0000 0.28972  0.09274  0.21495  Biso   1.000  H
  H188     1.0000 0.55179  0.90797  0.22177  Biso   1.000  H
  H189     1.0000 0.53791  0.90705  0.16632  Biso   1.000  H
  C170     1.0000 0.61887  0.92234  0.19320  Biso   1.000  C
  C171     1.0000 0.62418  0.92415  0.20891  Biso   1.000  C
  H190     1.0000 0.62575  0.98644  0.28594  Biso   1.000  H
  H191     1.0000 0.57066  0.93073  0.25609  Biso   1.000  H
  N15      1.0000 0.20806  0.03036  0.31530  Biso   1.000  N
  N16      1.0000 0.20697  0.08250  0.25539  Biso   1.000  N
  C172     1.0000 0.61485  0.86224  0.16322  Biso   1.000  C
  H192     1.0000 0.64603  0.94367  0.22905  Biso   1.000  H
  H193     1.0000 0.63144  0.94105  0.17294  Biso   1.000  H
  H194     1.0000 0.65972  0.93700  0.23318  Biso   1.000  H
  H195     1.0000 0.63098  0.94520  0.18964  Biso   1.000  H
  Te8      1.0000 0.15699  0.06124  0.29550  Biso   1.000  Te
  H196     1.0000 0.64979  0.86297  0.15946  Biso   1.000  H
  H197     1.0000 0.58878  0.84099  0.12724  Biso   1.000  H
  H198     1.0000 0.60337  0.84362  0.18344  Biso   1.000  H
  H199     1.0000 0.64523  0.86437  0.14870  Biso   1.000  H
  H200     1.0000 0.58211  0.84616  0.13407  Biso   1.000  H
  H201     1.0000 0.61147  0.83781  0.17856  Biso   1.000  H
  C173     1.0000 0.41846  0.43235  0.47722  Biso   1.000  C
  C174     1.0000 0.36451  0.43552  0.48719  Biso   1.000  C
  H202     1.0000 0.44740  0.47135  0.49864  Biso   1.000  H
  H203     1.0000 0.42732  0.40891  0.49037  Biso   1.000  H
  C175     1.0000 0.41612  0.40650  0.41693  Biso   1.000  C
  C176     1.0000 0.31844  0.37524  0.46047  Biso   1.000  C
  H204     1.0000 0.35427  0.45498  0.46924  Biso   1.000  H
  C177     1.0000 0.36917  0.47154  0.54822  Biso   1.000  C
  H205     1.0000 0.41686  0.43448  0.40593  Biso   1.000  H
  H206     1.0000 0.38251  0.37184  0.39411  Biso   1.000  H
  C178     1.0000 0.46542  0.39070  0.40858  Biso   1.000  C
  H207     1.0000 0.38495  0.36911  0.39783  Biso   1.000  H
  H208     1.0000 0.40555  0.43084  0.40622  Biso   1.000  H
  C179     1.0000 0.45814  0.39491  0.38910  Biso   1.000  C
  C180     1.0000 0.26602  0.36294  0.43190  Biso   1.000  C
  C181     1.0000 0.32638  0.32908  0.46176  Biso   1.000  C
  C182     1.0000 0.40145  0.47191  0.59015  Biso   1.000  C
  C183     1.0000 0.33926  0.50575  0.56356  Biso   1.000  C
  H209     1.0000 0.49894  0.42518  0.43236  Biso   1.000  H
  H210     1.0000 0.46403  0.36191  0.41871  Biso   1.000  H
  C184     1.0000 0.46482  0.36608  0.34808  Biso   1.000  C
  H211     1.0000 0.49251  0.42899  0.40808  Biso   1.000  H
  C185     1.0000 0.46362  0.34471  0.39221  Biso   1.000  C
  H212     1.0000 0.44636  0.38438  0.35094  Biso   1.000  H
  C186     1.0000 0.22383  0.30783  0.40606  Biso   1.000  C
  O17      1.0000 0.25723  0.40656  0.42578  Biso   1.000  O
  C187     1.0000 0.28524  0.27281  0.43645  Biso   1.000  C
  H213     1.0000 0.36083  0.33620  0.48036  Biso   1.000  H
  C188     1.0000 0.40461  0.50366  0.64564  Biso   1.000  C
  H214     1.0000 0.42201  0.44989  0.58064  Biso   1.000  H
  O18      1.0000 0.30960  0.50934  0.52262  Biso   1.000  O
  C189     1.0000 0.34190  0.53884  0.61851  Biso   1.000  C
  H215     1.0000 0.46885  0.39598  0.33903  Biso   1.000  H
  H216     1.0000 0.42990  0.33363  0.32435  Biso   1.000  H
  C190     1.0000 0.51053  0.34520  0.33700  Biso   1.000  C
  C191     1.0000 0.50540  0.34118  0.32418  Biso   1.000  C
  H217     1.0000 0.42829  0.31185  0.37356  Biso   1.000  H
  H218     1.0000 0.47309  0.35603  0.43078  Biso   1.000  H
  C192     1.0000 0.50582  0.32370  0.36731  Biso   1.000  C
  H219     1.0000 0.18951  0.30046  0.38700  Biso   1.000  H
  C193     1.0000 0.23404  0.26361  0.40932  Biso   1.000  C
  C194     1.0000 0.22506  0.43014  0.45535  Biso   1.000  C
  C195     1.0000 0.29566  0.22321  0.43724  Biso   1.000  C
  C196     1.0000 0.43804  0.50263  0.69137  Biso   1.000  C
  C197     1.0000 0.37362  0.53677  0.65829  Biso   1.000  C
  C198     1.0000 0.25308  0.48476  0.50819  Biso   1.000  C
  H220     1.0000 0.32250  0.56207  0.62831  Biso   1.000  H
  C199     1.0000 0.50794  0.32389  0.27461  Biso   1.000  C
  H221     1.0000 0.50556  0.31345  0.34349  Biso   1.000  H
  H222     1.0000 0.54564  0.37685  0.36132  Biso   1.000  H
  H223     1.0000 0.53044  0.33067  0.30450  Biso   1.000  H
  H224     1.0000 0.46939  0.32128  0.29867  Biso   1.000  H
  H225     1.0000 0.51619  0.38253  0.34209  Biso   1.000  H
  H226     1.0000 0.54135  0.34386  0.39452  Biso   1.000  H
  H227     1.0000 0.49400  0.28188  0.35061  Biso   1.000  H
  O19      1.0000 0.19329  0.20684  0.37997  Biso   1.000  O
  C200     1.0000 0.17006  0.40558  0.43438  Biso   1.000  C
  C201     1.0000 0.28635  0.22192  0.48814  Biso   1.000  C
  H228     1.0000 0.26816  0.18678  0.40511  Biso   1.000  H
  C202     1.0000 0.35102  0.22441  0.43128  Biso   1.000  C
  C203     1.0000 0.40345  0.45370  0.69869  Biso   1.000  C
  H229     1.0000 0.44708  0.53950  0.72573  Biso   1.000  H
  C204     1.0000 0.49251  0.49837  0.68389  Biso   1.000  C
  O20      1.0000 0.37993  0.57344  0.71449  Biso   1.000  O
  C205     1.0000 0.22550  0.51151  0.53912  Biso   1.000  C
  H230     1.0000 0.53614  0.31060  0.26642  Biso   1.000  H
  H231     1.0000 0.47305  0.29259  0.25091  Biso   1.000  H
  H232     1.0000 0.51292  0.35572  0.26865  Biso   1.000  H
  C206     1.0000 0.49294  0.30480  0.20749  Biso   1.000  C
  H233     1.0000 0.52279  0.33485  0.24008  Biso   1.000  H
  C207     1.0000 0.14955  0.19435  0.40002  Biso   1.000  C
  C208     1.0000 0.13820  0.43082  0.46664  Biso   1.000  C
  H234     1.0000 0.15294  0.37247  0.39919  Biso   1.000  H
  C209     1.0000 0.23574  0.18718  0.48702  Biso   1.000  C
  C210     1.0000 0.32769  0.25473  0.53858  Biso   1.000  C
  H235     1.0000 0.35822  0.23530  0.40424  Biso   1.000  H
  H236     1.0000 0.37844  0.25491  0.46639  Biso   1.000  H
  C211     1.0000 0.35802  0.17108  0.41511  Biso   1.000  C
  H237     1.0000 0.37839  0.26269  0.45973  Biso   1.000  H
  H238     1.0000 0.35707  0.19638  0.43926  Biso   1.000  H
  C212     1.0000 0.36073  0.21269  0.38030  Biso   1.000  C
  C213     1.0000 0.39808  0.39652  0.66648  Biso   1.000  C
  C214     1.0000 0.37608  0.46443  0.73843  Biso   1.000  C
  H239     1.0000 0.48521  0.45934  0.65449  Biso   1.000  H
  H240     1.0000 0.51098  0.52555  0.67322  Biso   1.000  H
  C215     1.0000 0.52958  0.51227  0.73748  Biso   1.000  C
  C216     1.0000 0.33642  0.56204  0.73442  Biso   1.000  C
  C217     1.0000 0.16705  0.48528  0.52101  Biso   1.000  C
  H241     1.0000 0.24425  0.54701  0.57220  Biso   1.000  H
  C218     1.0000 0.50893  0.30110  0.15490  Biso   1.000  C
  H242     1.0000 0.46154  0.31381  0.20923  Biso   1.000  H
  H243     1.0000 0.48467  0.26808  0.20514  Biso   1.000  H
  C219     1.0000 0.15029  0.16415  0.43004  Biso   1.000  C
  C220     1.0000 0.10603  0.20520  0.38782  Biso   1.000  C
  N17      1.0000 0.08486  0.40757  0.45109  Biso   1.000  N
  O21      1.0000 0.19471  0.15062  0.43641  Biso   1.000  O
  C221     1.0000 0.22694  0.18545  0.53325  Biso   1.000  C
  H244     1.0000 0.36167  0.27829  0.54057  Biso   1.000  H
  C222     1.0000 0.32095  0.25416  0.58597  Biso   1.000  C
  H245     1.0000 0.32613  0.13959  0.38451  Biso   1.000  H
  H246     1.0000 0.35749  0.16464  0.44571  Biso   1.000  H
  C223     1.0000 0.40614  0.16500  0.39861  Biso   1.000  C
  H247     1.0000 0.35457  0.24078  0.37244  Biso   1.000  H
  H248     1.0000 0.33318  0.17451  0.35197  Biso   1.000  H
  C224     1.0000 0.41570  0.21359  0.37318  Biso   1.000  C
  C225     1.0000 0.36932  0.35141  0.67396  Biso   1.000  C
  H249     1.0000 0.41451  0.38796  0.63849  Biso   1.000  H
  O22      1.0000 0.38268  0.52178  0.77399  Biso   1.000  O
  C226     1.0000 0.34591  0.42048  0.74633  Biso   1.000  C
  C227     1.0000 0.57703  0.49379  0.73260  Biso   1.000  C
  H250     1.0000 0.54440  0.55405  0.76328  Biso   1.000  H
  H251     1.0000 0.50715  0.49363  0.75360  Biso   1.000  H
  C228     1.0000 0.33795  0.53490  0.76675  Biso   1.000  C
  C229     1.0000 0.29690  0.58142  0.72975  Biso   1.000  C
  N18      1.0000 0.13800  0.50765  0.55095  Biso   1.000  N
  H252     1.0000 0.48389  0.26641  0.10660  Biso   1.000  H
  C230     1.0000 0.49154  0.34921  0.14100  Biso   1.000  C
  H253     1.0000 0.47912  0.27091  0.12157  Biso   1.000  H
  H254     1.0000 0.51743  0.33805  0.15672  Biso   1.000  H
  C231     1.0000 0.56012  0.28649  0.15448  Biso   1.000  C
  C232     1.0000 0.10683  0.14534  0.44613  Biso   1.000  C
  C233     1.0000 0.05970  0.18735  0.40540  Biso   1.000  C
  H255     1.0000 0.10618  0.22403  0.36826  Biso   1.000  H
  Te9      1.0000 0.05790  0.45662  0.51076  Biso   1.000  Te
  H256     1.0000 0.19296  0.16197  0.53135  Biso   1.000  H
  C234     1.0000 0.26941  0.21923  0.58254  Biso   1.000  C
  C235     1.0000 0.36764  0.29023  0.64018  Biso   1.000  C
  H257     1.0000 0.41829  0.14740  0.41730  Biso   1.000  H
  H258     1.0000 0.39178  0.13497  0.35962  Biso   1.000  H
  C236     1.0000 0.45413  0.20630  0.40300  Biso   1.000  C
  H259     1.0000 0.40072  0.13465  0.36487  Biso   1.000  H
  H260     1.0000 0.44381  0.18633  0.42111  Biso   1.000  H
  H261     1.0000 0.44283  0.23277  0.39671  Biso   1.000  H
  H262     1.0000 0.41523  0.20553  0.33613  Biso   1.000  H
  H263     1.0000 0.44339  0.25270  0.39895  Biso   1.000  H
  C237     1.0000 0.43252  0.17128  0.38170  Biso   1.000  C
  C238     1.0000 0.34233  0.36403  0.71383  Biso   1.000  C
  H264     1.0000 0.32813  0.42861  0.77320  Biso   1.000  H
  H265     1.0000 0.56303  0.45177  0.71585  Biso   1.000  H
  H266     1.0000 0.59439  0.50354  0.70837  Biso   1.000  H
  C239     1.0000 0.61925  0.52297  0.78817  Biso   1.000  C
  C240     1.0000 0.30031  0.52721  0.79297  Biso   1.000  C
  C241     1.0000 0.25590  0.57353  0.75588  Biso   1.000  C
  H267     1.0000 0.29679  0.59968  0.70961  Biso   1.000  H
  C242     1.0000 0.51133  0.30471  0.13501  Biso   1.000  C
  H268     1.0000 0.45838  0.34167  0.15089  Biso   1.000  H
  H269     1.0000 0.51846  0.38700  0.16945  Biso   1.000  H
  H270     1.0000 0.48457  0.34813  0.10668  Biso   1.000  H
  C243     1.0000 0.56631  0.31622  0.11859  Biso   1.000  C
  C244     1.0000 0.58821  0.27591  0.12599  Biso   1.000  C
  H271     1.0000 0.59162  0.28377  0.16337  Biso   1.000  H
  C245     1.0000 0.58541  0.29260  0.11202  Biso   1.000  C
  H272     1.0000 0.58681  0.31245  0.19083  Biso   1.000  H
  H273     1.0000 0.54948  0.24681  0.14654  Biso   1.000  H
  C246     1.0000 0.06021  0.15699  0.43537  Biso   1.000  C
  H274     1.0000 0.10723  0.12501  0.46411  Biso   1.000  H
  N19      1.0000 0.01627  0.19774  0.39568  Biso   1.000  N
  O23      1.0000 0.26248  0.21542  0.62906  Biso   1.000  O
  H275     1.0000 0.35996  0.27126  0.66160  Biso   1.000  H
  C247     1.0000 0.42270  0.29279  0.63079  Biso   1.000  C
  H276     1.0000 0.47492  0.22829  0.44187  Biso   1.000  H
  C248     1.0000 0.49552  0.19829  0.37281  Biso   1.000  C
  C249     1.0000 0.47810  0.15848  0.35879  Biso   1.000  C
  O24      1.0000 0.31585  0.32096  0.72462  Biso   1.000  O
  H277     1.0000 0.60147  0.51373  0.81245  Biso   1.000  H
  H278     1.0000 0.63324  0.56496  0.80459  Biso   1.000  H
  C250     1.0000 0.66713  0.50549  0.78577  Biso   1.000  C
  C251     1.0000 0.25730  0.54582  0.78805  Biso   1.000  C
  H279     1.0000 0.30226  0.51011  0.81393  Biso   1.000  H
  N20      1.0000 0.21596  0.59071  0.75236  Biso   1.000  N
  H280     1.0000 0.51786  0.30539  0.16949  Biso   1.000  H
  H281     1.0000 0.55911  0.30680  0.08055  Biso   1.000  H
  H282     1.0000 0.59194  0.35660  0.14253  Biso   1.000  H
  H283     1.0000 0.59332  0.33121  0.11793  Biso   1.000  H
  C252     1.0000 0.64154  0.28264  0.11619  Biso   1.000  C
  H284     1.0000 0.56227  0.23584  0.10073  Biso   1.000  H
  H285     1.0000 0.55998  0.26417  0.07526  Biso   1.000  H
  N21      1.0000 0.01754  0.14195  0.45216  Biso   1.000  N
  Te10     1.0000 0.96326  0.16846  0.43008  Biso   1.000  Te
  C253     1.0000 0.23085  0.24152  0.65685  Biso   1.000  C
  H286     1.0000 0.42870  0.30840  0.60685  Biso   1.000  H
  H287     1.0000 0.45061  0.32085  0.66615  Biso   1.000  H
  C254     1.0000 0.43181  0.23928  0.60718  Biso   1.000  C
  H288     1.0000 0.41819  0.25360  0.60450  Biso   1.000  H
  H289     1.0000 0.43299  0.31606  0.61401  Biso   1.000  H
  C255     1.0000 0.46725  0.31680  0.67979  Biso   1.000  C
  H290     1.0000 0.52721  0.23526  0.39154  Biso   1.000  H
  H291     1.0000 0.48040  0.19006  0.33605  Biso   1.000  H
  C256     1.0000 0.51531  0.15059  0.36649  Biso   1.000  C
  H292     1.0000 0.52457  0.23742  0.36727  Biso   1.000  H
  H293     1.0000 0.48490  0.11321  0.34660  Biso   1.000  H
  H294     1.0000 0.46462  0.13748  0.31881  Biso   1.000  H
  H295     1.0000 0.48644  0.13283  0.36901  Biso   1.000  H
  C257     1.0000 0.53172  0.21208  0.37810  Biso   1.000  C
  C258     1.0000 0.25966  0.29825  0.70783  Biso   1.000  C
  H296     1.0000 0.67872  0.50408  0.75439  Biso   1.000  H
  H297     1.0000 0.65540  0.46667  0.78023  Biso   1.000  H
  C259     1.0000 0.71625  0.54869  0.83941  Biso   1.000  C
  N22      1.0000 0.21862  0.53861  0.81203  Biso   1.000  N
  Te11     1.0000 0.16656  0.56894  0.79318  Biso   1.000  Te
  C260     1.0000 0.65285  0.27709  0.06281  Biso   1.000  C
  H298     1.0000 0.65115  0.25444  0.12103  Biso   1.000  H
  H299     1.0000 0.66753  0.32088  0.14613  Biso   1.000  H
  H300     1.0000 0.67080  0.31565  0.14869  Biso   1.000  H
  H301     1.0000 0.63625  0.24738  0.11686  Biso   1.000  H
  C261     1.0000 0.17586  0.21421  0.63948  Biso   1.000  C
  H302     1.0000 0.39958  0.20795  0.57700  Biso   1.000  H
  H303     1.0000 0.43642  0.22925  0.63518  Biso   1.000  H
  C262     1.0000 0.48251  0.24326  0.58498  Biso   1.000  C
  H304     1.0000 0.45624  0.29545  0.69832  Biso   1.000  H
  H305     1.0000 0.47405  0.35713  0.70506  Biso   1.000  H
  C263     1.0000 0.51884  0.31409  0.66768  Biso   1.000  C
  H306     1.0000 0.54156  0.15023  0.34643  Biso   1.000  H
  H307     1.0000 0.53191  0.15861  0.40238  Biso   1.000  H
  H308     1.0000 0.55753  0.19923  0.36136  Biso   1.000  H
  H309     1.0000 0.54646  0.23273  0.41759  Biso   1.000  H
  C264     1.0000 0.23206  0.32581  0.73921  Biso   1.000  C
  H310     1.0000 0.74522  0.53565  0.83635  Biso   1.000  H
  H311     1.0000 0.70506  0.55015  0.87063  Biso   1.000  H
  H312     1.0000 0.72894  0.58684  0.84429  Biso   1.000  H
  C265     1.0000 0.70913  0.27788  0.05917  Biso   1.000  C
  H313     1.0000 0.62524  0.24091  0.03155  Biso   1.000  H
  H314     1.0000 0.64955  0.30891  0.05983  Biso   1.000  H
  C266     1.0000 0.14510  0.24236  0.67024  Biso   1.000  C
  H315     1.0000 0.15818  0.17732  0.60772  Biso   1.000  H
  H316     1.0000 0.48622  0.20656  0.57100  Biso   1.000  H
  H317     1.0000 0.47693  0.24998  0.55475  Biso   1.000  H
  C267     1.0000 0.53562  0.29378  0.63179  Biso   1.000  C
  H318     1.0000 0.53101  0.33000  0.64671  Biso   1.000  H
  H319     1.0000 0.54148  0.28612  0.66139  Biso   1.000  H
  H320     1.0000 0.52873  0.33402  0.64787  Biso   1.000  H
  H321     1.0000 0.51203  0.27355  0.64345  Biso   1.000  H
  C268     1.0000 0.56674  0.34069  0.71821  Biso   1.000  C
  C269     1.0000 0.17358  0.29997  0.72106  Biso   1.000  C
  H322     1.0000 0.25100  0.36129  0.77234  Biso   1.000  H
  C270     1.0000 0.72125  0.28051  0.00955  Biso   1.000  C
  C271     1.0000 0.71835  0.22776  0.06025  Biso   1.000  C
  H323     1.0000 0.73604  0.31398  0.09213  Biso   1.000  H
  N23      1.0000 0.09153  0.21929  0.65482  Biso   1.000  N
  C272     1.0000 0.58621  0.30086  0.61177  Biso   1.000  C
  H324     1.0000 0.55989  0.31619  0.73405  Biso   1.000  H
  H325     1.0000 0.56945  0.37868  0.74558  Biso   1.000  H
  C273     1.0000 0.62085  0.34748  0.70547  Biso   1.000  C
  N24      1.0000 0.14451  0.32561  0.74773  Biso   1.000  N
  C274     1.0000 0.77300  0.31524  0.01344  Biso   1.000  C
  C275     1.0000 0.68138  0.24986  0.95844  Biso   1.000  C
  C276     1.0000 0.76834  0.23599  0.08940  Biso   1.000  C
  C277     1.0000 0.67706  0.17158  0.03312  Biso   1.000  C
  Te12     1.0000 0.06464  0.27485  0.70816  Biso   1.000  Te
  C278     1.0000 0.63684  0.35330  0.65949  Biso   1.000  C
  H326     1.0000 0.58032  0.30726  0.58130  Biso   1.000  H
  H327     1.0000 0.59237  0.26558  0.59862  Biso   1.000  H
  H328     1.0000 0.64282  0.34668  0.68943  Biso   1.000  H
  H329     1.0000 0.61678  0.31161  0.67326  Biso   1.000  H
  H330     1.0000 0.64831  0.35599  0.73657  Biso   1.000  H
  C279     1.0000 0.63832  0.39798  0.69398  Biso   1.000  C
  O25      1.0000 0.81287  0.35020  0.06521  Biso   1.000  O
  C280     1.0000 0.78445  0.31990  0.96907  Biso   1.000  C
  H331     1.0000 0.64682  0.22585  0.95468  Biso   1.000  H
  C281     1.0000 0.69046  0.25328  0.91271  Biso   1.000  C
  O26      1.0000 0.80998  0.29264  0.12070  Biso   1.000  O
  C282     1.0000 0.77681  0.19116  0.09217  Biso   1.000  C
  C283     1.0000 0.68320  0.12481  0.03432  Biso   1.000  C
  H332     1.0000 0.64349  0.16485  0.01307  Biso   1.000  H
  H333     1.0000 0.66817  0.35734  0.64651  Biso   1.000  H
  H334     1.0000 0.63078  0.38827  0.67214  Biso   1.000  H
  H335     1.0000 0.67237  0.40322  0.68629  Biso   1.000  H
  H336     1.0000 0.61098  0.38938  0.66346  Biso   1.000  H
  H337     1.0000 0.64239  0.43359  0.72652  Biso   1.000  H
  C284     1.0000 0.85623  0.33555  0.07253  Biso   1.000  C
  H338     1.0000 0.81914  0.34374  0.97279  Biso   1.000  H
  C285     1.0000 0.74330  0.28852  0.91908  Biso   1.000  C
  C286     1.0000 0.64587  0.22014  0.85821  Biso   1.000  C
  C287     1.0000 0.85478  0.30500  0.10209  Biso   1.000  C
  C288     1.0000 0.73441  0.13601  0.06434  Biso   1.000  C
  H339     1.0000 0.81036  0.19800  0.11235  Biso   1.000  H
  C289     1.0000 0.63633  0.06493  0.00542  Biso   1.000  C
  C290     1.0000 0.90024  0.35276  0.05677  Biso   1.000  C
  O27      1.0000 0.75329  0.29545  0.87492  Biso   1.000  O
  H340     1.0000 0.65712  0.23979  0.83795  Biso   1.000  H
  C291     1.0000 0.64235  0.15872  0.82397  Biso   1.000  C
  C292     1.0000 0.59138  0.22190  0.86528  Biso   1.000  C
  C293     1.0000 0.89745  0.29342  0.11508  Biso   1.000  C
  O28      1.0000 0.74205  0.09153  0.06972  Biso   1.000  O
  H341     1.0000 0.64513  0.04401  0.02233  Biso   1.000  H
  C294     1.0000 0.58248  0.06858  0.01456  Biso   1.000  C
  C295     1.0000 0.63360  0.03097  0.94467  Biso   1.000  C
  C296     1.0000 0.94658  0.34142  0.06918  Biso   1.000  C
  H342     1.0000 0.90051  0.37214  0.03767  Biso   1.000  H
  C297     1.0000 0.78587  0.26958  0.84816  Biso   1.000  C
  C298     1.0000 0.61039  0.11257  0.82848  Biso   1.000  C
  C299     1.0000 0.67179  0.14624  0.78626  Biso   1.000  C
  H343     1.0000 0.58067  0.20686  0.88877  Biso   1.000  H
  H344     1.0000 0.56360  0.19725  0.82956  Biso   1.000  H
  C300     1.0000 0.59543  0.28493  0.89137  Biso   1.000  C
  H345     1.0000 0.89581  0.27392  0.13418  Biso   1.000  H
  C301     1.0000 0.94548  0.31131  0.09928  Biso   1.000  C
  C302     1.0000 0.77499  0.06867  0.04098  Biso   1.000  C
  C303     1.0000 0.58370  0.09206  0.07468  Biso   1.000  C
  H346     1.0000 0.57514  0.09375  0.00294  Biso   1.000  H
  H347     1.0000 0.55304  0.02995  0.99165  Biso   1.000  H
  C304     1.0000 0.66391  0.99735  0.92925  Biso   1.000  C
  C305     1.0000 0.60295  0.03284  0.90324  Biso   1.000  C
  N25      1.0000 0.99096  0.35743  0.05483  Biso   1.000  N
  C306     1.0000 0.75803  0.21264  0.79755  Biso   1.000  C
  C307     1.0000 0.84071  0.29757  0.86710  Biso   1.000  C
  C308     1.0000 0.60546  0.05549  0.79681  Biso   1.000  C
  H348     1.0000 0.59121  0.12034  0.85416  Biso   1.000  H
  O29      1.0000 0.70193  0.19076  0.77841  Biso   1.000  O
  C309     1.0000 0.66767  0.08955  0.75293  Biso   1.000  C
  H349     1.0000 0.62406  0.30934  0.92652  Biso   1.000  H
  H350     1.0000 0.60609  0.29943  0.86743  Biso   1.000  H
  C310     1.0000 0.54432  0.29124  0.90076  Biso   1.000  C
  N26      1.0000 0.98854  0.30123  0.11090  Biso   1.000  N
  C311     1.0000 0.82983  0.09232  0.06335  Biso   1.000  C
  C312     1.0000 0.74812  0.01623  0.98627  Biso   1.000  C
  H351     1.0000 0.61642  0.12772  0.09788  Biso   1.000  H
  H352     1.0000 0.58572  0.06391  0.08448  Biso   1.000  H
  C313     1.0000 0.53427  0.10480  0.08688  Biso   1.000  C
  O30      1.0000 0.69165  0.99191  0.96961  Biso   1.000  O
  C314     1.0000 0.66300  0.96625  0.87479  Biso   1.000  C
  C315     1.0000 0.60180  0.00300  0.84796  Biso   1.000  C
  H353     1.0000 0.58238  0.05482  0.91279  Biso   1.000  H
  Te13     1.0000 0.04437  0.33178  0.07964  Biso   1.000  Te
  C316     1.0000 0.78678  0.18470  0.76790  Biso   1.000  C
  C317     1.0000 0.87325  0.26901  0.83878  Biso   1.000  C
  H354     1.0000 0.85746  0.33503  0.89820  Biso   1.000  H
  C318     1.0000 0.56928  0.00591  0.80251  Biso   1.000  C
  C319     1.0000 0.63501  0.04552  0.75885  Biso   1.000  C
  H355     1.0000 0.68669  0.08168  0.72713  Biso   1.000  H
  H356     1.0000 0.54899  0.33087  0.91234  Biso   1.000  H
  H357     1.0000 0.51497  0.26516  0.86623  Biso   1.000  H
  C320     1.0000 0.52903  0.27815  0.94327  Biso   1.000  C
  C321     1.0000 0.86243  0.06849  0.03184  Biso   1.000  C
  H358     1.0000 0.84627  0.12414  0.09936  Biso   1.000  H
  C322     1.0000 0.77672  0.99092  0.95526  Biso   1.000  C
  H359     1.0000 0.50127  0.07008  0.06165  Biso   1.000  H
  H360     1.0000 0.53391  0.13550  0.08030  Biso   1.000  H
  C323     1.0000 0.53429  0.12334  0.14634  Biso   1.000  C
  H361     1.0000 0.68251  0.94312  0.86503  Biso   1.000  H
  C324     1.0000 0.63270  0.96985  0.83489  Biso   1.000  C
  C325     1.0000 0.84485  0.21068  0.78808  Biso   1.000  C
  H362     1.0000 0.76868  0.14905  0.73482  Biso   1.000  H
  N27      1.0000 0.92647  0.29208  0.85623  Biso   1.000  N
  H363     1.0000 0.56013  0.96947  0.76765  Biso   1.000  H
  C326     1.0000 0.51509  0.01015  0.81037  Biso   1.000  C
  O31      1.0000 0.62777  0.98804  0.72196  Biso   1.000  O
  H364     1.0000 0.56055  0.29925  0.97577  Biso   1.000  H
  H365     1.0000 0.51788  0.23674  0.92892  Biso   1.000  H
  C327     1.0000 0.48302  0.29515  0.95956  Biso   1.000  C
  N28      1.0000 0.91596  0.09093  0.04962  Biso   1.000  N
  C328     1.0000 0.83490  0.01646  0.97577  Biso   1.000  C
  H366     1.0000 0.75871  0.95703  0.92069  Biso   1.000  H
  H367     1.0000 0.53319  0.09182  0.15217  Biso   1.000  H
  H368     1.0000 0.56821  0.15682  0.17127  Biso   1.000  H
  C329     1.0000 0.48694  0.13911  0.16122  Biso   1.000  C
  O32      1.0000 0.62738  0.93423  0.77898  Biso   1.000  O
  N29      1.0000 0.87530  0.18489  0.76344  Biso   1.000  N
  Te14     1.0000 0.95463  0.23619  0.80508  Biso   1.000  Te
  H369     1.0000 0.49532  0.98025  0.81740  Biso   1.000  H
  H370     1.0000 0.52283  0.04779  0.84242  Biso   1.000  H
  C330     1.0000 0.47935  0.00286  0.75980  Biso   1.000  C
  C331     1.0000 0.67202  0.97426  0.72883  Biso   1.000  C
  H371     1.0000 0.49541  0.33701  0.97655  Biso   1.000  H
  H372     1.0000 0.45281  0.27659  0.92652  Biso   1.000  H
  C332     1.0000 0.46345  0.27785  0.99930  Biso   1.000  C
  Te15     1.0000 0.94451  0.04414  0.98975  Biso   1.000  Te
  N30      1.0000 0.86518  0.99533  0.94633  Biso   1.000  N
  H373     1.0000 0.48789  0.17076  0.15568  Biso   1.000  H
  H374     1.0000 0.45286  0.10570  0.13662  Biso   1.000  H
  C333     1.0000 0.48886  0.15718  0.22023  Biso   1.000  C
  C334     1.0000 0.67197  0.94555  0.75992  Biso   1.000  C
  H375     1.0000 0.46933  0.96387  0.72862  Biso   1.000  H
  H376     1.0000 0.50085  0.03028  0.75070  Biso   1.000  H
  C335     1.0000 0.42788  0.01203  0.76679  Biso   1.000  C
  C336     1.0000 0.71026  0.98163  0.70290  Biso   1.000  C
  H377     1.0000 0.43550  0.29111  0.00939  Biso   1.000  H
  H378     1.0000 0.49336  0.29550  0.03176  Biso   1.000  H
  H379     1.0000 0.44904  0.23621  0.98181  Biso   1.000  H
  H380     1.0000 0.48770  0.12590  0.22590  Biso   1.000  H
  H381     1.0000 0.45816  0.16616  0.22763  Biso   1.000  H
  H382     1.0000 0.52195  0.19109  0.24479  Biso   1.000  H
  C337     1.0000 0.71101  0.92594  0.76526  Biso   1.000  C
  H383     1.0000 0.40249  0.99329  0.73036  Biso   1.000  H
  H384     1.0000 0.41145  0.99259  0.78519  Biso   1.000  H
  H385     1.0000 0.39970  0.97312  0.75049  Biso   1.000  H
  C338     1.0000 0.43500  0.07293  0.79796  Biso   1.000  C
  H386     1.0000 0.43319  0.03066  0.80628  Biso   1.000  H
  C339     1.0000 0.40222  0.04203  0.74938  Biso   1.000  C
  C340     1.0000 0.75270  0.96261  0.70794  Biso   1.000  C
  H387     1.0000 0.70887  0.99887  0.68198  Biso   1.000  H
  C341     1.0000 0.75311  0.93451  0.73995  Biso   1.000  C
  H388     1.0000 0.71038  0.90725  0.78502  Biso   1.000  H
  H389     1.0000 0.44828  0.09202  0.77824  Biso   1.000  H
  H390     1.0000 0.46215  0.09293  0.83369  Biso   1.000  H
  C342     1.0000 0.38123  0.07766  0.80677  Biso   1.000  C
  C343     1.0000 0.37593  0.07587  0.79110  Biso   1.000  C
  H391     1.0000 0.37437  0.01358  0.71406  Biso   1.000  H
  H392     1.0000 0.42940  0.06927  0.74388  Biso   1.000  H
  N31      1.0000 0.79204  0.96963  0.68471  Biso   1.000  N
  N32      1.0000 0.79309  0.91748  0.74462  Biso   1.000  N
  C344     1.0000 0.38521  0.13774  0.83679  Biso   1.000  C
  H393     1.0000 0.35404  0.05633  0.77092  Biso   1.000  H
  H394     1.0000 0.36862  0.05894  0.82703  Biso   1.000  H
  H395     1.0000 0.34038  0.06300  0.76679  Biso   1.000  H
  H396     1.0000 0.36909  0.05482  0.81037  Biso   1.000  H
  Te16     1.0000 0.84307  0.93875  0.70447  Biso   1.000  Te
  H397     1.0000 0.35027  0.13701  0.84055  Biso   1.000  H
  H398     1.0000 0.41130  0.15903  0.87277  Biso   1.000  H
  H399     1.0000 0.39671  0.15640  0.81657  Biso   1.000  H
  H400     1.0000 0.35482  0.13559  0.85126  Biso   1.000  H
  H401     1.0000 0.41799  0.15382  0.86594  Biso   1.000  H
  H402     1.0000 0.38865  0.16221  0.82145  Biso   1.000  H
  C345     1.0000 0.54641  0.42620  0.55529  Biso   1.000  C
  C346     1.0000 0.50001  0.37327  0.54669  Biso   1.000  C
  H403     1.0000 0.55425  0.45934  0.59180  Biso   1.000  H
  H404     1.0000 0.53550  0.43568  0.52825  Biso   1.000  H
  C347     1.0000 0.60151  0.41427  0.54938  Biso   1.000  C
  H405     1.0000 0.53104  0.44981  0.54801  Biso   1.000  H
  H406     1.0000 0.56826  0.44941  0.59387  Biso   1.000  H
  C348     1.0000 0.58314  0.41329  0.52039  Biso   1.000  C
  H407     1.0000 0.48374  0.34505  0.50786  Biso   1.000  H
  H408     1.0000 0.47316  0.38484  0.56220  Biso   1.000  H
  H409     1.0000 0.51388  0.35632  0.56468  Biso   1.000  H
  C349     1.0000 0.59465  0.36410  0.49310  Biso   1.000  C
  H410     1.0000 0.63049  0.44957  0.55645  Biso   1.000  H
  H411     1.0000 0.61289  0.40628  0.57749  Biso   1.000  H
  C350     1.0000 0.60652  0.37638  0.53499  Biso   1.000  C
  H412     1.0000 0.61994  0.39540  0.57485  Biso   1.000  H
  H413     1.0000 0.61213  0.44907  0.52874  Biso   1.000  H
  H414     1.0000 0.56279  0.39147  0.48140  Biso   1.000  H
  C351     1.0000 0.64643  0.35339  0.48520  Biso   1.000  C
  H415     1.0000 0.58148  0.37133  0.46502  Biso   1.000  H
  H416     1.0000 0.56665  0.32865  0.48690  Biso   1.000  H
  C352     1.0000 0.65245  0.36890  0.51071  Biso   1.000  C
  H417     1.0000 0.57767  0.33835  0.52097  Biso   1.000  H
  C353     1.0000 0.66692  0.32513  0.51630  Biso   1.000  C
  H418     1.0000 0.67582  0.39043  0.49715  Biso   1.000  H
  H419     1.0000 0.63999  0.32820  0.44592  Biso   1.000  H
  H420     1.0000 0.64128  0.35644  0.47189  Biso   1.000  H
  H421     1.0000 0.68409  0.40588  0.52961  Biso   1.000  H
  C354     1.0000 0.72043  0.32228  0.50650  Biso   1.000  C
  H422     1.0000 0.67230  0.34852  0.55562  Biso   1.000  H
  H423     1.0000 0.63974  0.28616  0.50240  Biso   1.000  H
  H424     1.0000 0.63770  0.28697  0.49058  Biso   1.000  H
  H425     1.0000 0.66832  0.33264  0.55330  Biso   1.000  H
  C355     1.0000 0.76895  0.38216  0.54111  Biso   1.000  C
  C356     1.0000 0.73443  0.27846  0.51626  Biso   1.000  C
  H426     1.0000 0.71656  0.30968  0.46754  Biso   1.000  H
  C357     1.0000 0.80981  0.39878  0.51886  Biso   1.000  C
  C358     1.0000 0.77438  0.42210  0.59556  Biso   1.000  C
  C359     1.0000 0.72305  0.26853  0.55856  Biso   1.000  C
  C360     1.0000 0.75940  0.24604  0.48260  Biso   1.000  C
  O33      1.0000 0.80315  0.36269  0.46279  Biso   1.000  O
  C361     1.0000 0.85425  0.45221  0.54979  Biso   1.000  C
  C362     1.0000 0.81809  0.47667  0.62790  Biso   1.000  C
  H427     1.0000 0.74755  0.41178  0.61103  Biso   1.000  H
  H428     1.0000 0.70590  0.28914  0.58122  Biso   1.000  H
  C363     1.0000 0.73637  0.22901  0.56827  Biso   1.000  C
  O34      1.0000 0.76572  0.25034  0.43616  Biso   1.000  O
  C364     1.0000 0.77362  0.20685  0.49062  Biso   1.000  C
  C365     1.0000 0.83819  0.33505  0.44943  Biso   1.000  C
  C366     1.0000 0.85833  0.49021  0.60379  Biso   1.000  C
  H429     1.0000 0.88117  0.46246  0.53441  Biso   1.000  H
  C367     1.0000 0.82319  0.52136  0.68674  Biso   1.000  C
  C368     1.0000 0.76263  0.19921  0.53395  Biso   1.000  C
  C369     1.0000 0.72447  0.21870  0.61401  Biso   1.000  C
  C370     1.0000 0.81890  0.27526  0.43595  Biso   1.000  C
  H430     1.0000 0.79028  0.18589  0.46759  Biso   1.000  H
  C371     1.0000 0.88740  0.36162  0.44551  Biso   1.000  C
  O35      1.0000 0.90026  0.54601  0.63423  Biso   1.000  O
  C372     1.0000 0.85364  0.51207  0.72776  Biso   1.000  C
  H431     1.0000 0.84682  0.55944  0.69340  Biso   1.000  H
  C373     1.0000 0.76923  0.52529  0.69485  Biso   1.000  C
  O36      1.0000 0.77143  0.15531  0.53937  Biso   1.000  O
  H432     1.0000 0.72198  0.17938  0.60251  Biso   1.000  H
  C374     1.0000 0.77274  0.26062  0.66652  Biso   1.000  C
  C375     1.0000 0.66916  0.21857  0.62211  Biso   1.000  C
  C376     1.0000 0.84855  0.24353  0.41888  Biso   1.000  C
  C377     1.0000 0.92131  0.33037  0.42905  Biso   1.000  C
  H433     1.0000 0.89910  0.39982  0.45340  Biso   1.000  H
  C378     1.0000 0.95246  0.55196  0.65312  Biso   1.000  C
  C379     1.0000 0.82753  0.47201  0.74186  Biso   1.000  C
  C380     1.0000 0.90999  0.54353  0.75241  Biso   1.000  C
  C381     1.0000 0.74685  0.54629  0.65949  Biso   1.000  C
  H434     1.0000 0.77497  0.55217  0.73355  Biso   1.000  H
  H435     1.0000 0.74280  0.48726  0.68463  Biso   1.000  H
  C382     1.0000 0.82442  0.16303  0.55736  Biso   1.000  C
  C383     1.0000 0.77788  0.31659  0.70316  Biso   1.000  C
  C384     1.0000 0.81414  0.24562  0.67909  Biso   1.000  C
  H436     1.0000 0.67184  0.25822  0.63861  Biso   1.000  H
  H437     1.0000 0.64188  0.19544  0.58610  Biso   1.000  H
  C385     1.0000 0.65014  0.19517  0.65738  Biso   1.000  C
  C386     1.0000 0.90143  0.26984  0.41577  Biso   1.000  C
  H438     1.0000 0.83462  0.20468  0.40920  Biso   1.000  H
  N33      1.0000 0.97063  0.35460  0.42723  Biso   1.000  N
  C387     1.0000 0.97371  0.57604  0.71209  Biso   1.000  C
  C388     1.0000 0.98369  0.53962  0.61926  Biso   1.000  C
  H439     1.0000 0.79002  0.45080  0.72590  Biso   1.000  H
  C389     1.0000 0.85451  0.46170  0.77891  Biso   1.000  C
  O37      1.0000 0.93830  0.58733  0.74289  Biso   1.000  O
  C390     1.0000 0.93860  0.53557  0.78995  Biso   1.000  C
  H440     1.0000 0.77547  0.58187  0.66681  Biso   1.000  H
  H441     1.0000 0.73808  0.51712  0.62083  Biso   1.000  H
  C391     1.0000 0.69650  0.55813  0.66896  Biso   1.000  C
  C392     1.0000 0.84412  0.17972  0.61446  Biso   1.000  C
  C393     1.0000 0.85502  0.15113  0.52320  Biso   1.000  C
  C394     1.0000 0.82177  0.35746  0.75187  Biso   1.000  C
  H442     1.0000 0.75070  0.32770  0.69497  Biso   1.000  H
  O38      1.0000 0.80856  0.18786  0.64576  Biso   1.000  O
  C395     1.0000 0.85877  0.28389  0.72557  Biso   1.000  C
  H443     1.0000 0.67779  0.21775  0.69307  Biso   1.000  H
  H444     1.0000 0.64661  0.15523  0.64043  Biso   1.000  H
  C396     1.0000 0.59603  0.19629  0.66660  Biso   1.000  C
  N34      1.0000 0.93322  0.24184  0.40122  Biso   1.000  N
  Te17     1.0000 0.00333  0.29598  0.40407  Biso   1.000  Te
  C397     1.0000 0.02649  0.59030  0.73562  Biso   1.000  C
  H445     1.0000 0.96920  0.52301  0.58142  Biso   1.000  H
  C398     1.0000 0.03941  0.55249  0.64241  Biso   1.000  C
  C399     1.0000 0.91092  0.49454  0.80248  Biso   1.000  C
  C400     1.0000 0.82498  0.41685  0.79309  Biso   1.000  C
  H446     1.0000 0.97592  0.55753  0.80653  Biso   1.000  H
  H447     1.0000 0.68377  0.56716  0.64212  Biso   1.000  H
  H448     1.0000 0.66790  0.52269  0.66197  Biso   1.000  H
  C401     1.0000 0.70516  0.60737  0.72640  Biso   1.000  C
  C402     1.0000 0.89360  0.18328  0.63443  Biso   1.000  C
  C403     1.0000 0.90764  0.15456  0.54226  Biso   1.000  C
  H449     1.0000 0.84168  0.14052  0.48673  Biso   1.000  H
  C404     1.0000 0.86186  0.33923  0.76134  Biso   1.000  C
  H450     1.0000 0.88632  0.27291  0.73285  Biso   1.000  H
  H451     1.0000 0.60165  0.23651  0.69038  Biso   1.000  H
  H452     1.0000 0.57047  0.18116  0.63133  Biso   1.000  H
  C405     1.0000 0.57034  0.16158  0.69220  Biso   1.000  C
  H453     1.0000 0.59954  0.23623  0.68459  Biso   1.000  H
  H454     1.0000 0.56824  0.17424  0.63108  Biso   1.000  H
  C406     1.0000 0.57813  0.17098  0.70159  Biso   1.000  C
  C407     1.0000 0.06182  0.57878  0.70196  Biso   1.000  C
  H455     1.0000 0.03989  0.60765  0.77370  Biso   1.000  H
  N35      1.0000 0.07188  0.54156  0.61161  Biso   1.000  N
  O39      1.0000 0.93967  0.49003  0.84263  Biso   1.000  O
  H456     1.0000 0.84807  0.42841  0.82886  Biso   1.000  H
  C408     1.0000 0.77020  0.41675  0.80120  Biso   1.000  C
  C409     1.0000 0.65840  0.62762  0.73070  Biso   1.000  C
  H457     1.0000 0.73882  0.64029  0.73702  Biso   1.000  H
  H458     1.0000 0.70916  0.59461  0.75241  Biso   1.000  H
  C410     1.0000 0.92806  0.17230  0.60007  Biso   1.000  C
  H459     1.0000 0.90536  0.19300  0.67086  Biso   1.000  H
  N36      1.0000 0.93929  0.14281  0.51030  Biso   1.000  N
  O40      1.0000 0.90410  0.37710  0.81149  Biso   1.000  O
  H460     1.0000 0.59798  0.16958  0.72284  Biso   1.000  H
  H461     1.0000 0.54273  0.17365  0.70651  Biso   1.000  H
  C411     1.0000 0.54481  0.09718  0.65019  Biso   1.000  C
  H462     1.0000 0.60381  0.19578  0.73847  Biso   1.000  H
  H463     1.0000 0.57915  0.13285  0.68596  Biso   1.000  H
  C412     1.0000 0.52102  0.16469  0.70580  Biso   1.000  C
  N37      1.0000 0.11321  0.59061  0.72193  Biso   1.000  N
  Te18     1.0000 0.14619  0.56584  0.65953  Biso   1.000  Te
  C413     1.0000 0.97623  0.46421  0.82832  Biso   1.000  C
  H464     1.0000 0.74573  0.40498  0.76655  Biso   1.000  H
  H465     1.0000 0.77541  0.45601  0.82824  Biso   1.000  H
  C414     1.0000 0.74415  0.37539  0.82080  Biso   1.000  C
  H466     1.0000 0.65777  0.64553  0.70870  Biso   1.000  H
  H467     1.0000 0.62411  0.59378  0.71515  Biso   1.000  H
  C415     1.0000 0.66315  0.67079  0.78950  Biso   1.000  C
  N38      1.0000 0.97776  0.17800  0.61785  Biso   1.000  N
  Te19     1.0000 0.01010  0.15741  0.55546  Biso   1.000  Te
  C416     1.0000 0.95640  0.40314  0.81013  Biso   1.000  C
  C417     1.0000 0.51782  0.06007  0.67169  Biso   1.000  C
  H468     1.0000 0.51798  0.08984  0.61926  Biso   1.000  H
  H469     1.0000 0.57274  0.08560  0.63629  Biso   1.000  H
  H470     1.0000 0.52346  0.19799  0.73963  Biso   1.000  H
  H471     1.0000 0.50044  0.16355  0.67483  Biso   1.000  H
  C418     1.0000 0.49223  0.10917  0.70539  Biso   1.000  C
  C419     1.0000 0.02803  0.49494  0.83420  Biso   1.000  C
  H472     1.0000 0.76638  0.38985  0.85756  Biso   1.000  H
  H473     1.0000 0.74286  0.33712  0.79615  Biso   1.000  H
  C420     1.0000 0.68463  0.37009  0.82200  Biso   1.000  C
  H474     1.0000 0.72890  0.33577  0.78929  Biso   1.000  H
  H475     1.0000 0.77273  0.37859  0.84730  Biso   1.000  H
  C421     1.0000 0.69983  0.38508  0.84697  Biso   1.000  C
  H476     1.0000 0.63285  0.68159  0.78941  Biso   1.000  H
  H477     1.0000 0.69655  0.70493  0.80492  Biso   1.000  H
  H478     1.0000 0.66304  0.65314  0.81141  Biso   1.000  H
  C422     1.0000 0.98893  0.37401  0.79677  Biso   1.000  C
  H479     1.0000 0.50258  0.01979  0.64270  Biso   1.000  H
  H480     1.0000 0.54426  0.06620  0.70171  Biso   1.000  H
  H481     1.0000 0.48939  0.07046  0.68463  Biso   1.000  H
  H482     1.0000 0.48947  0.07629  0.67165  Biso   1.000  H
  H483     1.0000 0.45629  0.10551  0.70808  Biso   1.000  H
  H484     1.0000 0.51243  0.11064  0.73628  Biso   1.000  H
  C423     1.0000 0.06470  0.46669  0.82129  Biso   1.000  C
  H485     1.0000 0.04016  0.53448  0.84664  Biso   1.000  H
  H486     1.0000 0.66675  0.37216  0.79198  Biso   1.000  H
  H487     1.0000 0.66320  0.33323  0.81832  Biso   1.000  H
  C424     1.0000 0.69107  0.42240  0.87910  Biso   1.000  C
  H488     1.0000 0.68942  0.35801  0.85983  Biso   1.000  H
  H489     1.0000 0.66848  0.37353  0.81782  Biso   1.000  H
  C425     1.0000 0.70966  0.44458  0.89440  Biso   1.000  C
  H490     1.0000 0.97547  0.33447  0.78462  Biso   1.000  H
  C426     1.0000 0.04418  0.40472  0.80161  Biso   1.000  C
  N39      1.0000 0.11608  0.49415  0.82605  Biso   1.000  N
  H491     1.0000 0.70611  0.41736  0.90825  Biso   1.000  H
  H492     1.0000 0.71687  0.45815  0.88402  Biso   1.000  H
  C427     1.0000 0.63814  0.42857  0.88539  Biso   1.000  C
  C428     1.0000 0.66315  0.44759  0.92008  Biso   1.000  C
  H493     1.0000 0.71672  0.47155  0.88129  Biso   1.000  H
  H494     1.0000 0.74224  0.45795  0.92314  Biso   1.000  H
  N40      1.0000 0.07836  0.37927  0.78987  Biso   1.000  N
  Te20     1.0000 0.15104  0.43717  0.80256  Biso   1.000  Te
  H495     1.0000 0.61054  0.39107  0.87517  Biso   1.000  H
  H496     1.0000 0.62589  0.43964  0.86016  Biso   1.000  H
  C429     1.0000 0.64383  0.47357  0.94377  Biso   1.000  C
  H497     1.0000 0.60622  0.43765  0.85851  Biso   1.000  H
  H498     1.0000 0.59751  0.37841  0.85491  Biso   1.000  H
  H499     1.0000 0.66248  0.42918  0.94179  Biso   1.000  H
  H500     1.0000 0.67117  0.48827  0.94539  Biso   1.000  H
  C430     1.0000 0.60665  0.41906  0.87947  Biso   1.000  C
  H501     1.0000 0.60942  0.47585  0.94563  Biso   1.000  H
  H502     1.0000 0.65518  0.46238  0.96891  Biso   1.000  H
  H503     1.0000 0.67053  0.51095  0.95390  Biso   1.000  H
  H504     1.0000 0.58044  0.42321  0.89945  Biso   1.000  H
  C431     1.0000 0.45365  0.57379  0.44468  Biso   1.000  C
  C432     1.0000 0.39854  0.58568  0.45059  Biso   1.000  C
  C433     1.0000 0.41693  0.58670  0.47958  Biso   1.000  C
  H505     1.0000 0.44584  0.54062  0.40817  Biso   1.000  H
  H506     1.0000 0.46455  0.56428  0.47172  Biso   1.000  H
  C434     1.0000 0.50004  0.62669  0.45328  Biso   1.000  C
  H507     1.0000 0.46901  0.55015  0.45196  Biso   1.000  H
  H508     1.0000 0.43179  0.55055  0.40610  Biso   1.000  H
  C435     1.0000 0.40547  0.63592  0.50691  Biso   1.000  C
  C436     1.0000 0.39353  0.62358  0.46498  Biso   1.000  C
  H509     1.0000 0.38718  0.59370  0.42251  Biso   1.000  H
  H510     1.0000 0.38014  0.60462  0.42516  Biso   1.000  H
  H511     1.0000 0.36959  0.55045  0.44356  Biso   1.000  H
  H512     1.0000 0.38793  0.55089  0.47123  Biso   1.000  H
  H513     1.0000 0.43726  0.60849  0.51857  Biso   1.000  H
  H514     1.0000 0.51636  0.65495  0.49211  Biso   1.000  H
  H515     1.0000 0.52693  0.61512  0.43777  Biso   1.000  H
  H516     1.0000 0.48618  0.64367  0.43529  Biso   1.000  H
  C437     1.0000 0.35363  0.64659  0.51481  Biso   1.000  C
  C438     1.0000 0.34766  0.63109  0.48929  Biso   1.000  C
  H517     1.0000 0.41858  0.62865  0.53499  Biso   1.000  H
  H518     1.0000 0.43342  0.67134  0.51307  Biso   1.000  H
  H519     1.0000 0.42240  0.66167  0.47904  Biso   1.000  H
  C439     1.0000 0.33320  0.67489  0.48371  Biso   1.000  C
  H520     1.0000 0.32427  0.60953  0.50282  Biso   1.000  H
  H521     1.0000 0.36010  0.67176  0.55405  Biso   1.000  H
  H522     1.0000 0.35882  0.64355  0.52812  Biso   1.000  H
  H523     1.0000 0.31602  0.59412  0.47036  Biso   1.000  H
  C440     1.0000 0.27963  0.67770  0.49351  Biso   1.000  C
  H524     1.0000 0.32777  0.65147  0.44439  Biso   1.000  H
  H525     1.0000 0.36032  0.71380  0.49757  Biso   1.000  H
  H526     1.0000 0.36239  0.71299  0.50939  Biso   1.000  H
  H527     1.0000 0.33180  0.66738  0.44670  Biso   1.000  H
  C441     1.0000 0.23113  0.61786  0.45890  Biso   1.000  C
  C442     1.0000 0.26563  0.72150  0.48371  Biso   1.000  C
  H528     1.0000 0.28351  0.69030  0.53246  Biso   1.000  H
  C443     1.0000 0.22570  0.57792  0.40444  Biso   1.000  C
  C444     1.0000 0.19025  0.60120  0.48115  Biso   1.000  C
  C445     1.0000 0.27704  0.73142  0.44141  Biso   1.000  C
  C446     1.0000 0.24070  0.75394  0.51741  Biso   1.000  C
  C447     1.0000 0.18202  0.52335  0.37211  Biso   1.000  C
  H529     1.0000 0.25251  0.58821  0.38898  Biso   1.000  H
  C448     1.0000 0.14581  0.54775  0.45018  Biso   1.000  C
  O41      1.0000 0.19692  0.63729  0.53722  Biso   1.000  O
  H530     1.0000 0.29421  0.71084  0.41879  Biso   1.000  H
  C449     1.0000 0.26373  0.77097  0.43174  Biso   1.000  C
  O42      1.0000 0.23438  0.74966  0.56381  Biso   1.000  O
  C450     1.0000 0.22647  0.79311  0.50935  Biso   1.000  C
  C451     1.0000 0.17691  0.47863  0.31327  Biso   1.000  C
  C452     1.0000 0.14173  0.50977  0.39622  Biso   1.000  C
  H531     1.0000 0.11893  0.53752  0.46560  Biso   1.000  H
  C453     1.0000 0.16190  0.66491  0.55053  Biso   1.000  C
  C454     1.0000 0.27564  0.78132  0.38600  Biso   1.000  C
  C455     1.0000 0.23746  0.80075  0.46601  Biso   1.000  C
  C456     1.0000 0.18122  0.72476  0.56406  Biso   1.000  C
  H532     1.0000 0.20982  0.81409  0.53242  Biso   1.000  H
  C457     1.0000 0.23082  0.47467  0.30512  Biso   1.000  C
  C458     1.0000 0.14642  0.48789  0.27221  Biso   1.000  C
  H533     1.0000 0.15328  0.44056  0.30657  Biso   1.000  H
  O43      1.0000 0.09984  0.45398  0.36574  Biso   1.000  O
  C459     1.0000 0.11271  0.63838  0.55446  Biso   1.000  C
  C460     1.0000 0.22735  0.73934  0.33345  Biso   1.000  C
  H534     1.0000 0.27807  0.82058  0.39746  Biso   1.000  H
  C461     1.0000 0.33094  0.78143  0.37786  Biso   1.000  C
  O44      1.0000 0.22864  0.84467  0.46064  Biso   1.000  O
  C462     1.0000 0.15150  0.75643  0.58109  Biso   1.000  C
  C463     1.0000 0.25325  0.45370  0.34048  Biso   1.000  C
  H535     1.0000 0.22509  0.44781  0.26646  Biso   1.000  H
  H536     1.0000 0.25732  0.51276  0.31538  Biso   1.000  H
  C464     1.0000 0.17256  0.52795  0.25811  Biso   1.000  C
  C465     1.0000 0.09010  0.45643  0.24756  Biso   1.000  C
  C466     1.0000 0.04761  0.44802  0.34689  Biso   1.000  C
  C467     1.0000 0.07879  0.66961  0.57096  Biso   1.000  C
  H537     1.0000 0.10096  0.60017  0.54656  Biso   1.000  H
  C468     1.0000 0.22223  0.68339  0.29685  Biso   1.000  C
  C469     1.0000 0.18593  0.75438  0.32088  Biso   1.000  C
  H538     1.0000 0.32823  0.74178  0.36136  Biso   1.000  H
  H539     1.0000 0.35819  0.80456  0.41387  Biso   1.000  H
  C470     1.0000 0.34995  0.80479  0.34259  Biso   1.000  C
  C471     1.0000 0.17568  0.83696  0.44261  Biso   1.000  C
  C472     1.0000 0.09865  0.73018  0.58423  Biso   1.000  C
  H540     1.0000 0.16548  0.79530  0.59081  Biso   1.000  H
  C473     1.0000 0.30361  0.44189  0.33105  Biso   1.000  C
  H541     1.0000 0.22465  0.41815  0.33320  Biso   1.000  H
  H542     1.0000 0.26201  0.48284  0.37914  Biso   1.000  H
  H543     1.0000 0.21004  0.54916  0.27407  Biso   1.000  H
  C474     1.0000 0.14559  0.53830  0.22106  Biso   1.000  C
  O45      1.0000 0.06180  0.41266  0.25707  Biso   1.000  O
  C475     1.0000 0.06149  0.46439  0.21002  Biso   1.000  C
  C476     1.0000 0.02639  0.42394  0.28792  Biso   1.000  C
  C477     1.0000 0.01637  0.46036  0.38075  Biso   1.000  C
  N41      1.0000 0.02942  0.64536  0.57274  Biso   1.000  N
  C478     1.0000 0.17833  0.64252  0.24814  Biso   1.000  C
  H544     1.0000 0.24937  0.67229  0.30500  Biso   1.000  H
  C479     1.0000 0.14132  0.71607  0.27440  Biso   1.000  C
  O46      1.0000 0.19153  0.81210  0.35420  Biso   1.000  O
  H545     1.0000 0.32231  0.78224  0.30690  Biso   1.000  H
  H546     1.0000 0.35344  0.84472  0.35954  Biso   1.000  H
  C480     1.0000 0.40405  0.80373  0.33341  Biso   1.000  C
  C481     1.0000 0.15598  0.82028  0.38551  Biso   1.000  C
  C482     1.0000 0.14504  0.84887  0.47677  Biso   1.000  C
  N42      1.0000 0.06688  0.75814  0.59879  Biso   1.000  N
  C483     1.0000 0.29493  0.39259  0.27357  Biso   1.000  C
  H547     1.0000 0.31632  0.43280  0.35784  Biso   1.000  H
  H548     1.0000 0.33217  0.47729  0.33804  Biso   1.000  H
  C484     1.0000 0.08918  0.50546  0.19749  Biso   1.000  C
  C485     1.0000 0.17511  0.58311  0.20687  Biso   1.000  C
  H549     1.0000 0.02414  0.44242  0.19344  Biso   1.000  H
  C486     1.0000 0.97360  0.40966  0.26435  Biso   1.000  C
  H550     1.0000 0.03085  0.47695  0.41855  Biso   1.000  H
  C487     1.0000 0.96070  0.44753  0.35760  Biso   1.000  C
  Te21     1.0000 0.99673  0.70398  0.59590  Biso   1.000  Te
  C488     1.0000 0.13821  0.66077  0.23863  Biso   1.000  C
  H551     1.0000 0.11374  0.72709  0.26712  Biso   1.000  H
  H552     1.0000 0.39842  0.76349  0.30959  Biso   1.000  H
  H553     1.0000 0.42963  0.81882  0.36868  Biso   1.000  H
  C489     1.0000 0.42976  0.83841  0.30781  Biso   1.000  C
  H554     1.0000 0.40056  0.76376  0.31538  Biso   1.000  H
  H555     1.0000 0.43184  0.82577  0.36893  Biso   1.000  H
  C490     1.0000 0.42197  0.82902  0.29838  Biso   1.000  C
  C491     1.0000 0.10645  0.81668  0.36553  Biso   1.000  C
  C492     1.0000 0.09243  0.84544  0.45770  Biso   1.000  C
  H556     1.0000 0.15840  0.85950  0.51328  Biso   1.000  H
  C493     1.0000 0.34167  0.37237  0.26931  Biso   1.000  C
  H557     1.0000 0.26125  0.35969  0.26299  Biso   1.000  H
  H558     1.0000 0.29091  0.40537  0.24760  Biso   1.000  H
  O47      1.0000 0.06041  0.50999  0.15738  Biso   1.000  O
  H559     1.0000 0.15203  0.57158  0.17115  Biso   1.000  H
  C494     1.0000 0.22988  0.58327  0.19881  Biso   1.000  C
  C495     1.0000 0.93828  0.42121  0.29801  Biso   1.000  C
  H560     1.0000 0.96019  0.39237  0.22631  Biso   1.000  H
  N43      1.0000 0.92821  0.45840  0.38836  Biso   1.000  N
  O48      1.0000 0.09599  0.62286  0.18847  Biso   1.000  O
  H561     1.0000 0.40211  0.83038  0.27713  Biso   1.000  H
  H562     1.0000 0.45733  0.82634  0.29350  Biso   1.000  H
  C496     1.0000 0.45526  0.90281  0.34978  Biso   1.000  C
  H563     1.0000 0.39625  0.80417  0.26150  Biso   1.000  H
  H564     1.0000 0.42094  0.86711  0.31401  Biso   1.000  H
  C497     1.0000 0.47905  0.83533  0.29421  Biso   1.000  C
  C498     1.0000 0.07204  0.82770  0.39990  Biso   1.000  C
  H565     1.0000 0.09472  0.80702  0.32915  Biso   1.000  H
  N44      1.0000 0.06078  0.85721  0.48971  Biso   1.000  N
  H566     1.0000 0.34234  0.35447  0.29127  Biso   1.000  H
  H567     1.0000 0.37596  0.40624  0.28486  Biso   1.000  H
  C499     1.0000 0.33693  0.32923  0.21051  Biso   1.000  C
  C500     1.0000 0.02382  0.53575  0.17164  Biso   1.000  C
  H568     1.0000 0.25437  0.59501  0.23342  Biso   1.000  H
  H569     1.0000 0.22470  0.54401  0.17177  Biso   1.000  H
  C501     1.0000 0.25593  0.62463  0.17921  Biso   1.000  C
  N45      1.0000 0.88689  0.40937  0.27808  Biso   1.000  N
  Te22     1.0000 0.85387  0.43414  0.34048  Biso   1.000  Te
  C502     1.0000 0.04366  0.59682  0.18984  Biso   1.000  C
  C503     1.0000 0.48224  0.93989  0.32828  Biso   1.000  C
  H570     1.0000 0.48213  0.91014  0.38075  Biso   1.000  H
  H571     1.0000 0.42733  0.91438  0.36371  Biso   1.000  H
  H572     1.0000 0.47661  0.80201  0.26034  Biso   1.000  H
  H573     1.0000 0.49961  0.83641  0.32514  Biso   1.000  H
  C504     1.0000 0.50786  0.89079  0.29458  Biso   1.000  C
  N46      1.0000 0.02230  0.82195  0.38212  Biso   1.000  N
  Te23     1.0000 0.99002  0.84261  0.44455  Biso   1.000  Te
  H574     1.0000 0.36720  0.31837  0.21055  Biso   1.000  H
  H575     1.0000 0.30355  0.29505  0.19509  Biso   1.000  H
  H576     1.0000 0.33706  0.34686  0.18856  Biso   1.000  H
  C505     1.0000 0.97203  0.50502  0.16577  Biso   1.000  C
  H577     1.0000 0.23374  0.61017  0.14245  Biso   1.000  H
  H578     1.0000 0.25723  0.66284  0.20381  Biso   1.000  H
  C506     1.0000 0.31544  0.62993  0.17801  Biso   1.000  C
  H579     1.0000 0.27117  0.66423  0.21068  Biso   1.000  H
  H580     1.0000 0.22734  0.62141  0.15266  Biso   1.000  H
  C507     1.0000 0.30024  0.61492  0.15300  Biso   1.000  C
  C508     1.0000 0.01114  0.62599  0.20319  Biso   1.000  C
  H581     1.0000 0.49752  0.98020  0.35731  Biso   1.000  H
  H582     1.0000 0.45584  0.93378  0.29830  Biso   1.000  H
  H583     1.0000 0.51068  0.92954  0.31534  Biso   1.000  H
  H584     1.0000 0.51060  0.92369  0.32836  Biso   1.000  H
  H585     1.0000 0.54378  0.89448  0.29193  Biso   1.000  H
  H586     1.0000 0.48766  0.88932  0.26369  Biso   1.000  H
  C509     1.0000 0.93536  0.53330  0.17871  Biso   1.000  C
  H587     1.0000 0.95995  0.46550  0.15337  Biso   1.000  H
  H588     1.0000 0.33330  0.62780  0.20799  Biso   1.000  H
  H589     1.0000 0.33690  0.66675  0.18169  Biso   1.000  H
  C510     1.0000 0.30905  0.57762  0.12091  Biso   1.000  C
  H590     1.0000 0.31068  0.64197  0.14018  Biso   1.000  H
  H591     1.0000 0.33163  0.62648  0.18219  Biso   1.000  H
  C511     1.0000 0.29046  0.55544  0.10561  Biso   1.000  C
  H592     1.0000 0.02463  0.66553  0.21535  Biso   1.000  H
  C512     1.0000 0.95590  0.59530  0.19840  Biso   1.000  C
  N47      1.0000 0.88398  0.50583  0.17396  Biso   1.000  N
  H593     1.0000 0.29396  0.58263  0.09176  Biso   1.000  H
  H594     1.0000 0.28318  0.54181  0.11595  Biso   1.000  H
  C513     1.0000 0.36192  0.57139  0.11458  Biso   1.000  C
  C514     1.0000 0.33691  0.55241  0.07989  Biso   1.000  C
  H595     1.0000 0.28340  0.52847  0.11872  Biso   1.000  H
  H596     1.0000 0.25786  0.54205  0.07683  Biso   1.000  H
  N48      1.0000 0.92170  0.62069  0.21010  Biso   1.000  N
  Te24     1.0000 0.84906  0.56282  0.19741  Biso   1.000  Te
  H597     1.0000 0.38956  0.60892  0.12484  Biso   1.000  H
  H598     1.0000 0.37421  0.56036  0.13980  Biso   1.000  H
  C515     1.0000 0.35622  0.52639  0.05619  Biso   1.000  C
  H599     1.0000 0.39386  0.56237  0.14150  Biso   1.000  H
  H600     1.0000 0.40255  0.62159  0.14506  Biso   1.000  H
  H601     1.0000 0.33757  0.57078  0.05818  Biso   1.000  H
  H602     1.0000 0.32893  0.51171  0.05462  Biso   1.000  H
  C516     1.0000 0.39344  0.58090  0.12049  Biso   1.000  C
  H603     1.0000 0.39069  0.52416  0.05438  Biso   1.000  H
  H604     1.0000 0.34489  0.53761  0.03110  Biso   1.000  H
  H605     1.0000 0.32952  0.48901  0.04606  Biso   1.000  H
  H606     1.0000 0.41964  0.57681  0.10056  Biso   1.000  H
  C517     1.0000 0.50775  0.39928  0.79070  Biso   1.000  C
  C518     1.0000 0.48734  0.35586  0.80748  Biso   1.000  C
  C519     1.0000 0.47984  0.43929  0.81848  Biso   1.000  C
  H607     1.0000 0.54355  0.40343  0.78739  Biso   1.000  H
  H608     1.0000 0.48361  0.38611  0.75580  Biso   1.000  H
  H609     1.0000 0.50936  0.43616  0.81815  Biso   1.000  H
  H610     1.0000 0.51195  0.43260  0.81302  Biso   1.000  H
  C520     1.0000 0.43216  0.34500  0.81431  Biso   1.000  C
  C521     1.0000 0.43633  0.34467  0.81608  Biso   1.000  C
  H611     1.0000 0.46680  0.33627  0.80554  Biso   1.000  H
  H612     1.0000 0.48704  0.31917  0.78003  Biso   1.000  H
  H613     1.0000 0.51276  0.36915  0.84226  Biso   1.000  H
  C522     1.0000 0.45354  0.40937  0.84697  Biso   1.000  C
  H614     1.0000 0.48962  0.48043  0.84089  Biso   1.000  H
  H615     1.0000 0.45468  0.42387  0.78329  Biso   1.000  H
  C523     1.0000 0.41719  0.31700  0.84838  Biso   1.000  C
  H616     1.0000 0.40565  0.32010  0.77779  Biso   1.000  H
  H617     1.0000 0.42874  0.38193  0.83134  Biso   1.000  H
  H618     1.0000 0.40721  0.32719  0.78243  Biso   1.000  H
  H619     1.0000 0.47905  0.42618  0.88286  Biso   1.000  H
  H620     1.0000 0.42185  0.41743  0.85318  Biso   1.000  H
  C524     1.0000 0.36326  0.31638  0.85946  Biso   1.000  C
  H621     1.0000 0.44580  0.33848  0.88328  Biso   1.000  H
  H622     1.0000 0.41438  0.27731  0.82870  Biso   1.000  H
  H623     1.0000 0.44507  0.33735  0.88361  Biso   1.000  H
  C525     1.0000 0.34797  0.29194  0.89630  Biso   1.000  C
  H624     1.0000 0.33454  0.29321  0.82448  Biso   1.000  H
  H625     1.0000 0.36559  0.35594  0.87695  Biso   1.000  H
  C526     1.0000 0.29328  0.29288  0.90602  Biso   1.000  C
  H626     1.0000 0.37640  0.31502  0.93153  Biso   1.000  H
  H627     1.0000 0.34507  0.25216  0.87890  Biso   1.000  H
  C527     1.0000 0.24558  0.25148  0.85256  Biso   1.000  C
  H628     1.0000 0.29614  0.33247  0.91834  Biso   1.000  H
  C528     1.0000 0.27948  0.28019  0.95068  Biso   1.000  C
  C529     1.0000 0.24018  0.19587  0.81460  Biso   1.000  C
  C530     1.0000 0.20532  0.26848  0.83982  Biso   1.000  C
  C531     1.0000 0.28966  0.23823  0.95779  Biso   1.000  C
  C532     1.0000 0.25326  0.30989  0.98467  Biso   1.000  C
  C533     1.0000 0.19857  0.15791  0.76564  Biso   1.000  C
  H629     1.0000 0.26630  0.18356  0.82278  Biso   1.000  H
  C534     1.0000 0.16162  0.23120  0.79127  Biso   1.000  C
  O49      1.0000 0.21149  0.32570  0.87426  Biso   1.000  O
  H630     1.0000 0.30628  0.21728  0.93463  Biso   1.000  H
  C535     1.0000 0.27608  0.22601  0.99836  Biso   1.000  C
  O50      1.0000 0.24649  0.35589  0.98153  Biso   1.000  O
  C536     1.0000 0.23909  0.29973  0.02552  Biso   1.000  C
  C537     1.0000 0.19546  0.09839  0.72226  Biso   1.000  C
  C538     1.0000 0.15861  0.17659  0.75542  Biso   1.000  C
  H631     1.0000 0.13499  0.24301  0.78334  Biso   1.000  H
  C539     1.0000 0.17552  0.33370  0.90532  Biso   1.000  C
  C540     1.0000 0.25039  0.25792  0.03168  Biso   1.000  C
  C541     1.0000 0.28672  0.18008  0.00617  Biso   1.000  C
  C542     1.0000 0.19390  0.34899  0.96226  Biso   1.000  C
  H632     1.0000 0.22226  0.32058  0.04843  Biso   1.000  H
  C543     1.0000 0.25308  0.10093  0.71949  Biso   1.000  C
  C544     1.0000 0.16260  0.05149  0.73210  Biso   1.000  C
  H633     1.0000 0.17544  0.08924  0.68620  Biso   1.000  H
  O51      1.0000 0.11752  0.13947  0.70432  Biso   1.000  O
  C545     1.0000 0.12653  0.33036  0.88390  Biso   1.000  C
  O52      1.0000 0.24042  0.25062  0.07551  Biso   1.000  O
  C546     1.0000 0.23840  0.12100  0.96887  Biso   1.000  C
  C547     1.0000 0.34193  0.17755  0.99980  Biso   1.000  C
  H634     1.0000 0.28801  0.19080  0.04434  Biso   1.000  H
  C548     1.0000 0.16285  0.36143  0.99616  Biso   1.000  C
  C549     1.0000 0.28102  0.14137  0.70059  Biso   1.000  C
  H635     1.0000 0.27530  0.11406  0.75580  Biso   1.000  H
  H636     1.0000 0.24999  0.06202  0.69423  Biso   1.000  H
  C550     1.0000 0.18634  0.03958  0.76923  Biso   1.000  C
  C551     1.0000 0.10661  0.01833  0.70489  Biso   1.000  C
  C552     1.0000 0.06453  0.11181  0.70233  Biso   1.000  C
  C553     1.0000 0.09089  0.34043  0.91764  Biso   1.000  C
  H637     1.0000 0.11592  0.32160  0.84768  Biso   1.000  H
  C554     1.0000 0.18709  0.22565  0.07427  Biso   1.000  C
  C555     1.0000 0.23380  0.08243  0.91392  Biso   1.000  C
  C556     1.0000 0.19573  0.10262  0.98880  Biso   1.000  C
  H638     1.0000 0.34033  0.16114  0.96110  Biso   1.000  H
  H639     1.0000 0.37042  0.21688  0.02052  Biso   1.000  H
  C557     1.0000 0.35621  0.14035  0.02052  Biso   1.000  C
  C558     1.0000 0.10915  0.35610  0.97499  Biso   1.000  C
  H640     1.0000 0.17604  0.37344  0.03309  Biso   1.000  H
  C559     1.0000 0.33823  0.14698  0.69968  Biso   1.000  C
  H641     1.0000 0.25935  0.12713  0.66367  Biso   1.000  H
  H642     1.0000 0.28240  0.17974  0.72487  Biso   1.000  H
  H643     1.0000 0.22352  0.06095  0.78751  Biso   1.000  H
  C560     1.0000 0.15785  0.99770  0.78069  Biso   1.000  C
  O53      1.0000 0.08044  0.02422  0.66400  Biso   1.000  O
  C561     1.0000 0.07624  0.97574  0.71453  Biso   1.000  C
  C562     1.0000 0.04345  0.04942  0.67760  Biso   1.000  C
  C563     1.0000 0.03231  0.14079  0.71846  Biso   1.000  C
  N49      1.0000 0.04114  0.33462  0.89783  Biso   1.000  N
  C564     1.0000 0.16636  0.16516  0.05844  Biso   1.000  C
  C565     1.0000 0.15719  0.25724  0.09156  Biso   1.000  C
  C566     1.0000 0.18975  0.02888  0.87972  Biso   1.000  C
  H644     1.0000 0.26163  0.09323  0.89974  Biso   1.000  H
  C567     1.0000 0.15099  0.05063  0.95601  Biso   1.000  C
  O54      1.0000 0.20128  0.13703  0.04500  Biso   1.000  O
  C568     1.0000 0.39464  0.12828  0.98091  Biso   1.000  C
  H645     1.0000 0.35852  0.15808  0.05939  Biso   1.000  H
  H646     1.0000 0.32601  0.10220  0.00113  Biso   1.000  H
  C569     1.0000 0.40843  0.13132  0.01452  Biso   1.000  C
  H647     1.0000 0.32514  0.10544  0.01097  Biso   1.000  H
  H648     1.0000 0.37593  0.16224  0.05964  Biso   1.000  H
  N50      1.0000 0.07579  0.36487  0.00514  Biso   1.000  N
  C570     1.0000 0.36724  0.16509  0.66780  Biso   1.000  C
  C571     1.0000 0.33633  0.11118  0.64291  Biso   1.000  C
  H649     1.0000 0.36214  0.18744  0.71432  Biso   1.000  H
  H650     1.0000 0.36108  0.17354  0.73785  Biso   1.000  H
  H651     1.0000 0.33796  0.10910  0.68959  Biso   1.000  H
  H652     1.0000 0.35220  0.13407  0.72243  Biso   1.000  H
  C572     1.0000 0.10155  0.96645  0.75249  Biso   1.000  C
  C573     1.0000 0.18553  0.98564  0.82059  Biso   1.000  C
  H653     1.0000 0.03925  0.95372  0.69559  Biso   1.000  H
  C574     1.0000 0.99057  0.01753  0.66681  Biso   1.000  C
  H654     1.0000 0.04678  0.18122  0.73570  Biso   1.000  H
  C575     1.0000 0.97601  0.10884  0.70878  Biso   1.000  C
  Te25     1.0000 0.00577  0.35139  0.95800  Biso   1.000  Te
  C576     1.0000 0.11687  0.13828  0.06146  Biso   1.000  C
  C577     1.0000 0.10360  0.23028  0.09321  Biso   1.000  C
  H655     1.0000 0.17145  0.29644  0.10235  Biso   1.000  H
  C578     1.0000 0.14801  0.01459  0.90193  Biso   1.000  C
  H656     1.0000 0.12300  0.03978  0.97003  Biso   1.000  H
  C579     1.0000 0.40054  0.08737  0.95378  Biso   1.000  C
  H657     1.0000 0.39038  0.10182  0.93091  Biso   1.000  H
  C580     1.0000 0.42014  0.08816  0.98459  Biso   1.000  C
  H658     1.0000 0.37321  0.11048  0.94295  Biso   1.000  H
  H659     1.0000 0.42348  0.16511  0.99133  Biso   1.000  H
  H660     1.0000 0.41794  0.11689  0.03764  Biso   1.000  H
  H661     1.0000 0.43808  0.16831  0.02660  Biso   1.000  H
  C581     1.0000 0.33411  0.12266  0.59999  Biso   1.000  C
  C582     1.0000 0.39762  0.12018  0.64370  Biso   1.000  C
  H662     1.0000 0.34244  0.16142  0.63778  Biso   1.000  H
  H663     1.0000 0.39383  0.20518  0.69067  Biso   1.000  H
  H664     1.0000 0.36798  0.10224  0.64556  Biso   1.000  H
  H665     1.0000 0.30498  0.07469  0.62844  Biso   1.000  H
  O55      1.0000 0.07037  0.92180  0.76006  Biso   1.000  O
  C583     1.0000 0.23951  0.98123  0.81364  Biso   1.000  C
  H666     1.0000 0.16079  0.94716  0.81220  Biso   1.000  H
  H667     1.0000 0.97772  0.97718  0.64953  Biso   1.000  H
  C584     1.0000 0.95378  0.04517  0.68166  Biso   1.000  C
  N51      1.0000 0.94260  0.13457  0.72247  Biso   1.000  N
  C585     1.0000 0.08261  0.16897  0.07771  Biso   1.000  C
  H668     1.0000 0.10507  0.09987  0.05298  Biso   1.000  H
  N52      1.0000 0.07174  0.25837  0.10793  Biso   1.000  N
  O56      1.0000 0.10517  0.95931  0.86864  Biso   1.000  O
  C586     1.0000 0.45337  0.07622  0.94439  Biso   1.000  C
  H669     1.0000 0.37075  0.05059  0.94204  Biso   1.000  H
  H670     1.0000 0.39173  0.05166  0.97565  Biso   1.000  H
  H671     1.0000 0.44348  0.10661  0.02197  Biso   1.000  H
  C587     1.0000 0.37813  0.13238  0.57439  Biso   1.000  C
  H672     1.0000 0.32621  0.15694  0.61301  Biso   1.000  H
  H673     1.0000 0.30222  0.09056  0.56989  Biso   1.000  H
  C588     1.0000 0.38691  0.08766  0.58680  Biso   1.000  C
  H674     1.0000 0.43662  0.14300  0.66007  Biso   1.000  H
  H675     1.0000 0.38754  0.09320  0.65664  Biso   1.000  H
  C589     1.0000 0.03462  0.93347  0.79012  Biso   1.000  C
  H676     1.0000 0.26748  0.01985  0.82799  Biso   1.000  H
  H677     1.0000 0.23542  0.95772  0.77465  Biso   1.000  H
  C590     1.0000 0.25684  0.95384  0.84416  Biso   1.000  C
  N53      1.0000 0.90082  0.01671  0.67252  Biso   1.000  N
  Te26     1.0000 0.86730  0.07503  0.70163  Biso   1.000  Te
  N54      1.0000 0.03293  0.14411  0.07857  Biso   1.000  N
  Te27     1.0000 0.00058  0.20316  0.10252  Biso   1.000  Te
  C591     1.0000 0.05416  0.95530  0.84892  Biso   1.000  C
  C592     1.0000 0.50071  0.13105  0.95597  Biso   1.000  C
  H678     1.0000 0.46452  0.06335  0.96838  Biso   1.000  H
  H679     1.0000 0.44475  0.04531  0.90643  Biso   1.000  H
  H680     1.0000 0.42939  0.05734  0.90718  Biso   1.000  H
  H681     1.0000 0.46787  0.04929  0.94563  Biso   1.000  H
  H682     1.0000 0.39788  0.11344  0.57315  Biso   1.000  H
  H683     1.0000 0.36649  0.13943  0.54599  Biso   1.000  H
  H684     1.0000 0.41028  0.16561  0.60214  Biso   1.000  H
  H685     1.0000 0.38607  0.09855  0.55860  Biso   1.000  H
  H686     1.0000 0.40687  0.06353  0.57828  Biso   1.000  H
  H687     1.0000 0.34861  0.06342  0.56972  Biso   1.000  H
  C593     1.0000 0.98283  0.92083  0.76589  Biso   1.000  C
  H688     1.0000 0.22687  0.91717  0.83221  Biso   1.000  H
  H689     1.0000 0.26342  0.97934  0.88340  Biso   1.000  H
  C594     1.0000 0.30787  0.94232  0.83581  Biso   1.000  C
  C595     1.0000 0.02147  0.96652  0.88162  Biso   1.000  C
  H690     1.0000 0.48793  0.14817  0.93769  Biso   1.000  H
  H691     1.0000 0.52892  0.12065  0.94253  Biso   1.000  H
  H692     1.0000 0.51490  0.15856  0.99513  Biso   1.000  H
  C596     1.0000 0.94643  0.93133  0.79863  Biso   1.000  C
  H693     1.0000 0.97066  0.90535  0.72801  Biso   1.000  H
  C597     1.0000 0.30313  0.90081  0.77631  Biso   1.000  C
  H694     1.0000 0.33826  0.97931  0.84950  Biso   1.000  H
  H695     1.0000 0.31619  0.92652  0.85805  Biso   1.000  H
  C598     1.0000 0.96696  0.95548  0.85781  Biso   1.000  C
  H696     1.0000 0.03457  0.98128  0.91929  Biso   1.000  H
  N55      1.0000 0.89530  0.91974  0.77734  Biso   1.000  N
  H697     1.0000 0.30478  0.92077  0.75609  Biso   1.000  H
  H698     1.0000 0.26793  0.86793  0.75939  Biso   1.000  H
  C599     1.0000 0.34774  0.87798  0.77118  Biso   1.000  C
  N56      1.0000 0.93285  0.96483  0.88717  Biso   1.000  N
  Te28     1.0000 0.85981  0.94175  0.83829  Biso   1.000  Te
  H699     1.0000 0.38282  0.91094  0.79272  Biso   1.000  H
  H700     1.0000 0.34293  0.85361  0.78710  Biso   1.000  H
  C600     1.0000 0.34855  0.84357  0.71287  Biso   1.000  C
  H701     1.0000 0.31418  0.81056  0.69129  Biso   1.000  H
  H702     1.0000 0.37718  0.83026  0.71292  Biso   1.000  H
  H703     1.0000 0.35487  0.86781  0.69724  Biso   1.000  H
  C601     1.0000 0.49237  0.60074  0.20931  Biso   1.000  C
  C602     1.0000 0.52023  0.56071  0.18149  Biso   1.000  C
  H704     1.0000 0.49069  0.56380  0.18182  Biso   1.000  H
  H705     1.0000 0.48810  0.56736  0.18694  Biso   1.000  H
  H706     1.0000 0.45655  0.59657  0.21258  Biso   1.000  H
  H707     1.0000 0.51650  0.61388  0.24417  Biso   1.000  H
  C603     1.0000 0.51275  0.64410  0.19248  Biso   1.000  C
  C604     1.0000 0.54651  0.59059  0.15300  Biso   1.000  C
  H708     1.0000 0.51045  0.51955  0.15911  Biso   1.000  H
  H709     1.0000 0.54540  0.57615  0.21672  Biso   1.000  H
  C605     1.0000 0.56795  0.65502  0.18570  Biso   1.000  C
  C606     1.0000 0.56373  0.65532  0.18388  Biso   1.000  C
  H710     1.0000 0.51305  0.68079  0.21994  Biso   1.000  H
  H711     1.0000 0.48732  0.63087  0.15775  Biso   1.000  H
  H712     1.0000 0.53327  0.66372  0.19443  Biso   1.000  H
  H713     1.0000 0.57135  0.61803  0.16863  Biso   1.000  H
  H714     1.0000 0.52105  0.57382  0.11710  Biso   1.000  H
  H715     1.0000 0.57821  0.58255  0.14683  Biso   1.000  H
  C607     1.0000 0.58292  0.68302  0.15163  Biso   1.000  C
  H716     1.0000 0.59445  0.67989  0.22217  Biso   1.000  H
  H717     1.0000 0.59289  0.67279  0.21758  Biso   1.000  H
  C608     1.0000 0.63680  0.68362  0.14051  Biso   1.000  C
  H718     1.0000 0.55427  0.66151  0.11673  Biso   1.000  H
  H719     1.0000 0.58570  0.72271  0.17131  Biso   1.000  H
  H720     1.0000 0.55500  0.66263  0.11640  Biso   1.000  H
  C609     1.0000 0.65209  0.70804  0.10371  Biso   1.000  C
  H721     1.0000 0.66553  0.70681  0.17553  Biso   1.000  H
  H722     1.0000 0.63451  0.64404  0.12306  Biso   1.000  H
  H723     1.0000 0.62367  0.68496  0.06848  Biso   1.000  H
  H724     1.0000 0.65503  0.74782  0.12111  Biso   1.000  H
  C610     1.0000 0.70678  0.70708  0.09395  Biso   1.000  C
  H725     1.0000 0.70396  0.66752  0.08162  Biso   1.000  H
  C611     1.0000 0.72060  0.71983  0.04933  Biso   1.000  C
  C612     1.0000 0.75451  0.74848  0.14741  Biso   1.000  C
  C613     1.0000 0.71040  0.76176  0.04218  Biso   1.000  C
  C614     1.0000 0.74683  0.69007  0.01530  Biso   1.000  C
  C615     1.0000 0.75988  0.80409  0.18537  Biso   1.000  C
  C616     1.0000 0.79477  0.73148  0.16015  Biso   1.000  C
  H726     1.0000 0.69382  0.78272  0.06533  Biso   1.000  H
  C617     1.0000 0.72403  0.77401  0.00165  Biso   1.000  C
  O57      1.0000 0.75357  0.64407  0.01844  Biso   1.000  O
  C618     1.0000 0.76099  0.70029  0.97449  Biso   1.000  C
  C619     1.0000 0.80154  0.84207  0.23437  Biso   1.000  C
  H727     1.0000 0.73377  0.81646  0.17723  Biso   1.000  H
  O58      1.0000 0.78863  0.67432  0.12575  Biso   1.000  O
  C620     1.0000 0.83845  0.76880  0.20869  Biso   1.000  C
  C621     1.0000 0.74968  0.74206  0.96833  Biso   1.000  C
  C622     1.0000 0.71338  0.81991  0.99380  Biso   1.000  C
  C623     1.0000 0.80620  0.65099  0.03775  Biso   1.000  C
  H728     1.0000 0.77780  0.67940  0.95158  Biso   1.000  H
  C624     1.0000 0.84146  0.82339  0.24459  Biso   1.000  C
  C625     1.0000 0.80462  0.90163  0.27775  Biso   1.000  C
  C626     1.0000 0.82458  0.66628  0.09469  Biso   1.000  C
  H729     1.0000 0.86511  0.75698  0.21667  Biso   1.000  H
  O59      1.0000 0.75970  0.74940  0.92449  Biso   1.000  O
  C627     1.0000 0.76166  0.87899  0.03114  Biso   1.000  C
  C628     1.0000 0.65813  0.82243  0.00021  Biso   1.000  C
  H730     1.0000 0.71206  0.80918  0.95567  Biso   1.000  H
  C629     1.0000 0.83723  0.63859  0.00385  Biso   1.000  C
  O60      1.0000 0.88255  0.86055  0.29569  Biso   1.000  O
  C630     1.0000 0.83746  0.94849  0.26791  Biso   1.000  C
  H731     1.0000 0.82466  0.91075  0.31376  Biso   1.000  H
  C631     1.0000 0.74701  0.89903  0.28048  Biso   1.000  C
  C632     1.0000 0.87358  0.66964  0.11607  Biso   1.000  C
  C633     1.0000 0.81296  0.77431  0.92569  Biso   1.000  C
  C634     1.0000 0.76627  0.91757  0.08605  Biso   1.000  C
  C635     1.0000 0.80437  0.89737  0.01116  Biso   1.000  C
  H732     1.0000 0.65973  0.83882  0.03887  Biso   1.000  H
  H733     1.0000 0.62970  0.78314  0.97949  Biso   1.000  H
  C636     1.0000 0.64391  0.85967  0.97949  Biso   1.000  C
  C637     1.0000 0.89096  0.64390  0.02498  Biso   1.000  C
  H734     1.0000 0.82401  0.62651  0.96688  Biso   1.000  H
  C638     1.0000 0.93556  0.88815  0.29764  Biso   1.000  C
  C639     1.0000 0.81372  0.96041  0.23073  Biso   1.000  C
  C640     1.0000 0.89345  0.98166  0.29512  Biso   1.000  C
  H735     1.0000 0.72475  0.88590  0.24417  Biso   1.000  H
  H736     1.0000 0.75011  0.93798  0.30574  Biso   1.000  H
  C641     1.0000 0.71905  0.85861  0.29942  Biso   1.000  C
  C642     1.0000 0.90919  0.65959  0.08237  Biso   1.000  C
  H737     1.0000 0.88415  0.67839  0.15229  Biso   1.000  H
  C643     1.0000 0.83374  0.83483  0.94153  Biso   1.000  C
  C644     1.0000 0.84286  0.74272  0.90841  Biso   1.000  C
  C645     1.0000 0.81036  0.97113  0.12029  Biso   1.000  C
  H738     1.0000 0.73846  0.90673  0.10023  Biso   1.000  H
  C646     1.0000 0.84907  0.94933  0.04396  Biso   1.000  C
  O61      1.0000 0.79878  0.86293  0.95497  Biso   1.000  O
  C647     1.0000 0.60544  0.87174  0.01910  Biso   1.000  C
  H739     1.0000 0.64153  0.84188  0.94058  Biso   1.000  H
  H740     1.0000 0.67405  0.89780  0.99884  Biso   1.000  H
  C648     1.0000 0.59167  0.86866  0.98549  Biso   1.000  C
  H741     1.0000 0.67492  0.89455  0.98900  Biso   1.000  H
  H742     1.0000 0.62417  0.83774  0.94037  Biso   1.000  H
  N57      1.0000 0.92431  0.63511  0.99487  Biso   1.000  N
  C649     1.0000 0.95665  0.95056  0.32241  Biso   1.000  C
  C650     1.0000 0.96775  0.85919  0.28155  Biso   1.000  C
  H743     1.0000 0.77657  0.93901  0.21246  Biso   1.000  H
  C651     1.0000 0.84222  0.00232  0.21932  Biso   1.000  C
  O62      1.0000 0.91963  0.97577  0.33601  Biso   1.000  O
  C652     1.0000 0.92384  0.02428  0.28548  Biso   1.000  C
  H744     1.0000 0.74075  0.87285  0.33634  Biso   1.000  H
  H745     1.0000 0.71766  0.82025  0.27510  Biso   1.000  H
  C653     1.0000 0.66184  0.85301  0.30028  Biso   1.000  C
  N58      1.0000 0.95894  0.66540  0.10218  Biso   1.000  N
  C654     1.0000 0.88319  0.86170  0.93855  Biso   1.000  C
  C655     1.0000 0.89645  0.76968  0.90676  Biso   1.000  C
  H746     1.0000 0.82862  0.70356  0.89762  Biso   1.000  H
  C656     1.0000 0.85208  0.98537  0.09804  Biso   1.000  C
  C657     1.0000 0.81456  0.01432  0.17938  Biso   1.000  C
  H747     1.0000 0.87709  0.96018  0.02994  Biso   1.000  H
  C658     1.0000 0.59956  0.91262  0.04619  Biso   1.000  C
  H748     1.0000 0.60972  0.89816  0.06910  Biso   1.000  H
  C659     1.0000 0.57995  0.91180  0.01538  Biso   1.000  C
  H749     1.0000 0.62684  0.88948  0.05702  Biso   1.000  H
  H750     1.0000 0.57664  0.83491  0.00868  Biso   1.000  H
  H751     1.0000 0.58213  0.88309  0.96237  Biso   1.000  H
  H752     1.0000 0.56200  0.83170  0.97341  Biso   1.000  H
  Te29     1.0000 0.99433  0.64860  0.04201  Biso   1.000  Te
  C660     1.0000 0.00949  0.98245  0.33320  Biso   1.000  C
  H753     1.0000 0.95332  0.81876  0.26431  Biso   1.000  H
  C661     1.0000 0.02407  0.89118  0.29123  Biso   1.000  C
  C662     1.0000 0.89855  0.03355  0.24748  Biso   1.000  C
  H754     1.0000 0.96082  0.04627  0.30442  Biso   1.000  H
  H755     1.0000 0.63899  0.82645  0.26216  Biso   1.000  H
  H756     1.0000 0.66210  0.89088  0.31041  Biso   1.000  H
  C663     1.0000 0.63288  0.83493  0.33221  Biso   1.000  C
  H757     1.0000 0.63792  0.81254  0.28569  Biso   1.000  H
  H758     1.0000 0.64789  0.86589  0.27754  Biso   1.000  H
  C664     1.0000 0.66377  0.88880  0.35710  Biso   1.000  C
  C665     1.0000 0.91749  0.83102  0.92230  Biso   1.000  C
  H759     1.0000 0.89503  0.90011  0.94703  Biso   1.000  H
  N59      1.0000 0.92835  0.74159  0.89204  Biso   1.000  N
  O63      1.0000 0.89490  0.04067  0.13137  Biso   1.000  O
  C666     1.0000 0.76056  0.01876  0.18636  Biso   1.000  C
  H760     1.0000 0.83931  0.05282  0.18781  Biso   1.000  H
  C667     1.0000 0.54669  0.92376  0.05562  Biso   1.000  C
  H761     1.0000 0.62932  0.94940  0.05793  Biso   1.000  H
  H762     1.0000 0.60836  0.94830  0.02431  Biso   1.000  H
  H763     1.0000 0.55662  0.89339  0.97800  Biso   1.000  H
  C668     1.0000 0.04627  0.95479  0.31831  Biso   1.000  C
  H764     1.0000 0.02234  0.02278  0.35044  Biso   1.000  H
  N60      1.0000 0.05745  0.86539  0.27750  Biso   1.000  N
  O64      1.0000 0.92970  0.07818  0.23995  Biso   1.000  O
  H765     1.0000 0.60624  0.79481  0.30930  Biso   1.000  H
  H766     1.0000 0.65763  0.83858  0.36218  Biso   1.000  H
  C669     1.0000 0.60246  0.87984  0.35631  Biso   1.000  C
  C670     1.0000 0.66595  0.87730  0.39998  Biso   1.000  C
  H767     1.0000 0.63208  0.89774  0.35445  Biso   1.000  H
  H768     1.0000 0.69509  0.92529  0.37157  Biso   1.000  H
  N61      1.0000 0.96714  0.85589  0.92139  Biso   1.000  N
  Te30     1.0000 0.99952  0.79682  0.89749  Biso   1.000  Te
  C671     1.0000 0.94589  0.04466  0.15105  Biso   1.000  C
  H769     1.0000 0.73259  0.98015  0.17197  Biso   1.000  H
  H770     1.0000 0.76468  0.04227  0.22532  Biso   1.000  H
  C672     1.0000 0.74326  0.04616  0.15581  Biso   1.000  C
  C673     1.0000 0.49938  0.86891  0.04400  Biso   1.000  C
  H771     1.0000 0.53555  0.93663  0.03163  Biso   1.000  H
  H772     1.0000 0.55531  0.95467  0.09358  Biso   1.000  H
  H773     1.0000 0.57071  0.94266  0.09279  Biso   1.000  H
  H774     1.0000 0.53222  0.95067  0.05433  Biso   1.000  H
  N62      1.0000 0.09927  0.98325  0.32745  Biso   1.000  N
  Te31     1.0000 0.13277  0.92497  0.29834  Biso   1.000  Te
  C674     1.0000 0.96547  0.06649  0.20985  Biso   1.000  C
  H775     1.0000 0.56344  0.85698  0.33994  Biso   1.000  H
  H776     1.0000 0.61253  0.90678  0.34337  Biso   1.000  H
  C675     1.0000 0.61316  0.91232  0.41321  Biso   1.000  C
  H777     1.0000 0.67389  0.84304  0.38700  Biso   1.000  H
  H778     1.0000 0.69784  0.90944  0.43008  Biso   1.000  H
  C676     1.0000 0.62196  0.86758  0.42557  Biso   1.000  C
  C677     1.0000 0.97864  0.03347  0.11839  Biso   1.000  C
  H779     1.0000 0.77324  0.08285  0.16780  Biso   1.000  H
  H780     1.0000 0.73663  0.02062  0.11657  Biso   1.000  H
  C678     1.0000 0.69225  0.05770  0.16420  Biso   1.000  C
  H781     1.0000 0.51217  0.85181  0.06231  Biso   1.000  H
  H782     1.0000 0.47114  0.87935  0.05744  Biso   1.000  H
  H783     1.0000 0.48519  0.84140  0.00484  Biso   1.000  H
  C679     1.0000 0.01722  0.07913  0.23408  Biso   1.000  C
  H784     1.0000 0.59319  0.93645  0.42173  Biso   1.000  H
  H785     1.0000 0.65148  0.93654  0.43025  Biso   1.000  H
  H786     1.0000 0.60219  0.88656  0.42682  Biso   1.000  H
  H787     1.0000 0.61401  0.90147  0.44141  Biso   1.000  H
  H788     1.0000 0.63361  0.86057  0.45398  Biso   1.000  H
  H789     1.0000 0.58981  0.83435  0.39783  Biso   1.000  H
  H790     1.0000 0.96554  0.01870  0.08072  Biso   1.000  H
  C680     1.0000 0.03314  0.04450  0.14220  Biso   1.000  C
  C681     1.0000 0.69695  0.09921  0.22370  Biso   1.000  C
  H791     1.0000 0.66180  0.02069  0.15047  Biso   1.000  H
  H792     1.0000 0.68386  0.07344  0.14191  Biso   1.000  H
  C682     1.0000 0.05367  0.06865  0.20137  Biso   1.000  C
  H793     1.0000 0.02944  0.09464  0.27196  Biso   1.000  H
  N63      1.0000 0.06727  0.03519  0.11284  Biso   1.000  N
  H794     1.0000 0.69533  0.07925  0.24392  Biso   1.000  H
  H795     1.0000 0.73215  0.13209  0.24062  Biso   1.000  H
  C683     1.0000 0.65231  0.12198  0.22879  Biso   1.000  C
  N64      1.0000 0.10476  0.08024  0.22267  Biso   1.000  N
  Te32     1.0000 0.14026  0.05825  0.16168  Biso   1.000  Te
  H796     1.0000 0.61724  0.08905  0.20725  Biso   1.000  H
  H797     1.0000 0.65718  0.14639  0.21287  Biso   1.000  H
  C684     1.0000 0.65150  0.15638  0.28709  Biso   1.000  C
  H798     1.0000 0.68589  0.18944  0.30868  Biso   1.000  H
  H799     1.0000 0.62291  0.16970  0.28705  Biso   1.000  H
  H800     1.0000 0.64520  0.13217  0.30276  Biso   1.000  H
