data_image0
_cell_length_a       32.301
_cell_length_b       9.597
_cell_length_c       29.125
_cell_angle_alpha    90
_cell_angle_beta     90
_cell_angle_gamma    90

_symmetry_space_group_name_H-M    "P 1"
_symmetry_int_tables_number       1

loop_
  _symmetry_equiv_pos_as_xyz
  'x, y, z'

loop_
  _atom_site_label
  _atom_site_occupancy
  _atom_site_fract_x
  _atom_site_fract_y
  _atom_site_fract_z
  _atom_site_thermal_displace_type
  _atom_site_B_iso_or_equiv
  _atom_site_type_symbol
  C1       1.0000 0.74849  0.31103  0.37421  Biso   1.000  C
  C2       1.0000 0.78768  0.27175  0.35760  Biso   1.000  C
  C3       1.0000 0.77360  0.18610  0.39300  Biso   1.000  C
  H1       1.0000 0.72858  0.31927  0.35131  Biso   1.000  H
  H2       1.0000 0.74248  0.28509  0.40288  Biso   1.000  H
  H3       1.0000 0.73858  0.28926  0.34321  Biso   1.000  H
  H4       1.0000 0.72481  0.32875  0.39440  Biso   1.000  H
  H5       1.0000 0.76629  0.39366  0.37312  Biso   1.000  H
  C4       1.0000 0.81459  0.15661  0.37669  Biso   1.000  C
  C5       1.0000 0.80799  0.15703  0.35712  Biso   1.000  C
  H6       1.0000 0.78960  0.27123  0.32371  Biso   1.000  H
  H7       1.0000 0.79830  0.36261  0.36858  Biso   1.000  H
  C6       1.0000 0.74570  0.25800  0.37061  Biso   1.000  C
  H8       1.0000 0.80651  0.13515  0.40869  Biso   1.000  H
  H9       1.0000 0.78589  0.20934  0.42311  Biso   1.000  H
  H10      1.0000 0.75549  0.10347  0.39670  Biso   1.000  H
  C7       1.0000 0.85880  0.20798  0.37500  Biso   1.000  C
  C8       1.0000 0.84521  0.25112  0.36409  Biso   1.000  C
  H11      1.0000 0.81149  0.07096  0.35801  Biso   1.000  H
  H12      1.0000 0.81691  0.05814  0.35959  Biso   1.000  H
  H13      1.0000 0.79679  0.17089  0.32580  Biso   1.000  H
  H14      1.0000 0.73679  0.16151  0.36649  Biso   1.000  H
  C9       1.0000 0.88034  0.20767  0.33088  Biso   1.000  C
  H15      1.0000 0.87521  0.15078  0.39670  Biso   1.000  H
  H16      1.0000 0.85898  0.30468  0.38682  Biso   1.000  H
  H17      1.0000 0.85499  0.24393  0.39629  Biso   1.000  H
  H18      1.0000 0.83719  0.34907  0.35821  Biso   1.000  H
  C10      1.0000 0.92232  0.27811  0.33652  Biso   1.000  C
  H19      1.0000 0.88418  0.11066  0.32021  Biso   1.000  H
  H20      1.0000 0.86369  0.25821  0.30781  Biso   1.000  H
  H21      1.0000 0.87069  0.22497  0.29919  Biso   1.000  H
  H22      1.0000 0.88449  0.10597  0.33411  Biso   1.000  H
  C11      1.0000 0.92047  0.43847  0.33720  Biso   1.000  C
  H23      1.0000 0.93499  0.24560  0.36549  Biso   1.000  H
  H24      1.0000 0.94059  0.24831  0.31100  Biso   1.000  H
  C12      1.0000 0.90332  0.49703  0.29181  Biso   1.000  C
  C13      1.0000 0.96204  0.50485  0.34860  Biso   1.000  C
  H25      1.0000 0.90068  0.46587  0.36199  Biso   1.000  H
  C14      1.0000 0.91886  0.45420  0.24999  Biso   1.000  C
  C15      1.0000 0.87065  0.59300  0.29171  Biso   1.000  C
  C16      1.0000 0.96254  0.63259  0.37116  Biso   1.000  C
  C17      1.0000 0.00000  0.44556  0.33809  Biso   1.000  C
  C18      1.0000 0.90332  0.49703  0.20821  Biso   1.000  C
  H26      1.0000 0.94158  0.39137  0.24999  Biso   1.000  H
  C19      1.0000 0.85440  0.64218  0.24999  Biso   1.000  C
  O1       1.0000 0.85273  0.63197  0.33281  Biso   1.000  O
  O2       1.0000 0.92588  0.69324  0.38520  Biso   1.000  O
  C20      1.0000 0.00000  0.69845  0.38180  Biso   1.000  C
  C21      1.0000 0.03792  0.50485  0.34860  Biso   1.000  C
  H27      1.0000 0.00000  0.35834  0.32271  Biso   1.000  H
  C22      1.0000 0.92047  0.43847  0.16282  Biso   1.000  C
  C23      1.0000 0.87065  0.59300  0.20827  Biso   1.000  C
  C24      1.0000 0.82038  0.73929  0.24999  Biso   1.000  C
  C25      1.0000 0.86276  0.76868  0.34953  Biso   1.000  C
  C26      1.0000 0.90880  0.79337  0.35403  Biso   1.000  C
  C27      1.0000 0.00000  0.83380  0.40350  Biso   1.000  C
  C28      1.0000 0.03746  0.63259  0.37116  Biso   1.000  C
  C29      1.0000 0.07953  0.43847  0.33720  Biso   1.000  C
  C30      1.0000 0.92232  0.27811  0.16350  Biso   1.000  C
  C31      1.0000 0.96204  0.50485  0.15142  Biso   1.000  C
  H28      1.0000 0.90068  0.46587  0.13799  Biso   1.000  H
  O3       1.0000 0.85273  0.63197  0.16718  Biso   1.000  O
  C32      1.0000 0.79320  0.82015  0.24999  Biso   1.000  C
  H29      1.0000 0.85100  0.83901  0.32831  Biso   1.000  H
  H30      1.0000 0.84960  0.78202  0.37991  Biso   1.000  H
  H31      1.0000 0.91390  0.88882  0.36560  Biso   1.000  H
  H32      1.0000 0.92220  0.78441  0.32361  Biso   1.000  H
  C33      1.0000 0.00000  0.95186  0.41820  Biso   1.000  C
  O4       1.0000 0.07412  0.69324  0.38520  Biso   1.000  O
  C34      1.0000 0.09668  0.49703  0.29181  Biso   1.000  C
  H33      1.0000 0.09928  0.46587  0.36199  Biso   1.000  H
  C35      1.0000 0.07768  0.27811  0.33652  Biso   1.000  C
  C36      1.0000 0.88034  0.20767  0.16910  Biso   1.000  C
  H34      1.0000 0.93499  0.24560  0.13449  Biso   1.000  H
  H35      1.0000 0.94059  0.24831  0.18901  Biso   1.000  H
  C37      1.0000 0.96254  0.63259  0.12886  Biso   1.000  C
  C38      1.0000 0.00000  0.44556  0.16189  Biso   1.000  C
  C39      1.0000 0.86276  0.76868  0.15045  Biso   1.000  C
  I1       1.0000 0.74577  0.95478  0.24999  Biso   1.000  I
  I2       1.0000 0.75286  0.98520  0.24999  Biso   1.000  I
  I3       1.0000 0.00000  0.17057  0.43797  Biso   1.000  I
  I4       1.0000 0.00000  0.11056  0.45119  Biso   1.000  I
  C40      1.0000 0.09120  0.79337  0.35403  Biso   1.000  C
  C41      1.0000 0.08114  0.45420  0.24999  Biso   1.000  C
  C42      1.0000 0.12935  0.59300  0.29171  Biso   1.000  C
  H36      1.0000 0.06501  0.24560  0.36549  Biso   1.000  H
  H37      1.0000 0.05941  0.24831  0.31100  Biso   1.000  H
  C43      1.0000 0.11966  0.20767  0.33088  Biso   1.000  C
  C44      1.0000 0.85880  0.20798  0.12501  Biso   1.000  C
  C45      1.0000 0.84521  0.25112  0.13590  Biso   1.000  C
  H38      1.0000 0.88418  0.11066  0.17981  Biso   1.000  H
  H39      1.0000 0.86369  0.25821  0.19221  Biso   1.000  H
  H40      1.0000 0.87069  0.22497  0.20079  Biso   1.000  H
  H41      1.0000 0.88449  0.10597  0.16591  Biso   1.000  H
  O5       1.0000 0.92588  0.69324  0.11478  Biso   1.000  O
  C46      1.0000 0.00000  0.69845  0.11821  Biso   1.000  C
  C47      1.0000 0.03792  0.50485  0.15142  Biso   1.000  C
  H42      1.0000 0.00000  0.35834  0.17730  Biso   1.000  H
  C48      1.0000 0.90880  0.79337  0.14599  Biso   1.000  C
  H43      1.0000 0.85100  0.83901  0.17171  Biso   1.000  H
  H44      1.0000 0.84960  0.78202  0.12010  Biso   1.000  H
  C49      1.0000 0.13724  0.76868  0.34953  Biso   1.000  C
  H45      1.0000 0.08610  0.88882  0.36560  Biso   1.000  H
  H46      1.0000 0.07780  0.78441  0.32361  Biso   1.000  H
  C50      1.0000 0.09668  0.49703  0.20821  Biso   1.000  C
  H47      1.0000 0.05839  0.39137  0.24999  Biso   1.000  H
  C51      1.0000 0.14557  0.64218  0.24999  Biso   1.000  C
  O6       1.0000 0.14727  0.63197  0.33281  Biso   1.000  O
  H48      1.0000 0.11579  0.11066  0.32021  Biso   1.000  H
  H49      1.0000 0.13631  0.25821  0.30781  Biso   1.000  H
  C52      1.0000 0.14120  0.20798  0.37500  Biso   1.000  C
  H50      1.0000 0.12928  0.22497  0.29919  Biso   1.000  H
  H51      1.0000 0.11551  0.10597  0.33411  Biso   1.000  H
  C53      1.0000 0.15479  0.25112  0.36409  Biso   1.000  C
  C54      1.0000 0.81459  0.15661  0.12330  Biso   1.000  C
  H52      1.0000 0.87521  0.15078  0.10331  Biso   1.000  H
  H53      1.0000 0.85898  0.30468  0.11320  Biso   1.000  H
  H54      1.0000 0.85499  0.24393  0.10369  Biso   1.000  H
  C55      1.0000 0.80799  0.15703  0.14290  Biso   1.000  C
  H55      1.0000 0.83719  0.34907  0.14180  Biso   1.000  H
  C56      1.0000 0.00000  0.83380  0.09652  Biso   1.000  C
  C57      1.0000 0.03746  0.63259  0.12886  Biso   1.000  C
  C58      1.0000 0.07953  0.43847  0.16282  Biso   1.000  C
  H56      1.0000 0.91390  0.88882  0.13439  Biso   1.000  H
  H57      1.0000 0.92220  0.78441  0.17641  Biso   1.000  H
  H58      1.0000 0.14900  0.83901  0.32831  Biso   1.000  H
  H59      1.0000 0.15040  0.78202  0.37991  Biso   1.000  H
  C59      1.0000 0.12935  0.59300  0.20827  Biso   1.000  C
  C60      1.0000 0.17962  0.73929  0.24999  Biso   1.000  C
  H60      1.0000 0.12479  0.15078  0.39670  Biso   1.000  H
  H61      1.0000 0.14099  0.30468  0.38682  Biso   1.000  H
  C61      1.0000 0.18541  0.15661  0.37669  Biso   1.000  C
  H62      1.0000 0.14501  0.24393  0.39629  Biso   1.000  H
  H63      1.0000 0.16281  0.34907  0.35821  Biso   1.000  H
  C62      1.0000 0.19201  0.15703  0.35712  Biso   1.000  C
  C63      1.0000 0.78768  0.27175  0.14239  Biso   1.000  C
  C64      1.0000 0.77360  0.18610  0.10699  Biso   1.000  C
  H64      1.0000 0.80651  0.13515  0.09130  Biso   1.000  H
  H65      1.0000 0.81149  0.07096  0.14201  Biso   1.000  H
  H66      1.0000 0.81691  0.05814  0.14039  Biso   1.000  H
  H67      1.0000 0.79679  0.17089  0.17421  Biso   1.000  H
  C65      1.0000 0.00000  0.95186  0.08179  Biso   1.000  C
  O7       1.0000 0.07412  0.69324  0.11478  Biso   1.000  O
  H68      1.0000 0.09928  0.46587  0.13799  Biso   1.000  H
  C66      1.0000 0.07768  0.27811  0.16350  Biso   1.000  C
  O8       1.0000 0.14727  0.63197  0.16718  Biso   1.000  O
  C67      1.0000 0.20680  0.82015  0.24999  Biso   1.000  C
  H69      1.0000 0.18851  0.07096  0.35801  Biso   1.000  H
  H70      1.0000 0.19349  0.13515  0.40869  Biso   1.000  H
  C68      1.0000 0.21228  0.27175  0.35760  Biso   1.000  C
  H71      1.0000 0.18309  0.05814  0.35959  Biso   1.000  H
  C69      1.0000 0.22640  0.18610  0.39300  Biso   1.000  C
  H72      1.0000 0.20321  0.17089  0.32580  Biso   1.000  H
  C70      1.0000 0.74570  0.25800  0.12941  Biso   1.000  C
  H73      1.0000 0.78960  0.27123  0.17631  Biso   1.000  H
  H74      1.0000 0.79830  0.36261  0.13140  Biso   1.000  H
  C71      1.0000 0.74849  0.31103  0.12580  Biso   1.000  C
  H75      1.0000 0.78589  0.20934  0.07691  Biso   1.000  H
  H76      1.0000 0.75549  0.10347  0.10331  Biso   1.000  H
  I5       1.0000 0.00000  0.17057  0.06204  Biso   1.000  I
  I6       1.0000 0.00000  0.11056  0.04882  Biso   1.000  I
  C72      1.0000 0.09120  0.79337  0.14599  Biso   1.000  C
  H77      1.0000 0.06501  0.24560  0.13449  Biso   1.000  H
  H78      1.0000 0.05941  0.24831  0.18901  Biso   1.000  H
  C73      1.0000 0.11966  0.20767  0.16910  Biso   1.000  C
  C74      1.0000 0.13724  0.76868  0.15045  Biso   1.000  C
  I7       1.0000 0.25423  0.95478  0.24999  Biso   1.000  I
  I8       1.0000 0.24714  0.98520  0.24999  Biso   1.000  I
  H79      1.0000 0.21040  0.27123  0.32371  Biso   1.000  H
  H80      1.0000 0.20170  0.36261  0.36858  Biso   1.000  H
  C75      1.0000 0.25430  0.25800  0.37061  Biso   1.000  C
  C76      1.0000 0.25151  0.31103  0.37421  Biso   1.000  C
  H81      1.0000 0.21411  0.20934  0.42311  Biso   1.000  H
  H82      1.0000 0.24451  0.10347  0.39670  Biso   1.000  H
  H83      1.0000 0.72858  0.31927  0.14870  Biso   1.000  H
  H84      1.0000 0.73679  0.16151  0.13349  Biso   1.000  H
  H85      1.0000 0.74248  0.28509  0.09710  Biso   1.000  H
  H86      1.0000 0.73858  0.28926  0.15681  Biso   1.000  H
  H87      1.0000 0.72481  0.32875  0.10561  Biso   1.000  H
  H88      1.0000 0.76629  0.39366  0.12690  Biso   1.000  H
  H89      1.0000 0.08610  0.88882  0.13439  Biso   1.000  H
  H90      1.0000 0.07780  0.78441  0.17641  Biso   1.000  H
  H91      1.0000 0.11579  0.11066  0.17981  Biso   1.000  H
  H92      1.0000 0.13631  0.25821  0.19221  Biso   1.000  H
  C77      1.0000 0.14120  0.20798  0.12501  Biso   1.000  C
  H93      1.0000 0.12928  0.22497  0.20079  Biso   1.000  H
  H94      1.0000 0.11551  0.10597  0.16591  Biso   1.000  H
  C78      1.0000 0.15479  0.25112  0.13590  Biso   1.000  C
  H95      1.0000 0.14900  0.83901  0.17171  Biso   1.000  H
  H96      1.0000 0.15040  0.78202  0.12010  Biso   1.000  H
  H97      1.0000 0.27138  0.31927  0.35131  Biso   1.000  H
  H98      1.0000 0.26321  0.16151  0.36649  Biso   1.000  H
  H99      1.0000 0.25748  0.28509  0.40288  Biso   1.000  H
  H100     1.0000 0.26139  0.28926  0.34321  Biso   1.000  H
  H101     1.0000 0.27519  0.32875  0.39440  Biso   1.000  H
  H102     1.0000 0.23371  0.39366  0.37312  Biso   1.000  H
  H103     1.0000 0.12479  0.15078  0.10331  Biso   1.000  H
  H104     1.0000 0.14099  0.30468  0.11320  Biso   1.000  H
  C79      1.0000 0.18541  0.15661  0.12330  Biso   1.000  C
  H105     1.0000 0.14501  0.24393  0.10369  Biso   1.000  H
  H106     1.0000 0.16281  0.34907  0.14180  Biso   1.000  H
  C80      1.0000 0.19201  0.15703  0.14290  Biso   1.000  C
  H107     1.0000 0.18851  0.07096  0.14201  Biso   1.000  H
  H108     1.0000 0.19349  0.13515  0.09130  Biso   1.000  H
  C81      1.0000 0.21228  0.27175  0.14239  Biso   1.000  C
  H109     1.0000 0.18309  0.05814  0.14039  Biso   1.000  H
  C82      1.0000 0.22640  0.18610  0.10699  Biso   1.000  C
  H110     1.0000 0.20321  0.17089  0.17421  Biso   1.000  H
  H111     1.0000 0.21040  0.27123  0.17631  Biso   1.000  H
  H112     1.0000 0.20170  0.36261  0.13140  Biso   1.000  H
  C83      1.0000 0.25430  0.25800  0.12941  Biso   1.000  C
  C84      1.0000 0.25151  0.31103  0.12580  Biso   1.000  C
  H113     1.0000 0.21411  0.20934  0.07691  Biso   1.000  H
  H114     1.0000 0.24451  0.10347  0.10331  Biso   1.000  H
  H115     1.0000 0.27138  0.31927  0.14870  Biso   1.000  H
  H116     1.0000 0.26321  0.16151  0.13349  Biso   1.000  H
  H117     1.0000 0.25748  0.28509  0.09710  Biso   1.000  H
  H118     1.0000 0.26139  0.28926  0.15681  Biso   1.000  H
  H119     1.0000 0.27519  0.32875  0.10561  Biso   1.000  H
  H120     1.0000 0.23371  0.39366  0.12690  Biso   1.000  H
  C85      1.0000 0.63722  0.26873  0.34953  Biso   1.000  C
  C86      1.0000 0.59119  0.29343  0.35403  Biso   1.000  C
  O9       1.0000 0.64726  0.13202  0.33281  Biso   1.000  O
  H121     1.0000 0.64899  0.33896  0.32831  Biso   1.000  H
  H122     1.0000 0.65038  0.28196  0.37991  Biso   1.000  H
  O10      1.0000 0.57410  0.19319  0.38520  Biso   1.000  O
  H123     1.0000 0.58608  0.38877  0.36560  Biso   1.000  H
  H124     1.0000 0.57778  0.28436  0.32361  Biso   1.000  H
  C87      1.0000 0.62936  0.09305  0.29171  Biso   1.000  C
  C88      1.0000 0.53744  0.13265  0.37116  Biso   1.000  C
  C89      1.0000 0.59670  0.99698  0.29181  Biso   1.000  C
  C90      1.0000 0.64558  0.14223  0.24999  Biso   1.000  C
  C91      1.0000 0.49998  0.19850  0.38180  Biso   1.000  C
  C92      1.0000 0.53794  0.00490  0.34860  Biso   1.000  C
  C93      1.0000 0.57955  0.93852  0.33720  Biso   1.000  C
  C94      1.0000 0.58113  0.95415  0.24999  Biso   1.000  C
  C95      1.0000 0.62936  0.09305  0.20827  Biso   1.000  C
  C96      1.0000 0.67961  0.23935  0.24999  Biso   1.000  C
  C97      1.0000 0.46252  0.13265  0.37116  Biso   1.000  C
  C98      1.0000 0.49998  0.33375  0.40350  Biso   1.000  C
  C99      1.0000 0.49998  0.94561  0.33809  Biso   1.000  C
  H125     1.0000 0.59930  0.96593  0.36199  Biso   1.000  H
  C100     1.0000 0.57766  0.77806  0.33652  Biso   1.000  C
  C101     1.0000 0.59670  0.99698  0.20821  Biso   1.000  C
  H126     1.0000 0.55840  0.89142  0.24999  Biso   1.000  H
  O11      1.0000 0.64726  0.13202  0.16718  Biso   1.000  O
  C102     1.0000 0.70679  0.32020  0.24999  Biso   1.000  C
  C103     1.0000 0.46206  0.00490  0.34860  Biso   1.000  C
  O12      1.0000 0.42590  0.19319  0.38520  Biso   1.000  O
  C104     1.0000 0.49998  0.45191  0.41820  Biso   1.000  C
  H127     1.0000 0.49998  0.85829  0.32271  Biso   1.000  H
  H128     1.0000 0.56500  0.74555  0.36549  Biso   1.000  H
  H129     1.0000 0.55939  0.74825  0.31100  Biso   1.000  H
  C105     1.0000 0.61964  0.70772  0.33088  Biso   1.000  C
  C106     1.0000 0.57955  0.93852  0.16282  Biso   1.000  C
  C107     1.0000 0.63722  0.26873  0.15045  Biso   1.000  C
  I9       1.0000 0.75425  0.45483  0.24999  Biso   1.000  I
  I10      1.0000 0.74713  0.48515  0.24999  Biso   1.000  I
  C108     1.0000 0.42045  0.93852  0.33720  Biso   1.000  C
  C109     1.0000 0.40881  0.29343  0.35403  Biso   1.000  C
  I11      1.0000 0.49998  0.67052  0.43797  Biso   1.000  I
  I12      1.0000 0.49998  0.61050  0.45119  Biso   1.000  I
  H130     1.0000 0.61580  0.61071  0.32021  Biso   1.000  H
  H131     1.0000 0.63630  0.75815  0.30781  Biso   1.000  H
  C110     1.0000 0.64119  0.70803  0.37500  Biso   1.000  C
  H132     1.0000 0.62930  0.72502  0.29919  Biso   1.000  H
  H133     1.0000 0.61549  0.60602  0.33411  Biso   1.000  H
  C111     1.0000 0.65481  0.75107  0.36409  Biso   1.000  C
  C112     1.0000 0.53794  0.00490  0.15142  Biso   1.000  C
  H134     1.0000 0.59930  0.96593  0.13799  Biso   1.000  H
  C113     1.0000 0.57766  0.77806  0.16350  Biso   1.000  C
  C114     1.0000 0.59119  0.29343  0.14599  Biso   1.000  C
  H135     1.0000 0.64899  0.33896  0.17171  Biso   1.000  H
  H136     1.0000 0.65038  0.28196  0.12010  Biso   1.000  H
  C115     1.0000 0.40330  0.99698  0.29181  Biso   1.000  C
  H137     1.0000 0.40070  0.96593  0.36199  Biso   1.000  H
  C116     1.0000 0.42234  0.77806  0.33652  Biso   1.000  C
  C117     1.0000 0.36274  0.26873  0.34953  Biso   1.000  C
  H138     1.0000 0.41389  0.38877  0.36560  Biso   1.000  H
  H139     1.0000 0.42219  0.28436  0.32361  Biso   1.000  H
  H140     1.0000 0.62481  0.65083  0.39670  Biso   1.000  H
  H141     1.0000 0.64100  0.80473  0.38682  Biso   1.000  H
  C118     1.0000 0.68540  0.65656  0.37669  Biso   1.000  C
  H142     1.0000 0.64500  0.74388  0.39629  Biso   1.000  H
  H143     1.0000 0.66280  0.84912  0.35821  Biso   1.000  H
  C119     1.0000 0.69199  0.65698  0.35712  Biso   1.000  C
  C120     1.0000 0.49998  0.94561  0.16189  Biso   1.000  C
  C121     1.0000 0.53744  0.13265  0.12886  Biso   1.000  C
  H144     1.0000 0.56500  0.74555  0.13449  Biso   1.000  H
  H145     1.0000 0.55939  0.74825  0.18901  Biso   1.000  H
  C122     1.0000 0.61964  0.70772  0.16910  Biso   1.000  C
  O13      1.0000 0.57410  0.19319  0.11478  Biso   1.000  O
  H146     1.0000 0.58608  0.38877  0.13439  Biso   1.000  H
  H147     1.0000 0.57778  0.28436  0.17641  Biso   1.000  H
  C123     1.0000 0.37064  0.09305  0.29171  Biso   1.000  C
  C124     1.0000 0.41887  0.95415  0.24999  Biso   1.000  C
  H148     1.0000 0.43500  0.74555  0.36549  Biso   1.000  H
  H149     1.0000 0.44061  0.74825  0.31100  Biso   1.000  H
  C125     1.0000 0.38036  0.70772  0.33088  Biso   1.000  C
  O14      1.0000 0.35274  0.13202  0.33281  Biso   1.000  O
  H150     1.0000 0.35101  0.33896  0.32831  Biso   1.000  H
  H151     1.0000 0.34959  0.28196  0.37991  Biso   1.000  H
  H152     1.0000 0.68849  0.57101  0.35801  Biso   1.000  H
  H153     1.0000 0.69351  0.63509  0.40869  Biso   1.000  H
  C126     1.0000 0.71230  0.77180  0.35760  Biso   1.000  C
  H154     1.0000 0.68311  0.55809  0.35959  Biso   1.000  H
  C127     1.0000 0.72639  0.68605  0.39300  Biso   1.000  C
  H155     1.0000 0.70320  0.67083  0.32580  Biso   1.000  H
  C128     1.0000 0.46206  0.00490  0.15142  Biso   1.000  C
  H156     1.0000 0.49998  0.85829  0.17730  Biso   1.000  H
  C129     1.0000 0.49998  0.19850  0.11821  Biso   1.000  C
  H157     1.0000 0.61580  0.61071  0.17981  Biso   1.000  H
  H158     1.0000 0.63630  0.75815  0.19221  Biso   1.000  H
  C130     1.0000 0.64119  0.70803  0.12501  Biso   1.000  C
  H159     1.0000 0.62930  0.72502  0.20079  Biso   1.000  H
  H160     1.0000 0.61549  0.60602  0.16591  Biso   1.000  H
  C131     1.0000 0.65481  0.75107  0.13590  Biso   1.000  C
  C132     1.0000 0.35442  0.14223  0.24999  Biso   1.000  C
  C133     1.0000 0.40330  0.99698  0.20821  Biso   1.000  C
  H161     1.0000 0.44160  0.89142  0.24999  Biso   1.000  H
  H162     1.0000 0.38420  0.61071  0.32021  Biso   1.000  H
  H163     1.0000 0.36370  0.75815  0.30781  Biso   1.000  H
  C134     1.0000 0.35881  0.70803  0.37500  Biso   1.000  C
  H164     1.0000 0.37070  0.72502  0.29919  Biso   1.000  H
  H165     1.0000 0.38451  0.60602  0.33411  Biso   1.000  H
  C135     1.0000 0.34519  0.75107  0.36409  Biso   1.000  C
  H166     1.0000 0.71038  0.77118  0.32371  Biso   1.000  H
  H167     1.0000 0.70168  0.86256  0.36858  Biso   1.000  H
  C136     1.0000 0.75428  0.75795  0.37061  Biso   1.000  C
  C137     1.0000 0.75149  0.81098  0.37421  Biso   1.000  C
  H168     1.0000 0.71410  0.70928  0.42311  Biso   1.000  H
  H169     1.0000 0.74450  0.60352  0.39670  Biso   1.000  H
  C138     1.0000 0.42045  0.93852  0.16282  Biso   1.000  C
  C139     1.0000 0.46252  0.13265  0.12886  Biso   1.000  C
  C140     1.0000 0.49998  0.33375  0.09652  Biso   1.000  C
  H170     1.0000 0.62481  0.65083  0.10331  Biso   1.000  H
  H171     1.0000 0.64100  0.80473  0.11320  Biso   1.000  H
  C141     1.0000 0.68540  0.65656  0.12330  Biso   1.000  C
  H172     1.0000 0.64500  0.74388  0.10369  Biso   1.000  H
  H173     1.0000 0.66280  0.84912  0.14180  Biso   1.000  H
  C142     1.0000 0.69199  0.65698  0.14290  Biso   1.000  C
  C143     1.0000 0.32039  0.23935  0.24999  Biso   1.000  C
  C144     1.0000 0.37064  0.09305  0.20827  Biso   1.000  C
  H174     1.0000 0.37519  0.65083  0.39670  Biso   1.000  H
  H175     1.0000 0.35900  0.80473  0.38682  Biso   1.000  H
  C145     1.0000 0.31460  0.65656  0.37669  Biso   1.000  C
  H176     1.0000 0.35500  0.74388  0.39629  Biso   1.000  H
  H177     1.0000 0.33720  0.84912  0.35821  Biso   1.000  H
  C146     1.0000 0.30801  0.65698  0.35712  Biso   1.000  C
  H178     1.0000 0.77140  0.81932  0.35131  Biso   1.000  H
  H179     1.0000 0.76320  0.66146  0.36649  Biso   1.000  H
  H180     1.0000 0.75750  0.78504  0.40288  Biso   1.000  H
  H181     1.0000 0.76140  0.78931  0.34321  Biso   1.000  H
  H182     1.0000 0.77521  0.82880  0.39440  Biso   1.000  H
  H183     1.0000 0.73369  0.89372  0.37312  Biso   1.000  H
  H184     1.0000 0.40070  0.96593  0.13799  Biso   1.000  H
  C147     1.0000 0.42234  0.77806  0.16350  Biso   1.000  C
  O15      1.0000 0.42590  0.19319  0.11478  Biso   1.000  O
  C148     1.0000 0.49998  0.45191  0.08179  Biso   1.000  C
  H185     1.0000 0.68849  0.57101  0.14201  Biso   1.000  H
  H186     1.0000 0.69351  0.63509  0.09130  Biso   1.000  H
  C149     1.0000 0.71230  0.77180  0.14239  Biso   1.000  C
  H187     1.0000 0.68311  0.55809  0.14039  Biso   1.000  H
  C150     1.0000 0.72639  0.68605  0.10699  Biso   1.000  C
  H188     1.0000 0.70320  0.67083  0.17421  Biso   1.000  H
  C151     1.0000 0.29321  0.32020  0.24999  Biso   1.000  C
  O16      1.0000 0.35274  0.13202  0.16718  Biso   1.000  O
  H189     1.0000 0.31151  0.57101  0.35801  Biso   1.000  H
  H190     1.0000 0.30649  0.63509  0.40869  Biso   1.000  H
  C152     1.0000 0.28770  0.77180  0.35760  Biso   1.000  C
  H191     1.0000 0.31689  0.55809  0.35959  Biso   1.000  H
  C153     1.0000 0.27358  0.68605  0.39300  Biso   1.000  C
  H192     1.0000 0.29680  0.67083  0.32580  Biso   1.000  H
  H193     1.0000 0.43500  0.74555  0.13449  Biso   1.000  H
  H194     1.0000 0.44061  0.74825  0.18901  Biso   1.000  H
  C154     1.0000 0.38036  0.70772  0.16910  Biso   1.000  C
  C155     1.0000 0.40881  0.29343  0.14599  Biso   1.000  C
  I13      1.0000 0.49998  0.67052  0.06204  Biso   1.000  I
  I14      1.0000 0.49998  0.61050  0.04882  Biso   1.000  I
  H195     1.0000 0.71038  0.77118  0.17631  Biso   1.000  H
  H196     1.0000 0.70168  0.86256  0.13140  Biso   1.000  H
  C156     1.0000 0.75428  0.75795  0.12941  Biso   1.000  C
  C157     1.0000 0.75149  0.81098  0.12580  Biso   1.000  C
  H197     1.0000 0.71410  0.70928  0.07691  Biso   1.000  H
  H198     1.0000 0.74450  0.60352  0.10331  Biso   1.000  H
  I15      1.0000 0.24575  0.45483  0.24999  Biso   1.000  I
  I16      1.0000 0.25287  0.48515  0.24999  Biso   1.000  I
  C158     1.0000 0.36274  0.26873  0.15045  Biso   1.000  C
  H199     1.0000 0.28959  0.77118  0.32371  Biso   1.000  H
  H200     1.0000 0.29829  0.86256  0.36858  Biso   1.000  H
  C159     1.0000 0.24569  0.75795  0.37061  Biso   1.000  C
  C160     1.0000 0.24851  0.81098  0.37421  Biso   1.000  C
  H201     1.0000 0.28590  0.70928  0.42311  Biso   1.000  H
  H202     1.0000 0.25550  0.60352  0.39670  Biso   1.000  H
  H203     1.0000 0.38420  0.61071  0.17981  Biso   1.000  H
  H204     1.0000 0.36370  0.75815  0.19221  Biso   1.000  H
  C161     1.0000 0.35881  0.70803  0.12501  Biso   1.000  C
  H205     1.0000 0.37070  0.72502  0.20079  Biso   1.000  H
  H206     1.0000 0.38451  0.60602  0.16591  Biso   1.000  H
  C162     1.0000 0.34519  0.75107  0.13590  Biso   1.000  C
  H207     1.0000 0.41389  0.38877  0.13439  Biso   1.000  H
  H208     1.0000 0.42219  0.28436  0.17641  Biso   1.000  H
  H209     1.0000 0.77140  0.81932  0.14870  Biso   1.000  H
  H210     1.0000 0.76320  0.66146  0.13349  Biso   1.000  H
  H211     1.0000 0.75750  0.78504  0.09710  Biso   1.000  H
  H212     1.0000 0.76140  0.78931  0.15681  Biso   1.000  H
  H213     1.0000 0.77521  0.82880  0.10561  Biso   1.000  H
  H214     1.0000 0.73369  0.89372  0.12690  Biso   1.000  H
  H215     1.0000 0.35101  0.33896  0.17171  Biso   1.000  H
  H216     1.0000 0.34959  0.28196  0.12010  Biso   1.000  H
  H217     1.0000 0.22860  0.81932  0.35131  Biso   1.000  H
  H218     1.0000 0.23680  0.66146  0.36649  Biso   1.000  H
  H219     1.0000 0.24250  0.78504  0.40288  Biso   1.000  H
  H220     1.0000 0.23860  0.78931  0.34321  Biso   1.000  H
  H221     1.0000 0.22479  0.82880  0.39440  Biso   1.000  H
  H222     1.0000 0.26631  0.89372  0.37312  Biso   1.000  H
  H223     1.0000 0.37519  0.65083  0.10331  Biso   1.000  H
  H224     1.0000 0.35900  0.80473  0.11320  Biso   1.000  H
  C163     1.0000 0.31460  0.65656  0.12330  Biso   1.000  C
  H225     1.0000 0.35500  0.74388  0.10369  Biso   1.000  H
  H226     1.0000 0.33720  0.84912  0.14180  Biso   1.000  H
  C164     1.0000 0.30801  0.65698  0.14290  Biso   1.000  C
  H227     1.0000 0.31151  0.57101  0.14201  Biso   1.000  H
  H228     1.0000 0.30649  0.63509  0.09130  Biso   1.000  H
  C165     1.0000 0.28770  0.77180  0.14239  Biso   1.000  C
  H229     1.0000 0.31689  0.55809  0.14039  Biso   1.000  H
  C166     1.0000 0.27358  0.68605  0.10699  Biso   1.000  C
  H230     1.0000 0.29680  0.67083  0.17421  Biso   1.000  H
  H231     1.0000 0.28959  0.77118  0.17631  Biso   1.000  H
  H232     1.0000 0.29829  0.86256  0.13140  Biso   1.000  H
  C167     1.0000 0.24569  0.75795  0.12941  Biso   1.000  C
  C168     1.0000 0.24851  0.81098  0.12580  Biso   1.000  C
  H233     1.0000 0.28590  0.70928  0.07691  Biso   1.000  H
  H234     1.0000 0.25550  0.60352  0.10331  Biso   1.000  H
  H235     1.0000 0.22860  0.81932  0.14870  Biso   1.000  H
  H236     1.0000 0.23680  0.66146  0.13349  Biso   1.000  H
  H237     1.0000 0.24250  0.78504  0.09710  Biso   1.000  H
  H238     1.0000 0.23860  0.78931  0.15681  Biso   1.000  H
  H239     1.0000 0.22479  0.82880  0.10561  Biso   1.000  H
  H240     1.0000 0.26631  0.89372  0.12690  Biso   1.000  H
  C169     1.0000 0.74849  0.68897  0.62579  Biso   1.000  C
  C170     1.0000 0.78768  0.72814  0.64240  Biso   1.000  C
  H241     1.0000 0.72858  0.68073  0.64869  Biso   1.000  H
  H242     1.0000 0.74248  0.71491  0.59712  Biso   1.000  H
  C171     1.0000 0.77360  0.81390  0.60700  Biso   1.000  C
  H243     1.0000 0.73858  0.71064  0.65679  Biso   1.000  H
  H244     1.0000 0.72481  0.67115  0.60560  Biso   1.000  H
  H245     1.0000 0.76629  0.60634  0.62688  Biso   1.000  H
  C172     1.0000 0.81459  0.84339  0.62331  Biso   1.000  C
  H246     1.0000 0.78960  0.72877  0.67629  Biso   1.000  H
  H247     1.0000 0.79830  0.63739  0.63142  Biso   1.000  H
  C173     1.0000 0.74570  0.74200  0.62939  Biso   1.000  C
  C174     1.0000 0.80799  0.84297  0.64288  Biso   1.000  C
  H248     1.0000 0.80651  0.86485  0.59131  Biso   1.000  H
  H249     1.0000 0.78589  0.79066  0.57689  Biso   1.000  H
  H250     1.0000 0.75549  0.89653  0.60330  Biso   1.000  H
  C175     1.0000 0.85880  0.79202  0.62500  Biso   1.000  C
  H251     1.0000 0.81149  0.92894  0.64199  Biso   1.000  H
  C176     1.0000 0.84521  0.74888  0.63591  Biso   1.000  C
  H252     1.0000 0.81691  0.94186  0.64041  Biso   1.000  H
  H253     1.0000 0.73679  0.83849  0.63351  Biso   1.000  H
  H254     1.0000 0.79679  0.82911  0.67420  Biso   1.000  H
  C177     1.0000 0.88034  0.79233  0.66912  Biso   1.000  C
  H255     1.0000 0.87521  0.84922  0.60330  Biso   1.000  H
  H256     1.0000 0.85898  0.69532  0.61318  Biso   1.000  H
  H257     1.0000 0.85499  0.75607  0.60371  Biso   1.000  H
  H258     1.0000 0.83719  0.65093  0.64179  Biso   1.000  H
  C178     1.0000 0.92232  0.72189  0.66348  Biso   1.000  C
  H259     1.0000 0.88418  0.88924  0.67979  Biso   1.000  H
  H260     1.0000 0.86369  0.74179  0.69219  Biso   1.000  H
  H261     1.0000 0.87069  0.77503  0.70081  Biso   1.000  H
  H262     1.0000 0.88449  0.89403  0.66589  Biso   1.000  H
  C179     1.0000 0.92047  0.56153  0.66280  Biso   1.000  C
  H263     1.0000 0.93499  0.75440  0.63451  Biso   1.000  H
  H264     1.0000 0.94059  0.75169  0.68900  Biso   1.000  H
  C180     1.0000 0.96204  0.49505  0.65140  Biso   1.000  C
  C181     1.0000 0.90332  0.50297  0.70819  Biso   1.000  C
  H265     1.0000 0.90068  0.53413  0.63801  Biso   1.000  H
  C182     1.0000 0.96254  0.36741  0.62884  Biso   1.000  C
  C183     1.0000 0.00000  0.55434  0.66191  Biso   1.000  C
  C184     1.0000 0.87065  0.40700  0.70829  Biso   1.000  C
  C185     1.0000 0.91886  0.54580  0.75001  Biso   1.000  C
  O17      1.0000 0.92588  0.30676  0.61480  Biso   1.000  O
  C186     1.0000 0.00000  0.30145  0.61820  Biso   1.000  C
  C187     1.0000 0.03792  0.49505  0.65140  Biso   1.000  C
  H266     1.0000 0.00000  0.64166  0.67729  Biso   1.000  H
  C188     1.0000 0.85440  0.35782  0.75001  Biso   1.000  C
  O18      1.0000 0.85273  0.36803  0.66719  Biso   1.000  O
  C189     1.0000 0.90332  0.50297  0.79179  Biso   1.000  C
  H267     1.0000 0.94158  0.60863  0.75001  Biso   1.000  H
  C190     1.0000 0.90880  0.20663  0.64597  Biso   1.000  C
  C191     1.0000 0.00000  0.16620  0.59650  Biso   1.000  C
  C192     1.0000 0.03746  0.36741  0.62884  Biso   1.000  C
  C193     1.0000 0.07953  0.56153  0.66280  Biso   1.000  C
  C194     1.0000 0.82038  0.26071  0.75001  Biso   1.000  C
  C195     1.0000 0.87065  0.40700  0.79173  Biso   1.000  C
  C196     1.0000 0.86276  0.23132  0.65047  Biso   1.000  C
  C197     1.0000 0.92047  0.56153  0.83718  Biso   1.000  C
  H268     1.0000 0.91390  0.11118  0.63440  Biso   1.000  H
  H269     1.0000 0.92220  0.21559  0.67639  Biso   1.000  H
  C198     1.0000 0.00000  0.04814  0.58180  Biso   1.000  C
  O19      1.0000 0.07412  0.30676  0.61480  Biso   1.000  O
  C199     1.0000 0.09668  0.50297  0.70819  Biso   1.000  C
  H270     1.0000 0.09928  0.53413  0.63801  Biso   1.000  H
  C200     1.0000 0.07768  0.72189  0.66348  Biso   1.000  C
  C201     1.0000 0.79320  0.17985  0.75001  Biso   1.000  C
  O20      1.0000 0.85273  0.36803  0.83282  Biso   1.000  O
  H271     1.0000 0.85100  0.16099  0.67169  Biso   1.000  H
  H272     1.0000 0.84960  0.21798  0.62009  Biso   1.000  H
  C202     1.0000 0.96204  0.49505  0.84858  Biso   1.000  C
  H273     1.0000 0.90068  0.53413  0.86201  Biso   1.000  H
  C203     1.0000 0.92232  0.72189  0.83650  Biso   1.000  C
  I17      1.0000 0.00000  0.82943  0.56203  Biso   1.000  I
  I18      1.0000 0.00000  0.88944  0.54881  Biso   1.000  I
  C204     1.0000 0.09120  0.20663  0.64597  Biso   1.000  C
  C205     1.0000 0.12935  0.40700  0.70829  Biso   1.000  C
  C206     1.0000 0.08114  0.54580  0.75001  Biso   1.000  C
  H274     1.0000 0.06501  0.75440  0.63451  Biso   1.000  H
  H275     1.0000 0.05941  0.75169  0.68900  Biso   1.000  H
  C207     1.0000 0.11966  0.79233  0.66912  Biso   1.000  C
  I19      1.0000 0.74577  0.04522  0.75001  Biso   1.000  I
  I20      1.0000 0.75286  0.01480  0.75001  Biso   1.000  I
  C208     1.0000 0.86276  0.23132  0.84955  Biso   1.000  C
  C209     1.0000 0.96254  0.36741  0.87114  Biso   1.000  C
  C210     1.0000 0.00000  0.55434  0.83811  Biso   1.000  C
  H276     1.0000 0.93499  0.75440  0.86551  Biso   1.000  H
  H277     1.0000 0.94059  0.75169  0.81099  Biso   1.000  H
  C211     1.0000 0.88034  0.79233  0.83090  Biso   1.000  C
  H278     1.0000 0.08610  0.11118  0.63440  Biso   1.000  H
  H279     1.0000 0.07780  0.21559  0.67639  Biso   1.000  H
  C212     1.0000 0.13724  0.23132  0.65047  Biso   1.000  C
  C213     1.0000 0.14557  0.35782  0.75001  Biso   1.000  C
  O21      1.0000 0.14727  0.36803  0.66719  Biso   1.000  O
  C214     1.0000 0.09668  0.50297  0.79179  Biso   1.000  C
  H280     1.0000 0.05839  0.60863  0.75001  Biso   1.000  H
  H281     1.0000 0.11579  0.88924  0.67979  Biso   1.000  H
  H282     1.0000 0.13631  0.74179  0.69219  Biso   1.000  H
  C215     1.0000 0.14120  0.79202  0.62500  Biso   1.000  C
  H283     1.0000 0.12928  0.77503  0.70081  Biso   1.000  H
  H284     1.0000 0.11551  0.89403  0.66589  Biso   1.000  H
  C216     1.0000 0.15479  0.74888  0.63591  Biso   1.000  C
  C217     1.0000 0.90880  0.20663  0.85401  Biso   1.000  C
  H285     1.0000 0.85100  0.16099  0.82829  Biso   1.000  H
  H286     1.0000 0.84960  0.21798  0.87990  Biso   1.000  H
  O22      1.0000 0.92588  0.30676  0.88522  Biso   1.000  O
  C218     1.0000 0.00000  0.30145  0.88179  Biso   1.000  C
  C219     1.0000 0.03792  0.49505  0.84858  Biso   1.000  C
  H287     1.0000 0.00000  0.64166  0.82270  Biso   1.000  H
  H288     1.0000 0.88418  0.88924  0.82019  Biso   1.000  H
  H289     1.0000 0.86369  0.74179  0.80779  Biso   1.000  H
  C220     1.0000 0.85880  0.79202  0.87499  Biso   1.000  C
  H290     1.0000 0.87069  0.77503  0.79921  Biso   1.000  H
  H291     1.0000 0.88449  0.89403  0.83409  Biso   1.000  H
  C221     1.0000 0.84521  0.74888  0.86410  Biso   1.000  C
  H292     1.0000 0.14900  0.16099  0.67169  Biso   1.000  H
  H293     1.0000 0.15040  0.21798  0.62009  Biso   1.000  H
  C222     1.0000 0.17962  0.26071  0.75001  Biso   1.000  C
  C223     1.0000 0.12935  0.40700  0.79173  Biso   1.000  C
  C224     1.0000 0.07953  0.56153  0.83718  Biso   1.000  C
  H294     1.0000 0.12479  0.84922  0.60330  Biso   1.000  H
  H295     1.0000 0.14099  0.69532  0.61318  Biso   1.000  H
  C225     1.0000 0.18541  0.84339  0.62331  Biso   1.000  C
  H296     1.0000 0.14501  0.75607  0.60371  Biso   1.000  H
  H297     1.0000 0.16281  0.65093  0.64179  Biso   1.000  H
  C226     1.0000 0.19201  0.84297  0.64288  Biso   1.000  C
  H298     1.0000 0.91390  0.11118  0.86561  Biso   1.000  H
  H299     1.0000 0.92220  0.21559  0.82359  Biso   1.000  H
  C227     1.0000 0.00000  0.16620  0.90348  Biso   1.000  C
  C228     1.0000 0.03746  0.36741  0.87114  Biso   1.000  C
  H300     1.0000 0.87521  0.84922  0.89669  Biso   1.000  H
  H301     1.0000 0.85898  0.69532  0.88680  Biso   1.000  H
  C229     1.0000 0.81459  0.84339  0.87670  Biso   1.000  C
  H302     1.0000 0.85499  0.75607  0.89631  Biso   1.000  H
  H303     1.0000 0.83719  0.65093  0.85820  Biso   1.000  H
  C230     1.0000 0.80799  0.84297  0.85710  Biso   1.000  C
  C231     1.0000 0.20680  0.17985  0.75001  Biso   1.000  C
  O23      1.0000 0.14727  0.36803  0.83282  Biso   1.000  O
  H304     1.0000 0.09928  0.53413  0.86201  Biso   1.000  H
  C232     1.0000 0.07768  0.72189  0.83650  Biso   1.000  C
  H305     1.0000 0.18851  0.92894  0.64199  Biso   1.000  H
  H306     1.0000 0.19349  0.86485  0.59131  Biso   1.000  H
  C233     1.0000 0.21228  0.72814  0.64240  Biso   1.000  C
  H307     1.0000 0.18309  0.94186  0.64041  Biso   1.000  H
  C234     1.0000 0.22640  0.81390  0.60700  Biso   1.000  C
  H308     1.0000 0.20321  0.82911  0.67420  Biso   1.000  H
  C235     1.0000 0.00000  0.04814  0.91821  Biso   1.000  C
  O24      1.0000 0.07412  0.30676  0.88522  Biso   1.000  O
  H309     1.0000 0.81149  0.92894  0.85799  Biso   1.000  H
  H310     1.0000 0.80651  0.86485  0.90870  Biso   1.000  H
  C236     1.0000 0.78768  0.72814  0.85761  Biso   1.000  C
  H311     1.0000 0.81691  0.94186  0.85961  Biso   1.000  H
  C237     1.0000 0.77360  0.81390  0.89301  Biso   1.000  C
  H312     1.0000 0.79679  0.82911  0.82579  Biso   1.000  H
  I21      1.0000 0.25423  0.04522  0.75001  Biso   1.000  I
  I22      1.0000 0.24714  0.01480  0.75001  Biso   1.000  I
  C238     1.0000 0.13724  0.23132  0.84955  Biso   1.000  C
  H313     1.0000 0.06501  0.75440  0.86551  Biso   1.000  H
  H314     1.0000 0.05941  0.75169  0.81099  Biso   1.000  H
  C239     1.0000 0.11966  0.79233  0.83090  Biso   1.000  C
  H315     1.0000 0.21040  0.72877  0.67629  Biso   1.000  H
  H316     1.0000 0.20170  0.63739  0.63142  Biso   1.000  H
  C240     1.0000 0.25430  0.74200  0.62939  Biso   1.000  C
  C241     1.0000 0.25151  0.68897  0.62579  Biso   1.000  C
  H317     1.0000 0.21411  0.79066  0.57689  Biso   1.000  H
  H318     1.0000 0.24451  0.89653  0.60330  Biso   1.000  H
  I23      1.0000 0.00000  0.82943  0.93796  Biso   1.000  I
  I24      1.0000 0.00000  0.88944  0.95118  Biso   1.000  I
  C242     1.0000 0.09120  0.20663  0.85401  Biso   1.000  C
  H319     1.0000 0.78960  0.72877  0.82369  Biso   1.000  H
  H320     1.0000 0.79830  0.63739  0.86860  Biso   1.000  H
  C243     1.0000 0.74570  0.74200  0.87059  Biso   1.000  C
  C244     1.0000 0.74849  0.68897  0.87420  Biso   1.000  C
  H321     1.0000 0.78589  0.79066  0.92309  Biso   1.000  H
  H322     1.0000 0.75549  0.89653  0.89669  Biso   1.000  H
  H323     1.0000 0.14900  0.16099  0.82829  Biso   1.000  H
  H324     1.0000 0.15040  0.21798  0.87990  Biso   1.000  H
  H325     1.0000 0.11579  0.88924  0.82019  Biso   1.000  H
  H326     1.0000 0.13631  0.74179  0.80779  Biso   1.000  H
  C245     1.0000 0.14120  0.79202  0.87499  Biso   1.000  C
  H327     1.0000 0.12928  0.77503  0.79921  Biso   1.000  H
  H328     1.0000 0.11551  0.89403  0.83409  Biso   1.000  H
  C246     1.0000 0.15479  0.74888  0.86410  Biso   1.000  C
  H329     1.0000 0.27138  0.68073  0.64869  Biso   1.000  H
  H330     1.0000 0.26321  0.83849  0.63351  Biso   1.000  H
  H331     1.0000 0.25748  0.71491  0.59712  Biso   1.000  H
  H332     1.0000 0.26139  0.71064  0.65679  Biso   1.000  H
  H333     1.0000 0.27519  0.67115  0.60560  Biso   1.000  H
  H334     1.0000 0.23371  0.60634  0.62688  Biso   1.000  H
  H335     1.0000 0.08610  0.11118  0.86561  Biso   1.000  H
  H336     1.0000 0.07780  0.21559  0.82359  Biso   1.000  H
  H337     1.0000 0.72858  0.68073  0.85130  Biso   1.000  H
  H338     1.0000 0.73679  0.83849  0.86651  Biso   1.000  H
  H339     1.0000 0.74248  0.71491  0.90290  Biso   1.000  H
  H340     1.0000 0.73858  0.71064  0.84319  Biso   1.000  H
  H341     1.0000 0.72481  0.67115  0.89439  Biso   1.000  H
  H342     1.0000 0.76629  0.60634  0.87310  Biso   1.000  H
  H343     1.0000 0.12479  0.84922  0.89669  Biso   1.000  H
  H344     1.0000 0.14099  0.69532  0.88680  Biso   1.000  H
  C247     1.0000 0.18541  0.84339  0.87670  Biso   1.000  C
  H345     1.0000 0.14501  0.75607  0.89631  Biso   1.000  H
  H346     1.0000 0.16281  0.65093  0.85820  Biso   1.000  H
  C248     1.0000 0.19201  0.84297  0.85710  Biso   1.000  C
  H347     1.0000 0.18851  0.92894  0.85799  Biso   1.000  H
  H348     1.0000 0.19349  0.86485  0.90870  Biso   1.000  H
  C249     1.0000 0.21228  0.72814  0.85761  Biso   1.000  C
  H349     1.0000 0.18309  0.94186  0.85961  Biso   1.000  H
  C250     1.0000 0.22640  0.81390  0.89301  Biso   1.000  C
  H350     1.0000 0.20321  0.82911  0.82579  Biso   1.000  H
  H351     1.0000 0.21040  0.72877  0.82369  Biso   1.000  H
  H352     1.0000 0.20170  0.63739  0.86860  Biso   1.000  H
  C251     1.0000 0.25430  0.74200  0.87059  Biso   1.000  C
  C252     1.0000 0.25151  0.68897  0.87420  Biso   1.000  C
  H353     1.0000 0.21411  0.79066  0.92309  Biso   1.000  H
  H354     1.0000 0.24451  0.89653  0.89669  Biso   1.000  H
  H355     1.0000 0.27138  0.68073  0.85130  Biso   1.000  H
  H356     1.0000 0.26321  0.83849  0.86651  Biso   1.000  H
  H357     1.0000 0.25748  0.71491  0.90290  Biso   1.000  H
  H358     1.0000 0.26139  0.71064  0.84319  Biso   1.000  H
  H359     1.0000 0.27519  0.67115  0.89439  Biso   1.000  H
  H360     1.0000 0.23371  0.60634  0.87310  Biso   1.000  H
  C253     1.0000 0.63722  0.73127  0.65047  Biso   1.000  C
  C254     1.0000 0.59119  0.70657  0.64597  Biso   1.000  C
  H361     1.0000 0.64899  0.66094  0.67169  Biso   1.000  H
  H362     1.0000 0.65038  0.71804  0.62009  Biso   1.000  H
  O25      1.0000 0.64726  0.86798  0.66719  Biso   1.000  O
  O26      1.0000 0.57410  0.80681  0.61480  Biso   1.000  O
  H363     1.0000 0.58608  0.61123  0.63440  Biso   1.000  H
  H364     1.0000 0.57778  0.71554  0.67639  Biso   1.000  H
  C255     1.0000 0.62936  0.90695  0.70829  Biso   1.000  C
  C256     1.0000 0.53744  0.86735  0.62884  Biso   1.000  C
  C257     1.0000 0.59670  0.00302  0.70819  Biso   1.000  C
  C258     1.0000 0.64558  0.85777  0.75001  Biso   1.000  C
  C259     1.0000 0.49998  0.80150  0.61820  Biso   1.000  C
  C260     1.0000 0.53794  0.99510  0.65140  Biso   1.000  C
  C261     1.0000 0.57955  0.06148  0.66280  Biso   1.000  C
  C262     1.0000 0.58113  0.04585  0.75001  Biso   1.000  C
  C263     1.0000 0.67961  0.76065  0.75001  Biso   1.000  C
  C264     1.0000 0.62936  0.90695  0.79173  Biso   1.000  C
  C265     1.0000 0.49998  0.66615  0.59650  Biso   1.000  C
  C266     1.0000 0.46252  0.86735  0.62884  Biso   1.000  C
  C267     1.0000 0.49998  0.05439  0.66191  Biso   1.000  C
  H365     1.0000 0.59930  0.03407  0.63801  Biso   1.000  H
  C268     1.0000 0.57766  0.22194  0.66348  Biso   1.000  C
  C269     1.0000 0.59670  0.00302  0.79179  Biso   1.000  C
  H366     1.0000 0.55840  0.10858  0.75001  Biso   1.000  H
  C270     1.0000 0.70679  0.67980  0.75001  Biso   1.000  C
  O27      1.0000 0.64726  0.86798  0.83282  Biso   1.000  O
  C271     1.0000 0.49998  0.54809  0.58180  Biso   1.000  C
  C272     1.0000 0.46206  0.99510  0.65140  Biso   1.000  C
  O28      1.0000 0.42590  0.80681  0.61480  Biso   1.000  O
  H367     1.0000 0.49998  0.14171  0.67729  Biso   1.000  H
  H368     1.0000 0.56500  0.25435  0.63451  Biso   1.000  H
  H369     1.0000 0.55939  0.25175  0.68900  Biso   1.000  H
  C273     1.0000 0.61964  0.29228  0.66912  Biso   1.000  C
  C274     1.0000 0.57955  0.06148  0.83718  Biso   1.000  C
  I25      1.0000 0.75425  0.54517  0.75001  Biso   1.000  I
  I26      1.0000 0.74713  0.51474  0.75001  Biso   1.000  I
  C275     1.0000 0.63722  0.73127  0.84955  Biso   1.000  C
  I27      1.0000 0.49998  0.38950  0.54881  Biso   1.000  I
  I28      1.0000 0.49998  0.32937  0.56203  Biso   1.000  I
  C276     1.0000 0.42045  0.06148  0.66280  Biso   1.000  C
  C277     1.0000 0.40881  0.70657  0.64597  Biso   1.000  C
  H370     1.0000 0.61580  0.38929  0.67979  Biso   1.000  H
  H371     1.0000 0.63630  0.24185  0.69219  Biso   1.000  H
  C278     1.0000 0.64119  0.29197  0.62500  Biso   1.000  C
  H372     1.0000 0.62930  0.27498  0.70081  Biso   1.000  H
  H373     1.0000 0.61549  0.39398  0.66589  Biso   1.000  H
  C279     1.0000 0.65481  0.24893  0.63591  Biso   1.000  C
  C280     1.0000 0.53794  0.99510  0.84858  Biso   1.000  C
  H374     1.0000 0.59930  0.03407  0.86201  Biso   1.000  H
  C281     1.0000 0.57766  0.22194  0.83650  Biso   1.000  C
  C282     1.0000 0.59119  0.70657  0.85401  Biso   1.000  C
  H375     1.0000 0.64899  0.66094  0.82829  Biso   1.000  H
  H376     1.0000 0.65038  0.71804  0.87990  Biso   1.000  H
  C283     1.0000 0.40330  0.00302  0.70819  Biso   1.000  C
  H377     1.0000 0.40070  0.03407  0.63801  Biso   1.000  H
  C284     1.0000 0.42234  0.22194  0.66348  Biso   1.000  C
  H378     1.0000 0.41389  0.61123  0.63440  Biso   1.000  H
  H379     1.0000 0.42219  0.71554  0.67639  Biso   1.000  H
  C285     1.0000 0.36274  0.73127  0.65047  Biso   1.000  C
  H380     1.0000 0.62481  0.34917  0.60330  Biso   1.000  H
  H381     1.0000 0.64100  0.19527  0.61318  Biso   1.000  H
  C286     1.0000 0.68540  0.34344  0.62331  Biso   1.000  C
  H382     1.0000 0.64500  0.25612  0.60371  Biso   1.000  H
  H383     1.0000 0.66280  0.15088  0.64179  Biso   1.000  H
  C287     1.0000 0.69199  0.34302  0.64288  Biso   1.000  C
  C288     1.0000 0.53744  0.86735  0.87114  Biso   1.000  C
  C289     1.0000 0.49998  0.05439  0.83811  Biso   1.000  C
  H384     1.0000 0.56500  0.25435  0.86551  Biso   1.000  H
  H385     1.0000 0.55939  0.25175  0.81099  Biso   1.000  H
  C290     1.0000 0.61964  0.29228  0.83090  Biso   1.000  C
  O29      1.0000 0.57410  0.80681  0.88522  Biso   1.000  O
  H386     1.0000 0.58608  0.61123  0.86561  Biso   1.000  H
  H387     1.0000 0.57778  0.71554  0.82359  Biso   1.000  H
  C291     1.0000 0.37064  0.90695  0.70829  Biso   1.000  C
  C292     1.0000 0.41887  0.04585  0.75001  Biso   1.000  C
  H388     1.0000 0.43500  0.25435  0.63451  Biso   1.000  H
  H389     1.0000 0.44061  0.25175  0.68900  Biso   1.000  H
  C293     1.0000 0.38036  0.29228  0.66912  Biso   1.000  C
  H390     1.0000 0.35101  0.66094  0.67169  Biso   1.000  H
  H391     1.0000 0.34959  0.71804  0.62009  Biso   1.000  H
  O30      1.0000 0.35274  0.86798  0.66719  Biso   1.000  O
  H392     1.0000 0.68849  0.42899  0.64199  Biso   1.000  H
  H393     1.0000 0.69351  0.36491  0.59131  Biso   1.000  H
  C294     1.0000 0.71230  0.22820  0.64240  Biso   1.000  C
  H394     1.0000 0.68311  0.44191  0.64041  Biso   1.000  H
  C295     1.0000 0.72639  0.31385  0.60700  Biso   1.000  C
  H395     1.0000 0.70320  0.32906  0.67420  Biso   1.000  H
  C296     1.0000 0.49998  0.80150  0.88179  Biso   1.000  C
  C297     1.0000 0.46206  0.99510  0.84858  Biso   1.000  C
  H396     1.0000 0.49998  0.14171  0.82270  Biso   1.000  H
  H397     1.0000 0.61580  0.38929  0.82019  Biso   1.000  H
  H398     1.0000 0.63630  0.24185  0.80779  Biso   1.000  H
  C298     1.0000 0.64119  0.29197  0.87499  Biso   1.000  C
  H399     1.0000 0.62930  0.27498  0.79921  Biso   1.000  H
  H400     1.0000 0.61549  0.39398  0.83409  Biso   1.000  H
  C299     1.0000 0.65481  0.24893  0.86410  Biso   1.000  C
  C300     1.0000 0.35442  0.85777  0.75001  Biso   1.000  C
  C301     1.0000 0.40330  0.00302  0.79179  Biso   1.000  C
  H401     1.0000 0.44160  0.10858  0.75001  Biso   1.000  H
  H402     1.0000 0.38420  0.38929  0.67979  Biso   1.000  H
  H403     1.0000 0.36370  0.24185  0.69219  Biso   1.000  H
  C302     1.0000 0.35881  0.29197  0.62500  Biso   1.000  C
  H404     1.0000 0.37070  0.27498  0.70081  Biso   1.000  H
  H405     1.0000 0.38451  0.39398  0.66589  Biso   1.000  H
  C303     1.0000 0.34519  0.24893  0.63591  Biso   1.000  C
  H406     1.0000 0.71038  0.22882  0.67629  Biso   1.000  H
  H407     1.0000 0.70168  0.13744  0.63142  Biso   1.000  H
  C304     1.0000 0.75428  0.24195  0.62939  Biso   1.000  C
  C305     1.0000 0.75149  0.18902  0.62579  Biso   1.000  C
  H408     1.0000 0.71410  0.29072  0.57689  Biso   1.000  H
  H409     1.0000 0.74450  0.39648  0.60330  Biso   1.000  H
  C306     1.0000 0.46252  0.86735  0.87114  Biso   1.000  C
  C307     1.0000 0.49998  0.66615  0.90348  Biso   1.000  C
  C308     1.0000 0.42045  0.06148  0.83718  Biso   1.000  C
  H410     1.0000 0.62481  0.34917  0.89669  Biso   1.000  H
  H411     1.0000 0.64100  0.19527  0.88680  Biso   1.000  H
  C309     1.0000 0.68540  0.34344  0.87670  Biso   1.000  C
  H412     1.0000 0.64500  0.25612  0.89631  Biso   1.000  H
  H413     1.0000 0.66280  0.15088  0.85820  Biso   1.000  H
  C310     1.0000 0.69199  0.34302  0.85710  Biso   1.000  C
  C311     1.0000 0.32039  0.76065  0.75001  Biso   1.000  C
  C312     1.0000 0.37064  0.90695  0.79173  Biso   1.000  C
  H414     1.0000 0.37519  0.34917  0.60330  Biso   1.000  H
  H415     1.0000 0.35900  0.19527  0.61318  Biso   1.000  H
  C313     1.0000 0.31460  0.34344  0.62331  Biso   1.000  C
  H416     1.0000 0.35500  0.25612  0.60371  Biso   1.000  H
  H417     1.0000 0.33720  0.15088  0.64179  Biso   1.000  H
  C314     1.0000 0.30801  0.34302  0.64288  Biso   1.000  C
  H418     1.0000 0.77140  0.18068  0.64869  Biso   1.000  H
  H419     1.0000 0.76320  0.33854  0.63351  Biso   1.000  H
  H420     1.0000 0.75750  0.21486  0.59712  Biso   1.000  H
  H421     1.0000 0.76140  0.21069  0.65679  Biso   1.000  H
  H422     1.0000 0.77521  0.17120  0.60560  Biso   1.000  H
  H423     1.0000 0.73369  0.10628  0.62688  Biso   1.000  H
  O31      1.0000 0.42590  0.80681  0.88522  Biso   1.000  O
  C315     1.0000 0.49998  0.54809  0.91821  Biso   1.000  C
  H424     1.0000 0.40070  0.03407  0.86201  Biso   1.000  H
  C316     1.0000 0.42234  0.22194  0.83650  Biso   1.000  C
  H425     1.0000 0.68849  0.42899  0.85799  Biso   1.000  H
  H426     1.0000 0.69351  0.36491  0.90870  Biso   1.000  H
  C317     1.0000 0.71230  0.22820  0.85761  Biso   1.000  C
  H427     1.0000 0.68311  0.44191  0.85961  Biso   1.000  H
  C318     1.0000 0.72639  0.31385  0.89301  Biso   1.000  C
  H428     1.0000 0.70320  0.32906  0.82579  Biso   1.000  H
  C319     1.0000 0.29321  0.67980  0.75001  Biso   1.000  C
  O32      1.0000 0.35274  0.86798  0.83282  Biso   1.000  O
  H429     1.0000 0.31151  0.42899  0.64199  Biso   1.000  H
  H430     1.0000 0.30649  0.36491  0.59131  Biso   1.000  H
  C320     1.0000 0.28770  0.22820  0.64240  Biso   1.000  C
  H431     1.0000 0.31689  0.44191  0.64041  Biso   1.000  H
  C321     1.0000 0.27358  0.31385  0.60700  Biso   1.000  C
  H432     1.0000 0.29680  0.32906  0.67420  Biso   1.000  H
  C322     1.0000 0.40881  0.70657  0.85401  Biso   1.000  C
  I29      1.0000 0.49998  0.32937  0.93796  Biso   1.000  I
  I30      1.0000 0.49998  0.38950  0.95118  Biso   1.000  I
  H433     1.0000 0.43500  0.25435  0.86551  Biso   1.000  H
  H434     1.0000 0.44061  0.25175  0.81099  Biso   1.000  H
  C323     1.0000 0.38036  0.29228  0.83090  Biso   1.000  C
  H435     1.0000 0.71038  0.22882  0.82369  Biso   1.000  H
  H436     1.0000 0.70168  0.13744  0.86860  Biso   1.000  H
  C324     1.0000 0.75428  0.24195  0.87059  Biso   1.000  C
  C325     1.0000 0.75149  0.18902  0.87420  Biso   1.000  C
  H437     1.0000 0.71410  0.29072  0.92309  Biso   1.000  H
  H438     1.0000 0.74450  0.39648  0.89669  Biso   1.000  H
  I31      1.0000 0.24575  0.54517  0.75001  Biso   1.000  I
  I32      1.0000 0.25287  0.51474  0.75001  Biso   1.000  I
  C326     1.0000 0.36274  0.73127  0.84955  Biso   1.000  C
  H439     1.0000 0.28959  0.22882  0.67629  Biso   1.000  H
  H440     1.0000 0.29829  0.13744  0.63142  Biso   1.000  H
  C327     1.0000 0.24569  0.24195  0.62939  Biso   1.000  C
  C328     1.0000 0.24851  0.18902  0.62579  Biso   1.000  C
  H441     1.0000 0.28590  0.29072  0.57689  Biso   1.000  H
  H442     1.0000 0.25550  0.39648  0.60330  Biso   1.000  H
  H443     1.0000 0.41389  0.61123  0.86561  Biso   1.000  H
  H444     1.0000 0.42219  0.71554  0.82359  Biso   1.000  H
  H445     1.0000 0.38420  0.38929  0.82019  Biso   1.000  H
  H446     1.0000 0.36370  0.24185  0.80779  Biso   1.000  H
  C329     1.0000 0.35881  0.29197  0.87499  Biso   1.000  C
  H447     1.0000 0.37070  0.27498  0.79921  Biso   1.000  H
  H448     1.0000 0.38451  0.39398  0.83409  Biso   1.000  H
  C330     1.0000 0.34519  0.24893  0.86410  Biso   1.000  C
  H449     1.0000 0.77140  0.18068  0.85130  Biso   1.000  H
  H450     1.0000 0.76320  0.33854  0.86651  Biso   1.000  H
  H451     1.0000 0.75750  0.21486  0.90290  Biso   1.000  H
  H452     1.0000 0.76140  0.21069  0.84319  Biso   1.000  H
  H453     1.0000 0.77521  0.17120  0.89439  Biso   1.000  H
  H454     1.0000 0.73369  0.10628  0.87310  Biso   1.000  H
  H455     1.0000 0.35101  0.66094  0.82829  Biso   1.000  H
  H456     1.0000 0.34959  0.71804  0.87990  Biso   1.000  H
  H457     1.0000 0.22860  0.18068  0.64869  Biso   1.000  H
  H458     1.0000 0.23680  0.33854  0.63351  Biso   1.000  H
  H459     1.0000 0.24250  0.21486  0.59712  Biso   1.000  H
  H460     1.0000 0.23860  0.21069  0.65679  Biso   1.000  H
  H461     1.0000 0.22479  0.17120  0.60560  Biso   1.000  H
  H462     1.0000 0.26631  0.10628  0.62688  Biso   1.000  H
  H463     1.0000 0.37519  0.34917  0.89669  Biso   1.000  H
  H464     1.0000 0.35900  0.19527  0.88680  Biso   1.000  H
  C331     1.0000 0.31460  0.34344  0.87670  Biso   1.000  C
  H465     1.0000 0.35500  0.25612  0.89631  Biso   1.000  H
  H466     1.0000 0.33720  0.15088  0.85820  Biso   1.000  H
  C332     1.0000 0.30801  0.34302  0.85710  Biso   1.000  C
  H467     1.0000 0.31151  0.42899  0.85799  Biso   1.000  H
  H468     1.0000 0.30649  0.36491  0.90870  Biso   1.000  H
  C333     1.0000 0.28770  0.22820  0.85761  Biso   1.000  C
  H469     1.0000 0.31689  0.44191  0.85961  Biso   1.000  H
  C334     1.0000 0.27358  0.31385  0.89301  Biso   1.000  C
  H470     1.0000 0.29680  0.32906  0.82579  Biso   1.000  H
  H471     1.0000 0.28959  0.22882  0.82369  Biso   1.000  H
  H472     1.0000 0.29829  0.13744  0.86860  Biso   1.000  H
  C335     1.0000 0.24569  0.24195  0.87059  Biso   1.000  C
  C336     1.0000 0.24851  0.18902  0.87420  Biso   1.000  C
  H473     1.0000 0.28590  0.29072  0.92309  Biso   1.000  H
  H474     1.0000 0.25550  0.39648  0.89669  Biso   1.000  H
  H475     1.0000 0.22860  0.18068  0.85130  Biso   1.000  H
  H476     1.0000 0.23680  0.33854  0.86651  Biso   1.000  H
  H477     1.0000 0.24250  0.21486  0.90290  Biso   1.000  H
  H478     1.0000 0.23860  0.21069  0.84319  Biso   1.000  H
  H479     1.0000 0.22479  0.17120  0.89439  Biso   1.000  H
  H480     1.0000 0.26631  0.10628  0.87310  Biso   1.000  H
