data_image0
_cell_length_a       35.494
_cell_length_b       35.494
_cell_length_c       36.024
_cell_angle_alpha    90
_cell_angle_beta     90
_cell_angle_gamma    120

_symmetry_space_group_name_H-M    "P 1"
_symmetry_int_tables_number       1

loop_
  _symmetry_equiv_pos_as_xyz
  'x, y, z'

loop_
  _atom_site_label
  _atom_site_occupancy
  _atom_site_fract_x
  _atom_site_fract_y
  _atom_site_fract_z
  _atom_site_thermal_displace_type
  _atom_site_B_iso_or_equiv
  _atom_site_type_symbol
  O1       1.0000 0.54803  0.45607  0.55677  Biso   1.000  O
  C1       1.0000 0.54423  0.46547  0.59285  Biso   1.000  C
  H1       1.0000 0.52624  0.43356  0.55058  Biso   1.000  H
  C2       1.0000 0.50584  0.43626  0.61195  Biso   1.000  C
  C3       1.0000 0.57635  0.50178  0.61026  Biso   1.000  C
  O2       1.0000 0.47464  0.39956  0.59308  Biso   1.000  O
  C4       1.0000 0.50014  0.44368  0.64826  Biso   1.000  C
  O3       1.0000 0.61226  0.52738  0.58897  Biso   1.000  O
  C5       1.0000 0.57144  0.51167  0.64626  Biso   1.000  C
  H2       1.0000 0.46572  0.37816  0.60657  Biso   1.000  H
  C6       1.0000 0.53283  0.48206  0.66536  Biso   1.000  C
  C7       1.0000 0.45905  0.41098  0.66928  Biso   1.000  C
  H3       1.0000 0.63364  0.54017  0.60238  Biso   1.000  H
  C8       1.0000 0.60524  0.55386  0.66456  Biso   1.000  C
  H4       1.0000 0.52894  0.48798  0.68976  Biso   1.000  H
  C9       1.0000 0.46813  0.37848  0.68996  Biso   1.000  C
  H5       1.0000 0.43682  0.39436  0.65046  Biso   1.000  H
  C10      1.0000 0.44033  0.43287  0.69407  Biso   1.000  C
  C11      1.0000 0.63895  0.54628  0.68577  Biso   1.000  C
  H6       1.0000 0.62075  0.57507  0.64476  Biso   1.000  H
  C12      1.0000 0.58452  0.57306  0.68996  Biso   1.000  C
  C13      1.0000 0.48323  0.38626  0.72638  Biso   1.000  C
  C14      1.0000 0.46032  0.34016  0.67347  Biso   1.000  C
  H7       1.0000 0.43493  0.45226  0.67946  Biso   1.000  H
  H8       1.0000 0.46084  0.44898  0.71336  Biso   1.000  H
  H9       1.0000 0.41355  0.41098  0.70506  Biso   1.000  H
  C15      1.0000 0.67754  0.55568  0.66747  Biso   1.000  C
  C16      1.0000 0.63294  0.53167  0.72188  Biso   1.000  C
  H10      1.0000 0.56433  0.57787  0.67597  Biso   1.000  H
  H11      1.0000 0.60685  0.60019  0.69998  Biso   1.000  H
  H12      1.0000 0.56954  0.55318  0.70986  Biso   1.000  H
  C17      1.0000 0.49273  0.35838  0.74636  Biso   1.000  C
  H13      1.0000 0.48733  0.41147  0.73798  Biso   1.000  H
  O4       1.0000 0.44515  0.32828  0.63796  Biso   1.000  O
  C18      1.0000 0.46993  0.31198  0.69318  Biso   1.000  C
  O5       1.0000 0.68544  0.57097  0.63177  Biso   1.000  O
  C19      1.0000 0.70756  0.54758  0.68626  Biso   1.000  C
  C20      1.0000 0.66264  0.52367  0.74148  Biso   1.000  C
  H14      1.0000 0.60773  0.52666  0.73407  Biso   1.000  H
  C21      1.0000 0.48364  0.31995  0.72926  Biso   1.000  C
  C22      1.0000 0.51105  0.36807  0.78498  Biso   1.000  C
  H15      1.0000 0.45444  0.35008  0.62497  Biso   1.000  H
  O6       1.0000 0.46252  0.27366  0.67536  Biso   1.000  O
  H16      1.0000 0.66333  0.55757  0.61936  Biso   1.000  H
  O7       1.0000 0.74474  0.55699  0.66606  Biso   1.000  O
  C23      1.0000 0.70034  0.53236  0.72107  Biso   1.000  C
  C24      1.0000 0.65544  0.50916  0.78098  Biso   1.000  C
  O8       1.0000 0.49073  0.28957  0.74778  Biso   1.000  O
  H17      1.0000 0.50074  0.33996  0.79736  Biso   1.000  H
  C25      1.0000 0.49324  0.39286  0.80746  Biso   1.000  C
  C26      1.0000 0.56004  0.39117  0.78537  Biso   1.000  C
  H18      1.0000 0.46924  0.25977  0.68926  Biso   1.000  H
  H19      1.0000 0.75784  0.54638  0.67658  Biso   1.000  H
  O9       1.0000 0.73184  0.52488  0.73695  Biso   1.000  O
  C27      1.0000 0.62984  0.45949  0.78367  Biso   1.000  C
  H20      1.0000 0.68423  0.51886  0.79178  Biso   1.000  H
  C28      1.0000 0.63423  0.52946  0.80416  Biso   1.000  C
  H21      1.0000 0.51313  0.30235  0.76016  Biso   1.000  H
  H22      1.0000 0.50524  0.39826  0.83206  Biso   1.000  H
  H23      1.0000 0.46213  0.37578  0.80877  Biso   1.000  H
  H24      1.0000 0.50143  0.42006  0.79555  Biso   1.000  H
  C29      1.0000 0.58295  0.36937  0.78806  Biso   1.000  C
  C30      1.0000 0.58434  0.43577  0.78287  Biso   1.000  C
  H25      1.0000 0.72023  0.50487  0.75197  Biso   1.000  H
  C31      1.0000 0.65105  0.43587  0.78675  Biso   1.000  C
  H26      1.0000 0.65113  0.56066  0.80227  Biso   1.000  H
  H27      1.0000 0.63294  0.52107  0.82967  Biso   1.000  H
  H28      1.0000 0.60533  0.51967  0.79516  Biso   1.000  H
  O10      1.0000 0.56290  0.32392  0.79028  Biso   1.000  O
  C32      1.0000 0.62734  0.39058  0.78956  Biso   1.000  C
  H29      1.0000 0.56952  0.45116  0.78067  Biso   1.000  H
  O11      1.0000 0.69621  0.45789  0.78847  Biso   1.000  O
  H30      1.0000 0.54084  0.31277  0.77745  Biso   1.000  H
  O12      1.0000 0.65141  0.36960  0.79236  Biso   1.000  O
  H31      1.0000 0.70613  0.47757  0.77307  Biso   1.000  H
  H32      1.0000 0.63505  0.34318  0.79106  Biso   1.000  H
  O13      1.0000 0.45197  0.54394  0.44323  Biso   1.000  O
  C33      1.0000 0.45578  0.53454  0.40715  Biso   1.000  C
  H33      1.0000 0.47377  0.56645  0.44942  Biso   1.000  H
  C34      1.0000 0.42368  0.49823  0.38974  Biso   1.000  C
  C35      1.0000 0.49417  0.56375  0.38805  Biso   1.000  C
  C36      1.0000 0.42857  0.48834  0.35374  Biso   1.000  C
  O14      1.0000 0.38778  0.47263  0.41103  Biso   1.000  O
  C37      1.0000 0.49987  0.55633  0.35174  Biso   1.000  C
  O15      1.0000 0.52539  0.60045  0.40692  Biso   1.000  O
  C38      1.0000 0.39476  0.44615  0.33544  Biso   1.000  C
  C39      1.0000 0.46718  0.51795  0.33464  Biso   1.000  C
  H34      1.0000 0.36637  0.45984  0.39762  Biso   1.000  H
  C40      1.0000 0.54098  0.58903  0.33072  Biso   1.000  C
  H35      1.0000 0.53429  0.62185  0.39343  Biso   1.000  H
  C41      1.0000 0.41547  0.42692  0.31004  Biso   1.000  C
  C42      1.0000 0.36106  0.45373  0.31423  Biso   1.000  C
  H36      1.0000 0.37926  0.42494  0.35524  Biso   1.000  H
  H37      1.0000 0.47106  0.51203  0.31024  Biso   1.000  H
  C43      1.0000 0.53187  0.62153  0.31004  Biso   1.000  C
  H38      1.0000 0.56318  0.60565  0.34954  Biso   1.000  H
  C44      1.0000 0.55967  0.56714  0.30593  Biso   1.000  C
  H39      1.0000 0.43567  0.42214  0.32403  Biso   1.000  H
  H40      1.0000 0.39315  0.39982  0.30002  Biso   1.000  H
  H41      1.0000 0.43046  0.44683  0.29014  Biso   1.000  H
  C45      1.0000 0.32246  0.44433  0.33253  Biso   1.000  C
  C46      1.0000 0.36706  0.46833  0.27812  Biso   1.000  C
  C47      1.0000 0.51677  0.61375  0.27362  Biso   1.000  C
  C48      1.0000 0.53968  0.65985  0.32653  Biso   1.000  C
  H42      1.0000 0.56508  0.54775  0.32054  Biso   1.000  H
  H43      1.0000 0.53917  0.55103  0.28664  Biso   1.000  H
  H44      1.0000 0.58648  0.58903  0.29494  Biso   1.000  H
  O16      1.0000 0.31456  0.42904  0.36823  Biso   1.000  O
  C49      1.0000 0.29245  0.45243  0.31374  Biso   1.000  C
  C50      1.0000 0.33737  0.47634  0.25852  Biso   1.000  C
  H45      1.0000 0.39228  0.47334  0.26593  Biso   1.000  H
  C51      1.0000 0.50727  0.64163  0.25364  Biso   1.000  C
  H46      1.0000 0.51267  0.58854  0.26202  Biso   1.000  H
  O17      1.0000 0.55486  0.67173  0.36204  Biso   1.000  O
  C52      1.0000 0.53007  0.68803  0.30682  Biso   1.000  C
  H47      1.0000 0.33668  0.44244  0.38064  Biso   1.000  H
  O18      1.0000 0.25526  0.44302  0.33394  Biso   1.000  O
  C53      1.0000 0.29967  0.46765  0.27893  Biso   1.000  C
  C54      1.0000 0.34457  0.49085  0.21902  Biso   1.000  C
  C55      1.0000 0.48898  0.63194  0.21502  Biso   1.000  C
  C56      1.0000 0.51637  0.68005  0.27074  Biso   1.000  C
  H48      1.0000 0.54557  0.64993  0.37503  Biso   1.000  H
  O19      1.0000 0.53749  0.72635  0.32464  Biso   1.000  O
  H49      1.0000 0.24217  0.45363  0.32342  Biso   1.000  H
  O20      1.0000 0.26816  0.47513  0.26305  Biso   1.000  O
  C57      1.0000 0.37017  0.54052  0.21633  Biso   1.000  C
  H50      1.0000 0.31577  0.48115  0.20822  Biso   1.000  H
  C58      1.0000 0.36577  0.47055  0.19584  Biso   1.000  C
  C59      1.0000 0.43996  0.60884  0.21463  Biso   1.000  C
  H51      1.0000 0.49926  0.66005  0.20264  Biso   1.000  H
  C60      1.0000 0.50676  0.60715  0.19254  Biso   1.000  C
  O21      1.0000 0.50927  0.71044  0.25222  Biso   1.000  O
  H52      1.0000 0.53077  0.74024  0.31074  Biso   1.000  H
  H53      1.0000 0.27977  0.49514  0.24803  Biso   1.000  H
  C61      1.0000 0.34898  0.56414  0.21325  Biso   1.000  C
  C62      1.0000 0.41566  0.56424  0.21713  Biso   1.000  C
  H54      1.0000 0.34888  0.43935  0.19773  Biso   1.000  H
  H55      1.0000 0.36707  0.47894  0.17033  Biso   1.000  H
  H56      1.0000 0.39467  0.48034  0.20484  Biso   1.000  H
  C63      1.0000 0.41708  0.63064  0.21194  Biso   1.000  C
  H57      1.0000 0.49477  0.60175  0.16794  Biso   1.000  H
  H58      1.0000 0.53787  0.62423  0.19123  Biso   1.000  H
  H59      1.0000 0.49858  0.57995  0.20445  Biso   1.000  H
  H60      1.0000 0.48688  0.69765  0.23984  Biso   1.000  H
  O22      1.0000 0.30383  0.54212  0.21153  Biso   1.000  O
  C64      1.0000 0.37267  0.60943  0.21044  Biso   1.000  C
  H61      1.0000 0.43048  0.54885  0.21933  Biso   1.000  H
  O23      1.0000 0.43710  0.67609  0.20972  Biso   1.000  O
  H62      1.0000 0.29387  0.52244  0.22693  Biso   1.000  H
  O24      1.0000 0.34862  0.63041  0.20764  Biso   1.000  O
  H63      1.0000 0.45916  0.68724  0.22255  Biso   1.000  H
  H64      1.0000 0.36495  0.65683  0.20894  Biso   1.000  H
  O25      1.0000 0.53537  0.40984  0.49084  Biso   1.000  O
  C65      1.0000 0.50216  0.37243  0.47374  Biso   1.000  C
  H65      1.0000 0.55565  0.42263  0.47624  Biso   1.000  H
  C66      1.0000 0.50779  0.36374  0.43854  Biso   1.000  C
  C67      1.0000 0.46508  0.34595  0.49373  Biso   1.000  C
  C68      1.0000 0.47637  0.32643  0.42022  Biso   1.000  C
  O26      1.0000 0.54577  0.39244  0.41922  Biso   1.000  O
  C69      1.0000 0.43199  0.30935  0.47654  Biso   1.000  C
  O27      1.0000 0.46247  0.35815  0.52884  Biso   1.000  O
  C70      1.0000 0.48398  0.31625  0.38113  Biso   1.000  C
  C71      1.0000 0.43818  0.30005  0.44043  Biso   1.000  C
  H66      1.0000 0.55368  0.37845  0.40665  Biso   1.000  H
  C72      1.0000 0.38869  0.27955  0.49622  Biso   1.000  C
  H67      1.0000 0.44717  0.33645  0.54144  Biso   1.000  H
  C73      1.0000 0.44108  0.29422  0.35823  Biso   1.000  C
  C74      1.0000 0.50618  0.28924  0.38064  Biso   1.000  C
  H68      1.0000 0.50366  0.34393  0.36903  Biso   1.000  H
  H69      1.0000 0.41605  0.27522  0.42902  Biso   1.000  H
  H70      1.0000 0.38448  0.29744  0.51455  Biso   1.000  H
  C75      1.0000 0.34998  0.26123  0.47083  Biso   1.000  C
  C76      1.0000 0.39277  0.24455  0.51782  Biso   1.000  C
  H71      1.0000 0.44696  0.28863  0.33353  Biso   1.000  H
  H72      1.0000 0.42905  0.31322  0.35735  Biso   1.000  H
  H73      1.0000 0.42057  0.26735  0.36984  Biso   1.000  H
  C77      1.0000 0.48266  0.24412  0.38344  Biso   1.000  C
  C78      1.0000 0.55078  0.30733  0.37794  Biso   1.000  C
  H74      1.0000 0.32396  0.24363  0.48493  Biso   1.000  H
  H75      1.0000 0.35306  0.24373  0.45203  Biso   1.000  H
  H76      1.0000 0.34818  0.28462  0.45933  Biso   1.000  H
  C79      1.0000 0.40358  0.25034  0.55494  Biso   1.000  C
  C80      1.0000 0.38547  0.20645  0.50164  Biso   1.000  C
  C81      1.0000 0.50016  0.21693  0.38283  Biso   1.000  C
  H77      1.0000 0.45267  0.23114  0.38594  Biso   1.000  H
  O28      1.0000 0.57837  0.35255  0.37472  Biso   1.000  O
  C82      1.0000 0.57068  0.28313  0.37683  Biso   1.000  C
  O29      1.0000 0.41168  0.28749  0.57334  Biso   1.000  O
  C83      1.0000 0.40846  0.21914  0.57423  Biso   1.000  C
  C84      1.0000 0.38907  0.17415  0.52054  Biso   1.000  C
  H78      1.0000 0.37777  0.20193  0.47674  Biso   1.000  H
  C85      1.0000 0.47338  0.16855  0.38733  Biso   1.000  C
  C86      1.0000 0.54556  0.23853  0.37914  Biso   1.000  C
  H79      1.0000 0.56918  0.36504  0.38782  Biso   1.000  H
  O30      1.0000 0.61467  0.30125  0.37303  Biso   1.000  O
  H80      1.0000 0.42686  0.30873  0.56032  Biso   1.000  H
  O31      1.0000 0.41937  0.22574  0.61043  Biso   1.000  O
  C87      1.0000 0.40136  0.18104  0.55663  Biso   1.000  C
  C88      1.0000 0.37777  0.13104  0.50064  Biso   1.000  C
  C89      1.0000 0.46457  0.15453  0.42663  Biso   1.000  C
  H81      1.0000 0.49076  0.15655  0.37722  Biso   1.000  H
  C90      1.0000 0.43115  0.14923  0.36354  Biso   1.000  C
  O32      1.0000 0.56538  0.21302  0.37783  Biso   1.000  O
  H82      1.0000 0.62008  0.29464  0.35263  Biso   1.000  H
  H83      1.0000 0.42217  0.24913  0.61703  Biso   1.000  H
  O33      1.0000 0.40648  0.15183  0.57792  Biso   1.000  O
  C91      1.0000 0.41817  0.13543  0.48104  Biso   1.000  C
  H84      1.0000 0.36935  0.10863  0.51982  Biso   1.000  H
  C92      1.0000 0.33929  0.11595  0.47443  Biso   1.000  C
  C93      1.0000 0.49209  0.14415  0.44654  Biso   1.000  C
  C94      1.0000 0.42797  0.15014  0.44484  Biso   1.000  C
  H85      1.0000 0.43856  0.15892  0.33833  Biso   1.000  H
  H86      1.0000 0.41228  0.15892  0.37322  Biso   1.000  H
  H87      1.0000 0.41668  0.11803  0.36434  Biso   1.000  H
  H88      1.0000 0.55467  0.19402  0.39374  Biso   1.000  H
  H89      1.0000 0.41517  0.13885  0.56485  Biso   1.000  H
  C95      1.0000 0.44517  0.12323  0.49972  Biso   1.000  C
  H90      1.0000 0.33308  0.08904  0.46302  Biso   1.000  H
  H91      1.0000 0.34617  0.13755  0.45553  Biso   1.000  H
  H92      1.0000 0.31428  0.11185  0.48804  Biso   1.000  H
  O34      1.0000 0.53025  0.14812  0.43143  Biso   1.000  O
  C96      1.0000 0.48246  0.12844  0.48154  Biso   1.000  C
  H93      1.0000 0.40957  0.15723  0.43224  Biso   1.000  H
  O35      1.0000 0.43556  0.10732  0.53514  Biso   1.000  O
  H94      1.0000 0.54008  0.16744  0.41572  Biso   1.000  H
  O36      1.0000 0.50849  0.11744  0.50194  Biso   1.000  O
  H95      1.0000 0.42697  0.12125  0.54714  Biso   1.000  H
  H96      1.0000 0.53116  0.12492  0.49065  Biso   1.000  H
  O37      1.0000 0.46463  0.59017  0.50916  Biso   1.000  O
  H97      1.0000 0.44435  0.57738  0.52376  Biso   1.000  H
  C97      1.0000 0.49785  0.62758  0.52626  Biso   1.000  C
  C98      1.0000 0.49225  0.63627  0.56146  Biso   1.000  C
  C99      1.0000 0.53492  0.65406  0.50627  Biso   1.000  C
  O38      1.0000 0.45423  0.60757  0.58078  Biso   1.000  O
  C100     1.0000 0.52364  0.67358  0.57978  Biso   1.000  C
  O39      1.0000 0.53753  0.64186  0.47116  Biso   1.000  O
  C101     1.0000 0.56804  0.69066  0.52346  Biso   1.000  C
  H98      1.0000 0.44632  0.62156  0.59335  Biso   1.000  H
  C102     1.0000 0.56182  0.69996  0.55957  Biso   1.000  C
  C103     1.0000 0.51602  0.68376  0.61887  Biso   1.000  C
  H99      1.0000 0.55283  0.66356  0.45856  Biso   1.000  H
  C104     1.0000 0.61134  0.72046  0.50378  Biso   1.000  C
  H100     1.0000 0.58395  0.72479  0.57098  Biso   1.000  H
  C105     1.0000 0.49383  0.71077  0.61936  Biso   1.000  C
  H101     1.0000 0.49635  0.65608  0.63097  Biso   1.000  H
  C106     1.0000 0.55896  0.70579  0.64177  Biso   1.000  C
  H102     1.0000 0.61553  0.70257  0.48545  Biso   1.000  H
  C107     1.0000 0.65003  0.73878  0.52917  Biso   1.000  C
  C108     1.0000 0.60724  0.75546  0.48218  Biso   1.000  C
  C109     1.0000 0.51735  0.75589  0.61656  Biso   1.000  C
  C110     1.0000 0.44923  0.69268  0.62206  Biso   1.000  C
  H103     1.0000 0.55305  0.71138  0.66647  Biso   1.000  H
  H104     1.0000 0.57094  0.68676  0.64265  Biso   1.000  H
  H105     1.0000 0.57944  0.73266  0.63016  Biso   1.000  H
  H106     1.0000 0.67604  0.75638  0.51507  Biso   1.000  H
  H107     1.0000 0.64694  0.75628  0.54797  Biso   1.000  H
  H108     1.0000 0.65185  0.71538  0.54067  Biso   1.000  H
  C111     1.0000 0.59645  0.74967  0.44506  Biso   1.000  C
  C112     1.0000 0.61453  0.79356  0.49836  Biso   1.000  C
  C113     1.0000 0.49984  0.78308  0.61717  Biso   1.000  C
  H109     1.0000 0.54733  0.76887  0.61406  Biso   1.000  H
  O40      1.0000 0.42163  0.64746  0.62528  Biso   1.000  O
  C114     1.0000 0.42935  0.71688  0.62317  Biso   1.000  C
  O41      1.0000 0.58833  0.71252  0.42666  Biso   1.000  O
  C115     1.0000 0.59154  0.78087  0.42577  Biso   1.000  C
  C116     1.0000 0.61094  0.82586  0.47946  Biso   1.000  C
  H110     1.0000 0.62223  0.79808  0.52326  Biso   1.000  H
  C117     1.0000 0.52662  0.83146  0.61267  Biso   1.000  C
  C118     1.0000 0.45444  0.76148  0.62086  Biso   1.000  C
  H111     1.0000 0.43083  0.63496  0.61218  Biso   1.000  H
  O42      1.0000 0.38533  0.69876  0.62697  Biso   1.000  O
  H112     1.0000 0.57314  0.69128  0.43968  Biso   1.000  H
  O43      1.0000 0.58063  0.77427  0.38957  Biso   1.000  O
  C119     1.0000 0.59864  0.81897  0.44337  Biso   1.000  C
  C120     1.0000 0.62223  0.86897  0.49936  Biso   1.000  C
  C121     1.0000 0.53544  0.84548  0.57337  Biso   1.000  C
  H113     1.0000 0.50924  0.84346  0.62278  Biso   1.000  H
  C122     1.0000 0.56885  0.85078  0.63646  Biso   1.000  C
  O44      1.0000 0.43466  0.78699  0.62217  Biso   1.000  O
  H114     1.0000 0.37993  0.70536  0.64737  Biso   1.000  H
  H115     1.0000 0.57784  0.75088  0.38297  Biso   1.000  H
  O45      1.0000 0.59356  0.84818  0.42208  Biso   1.000  O
  H116     1.0000 0.63065  0.89138  0.48018  Biso   1.000  H
  C123     1.0000 0.66075  0.88406  0.52557  Biso   1.000  C
  C124     1.0000 0.58184  0.86458  0.51896  Biso   1.000  C
  C125     1.0000 0.50794  0.85586  0.55346  Biso   1.000  C
  C126     1.0000 0.57203  0.84987  0.55516  Biso   1.000  C
  H117     1.0000 0.56144  0.84109  0.66167  Biso   1.000  H
  H118     1.0000 0.58776  0.84109  0.62678  Biso   1.000  H
  H119     1.0000 0.58335  0.88198  0.63566  Biso   1.000  H
  H120     1.0000 0.44534  0.80599  0.60626  Biso   1.000  H
  H121     1.0000 0.58483  0.86116  0.43515  Biso   1.000  H
  H122     1.0000 0.66693  0.91097  0.53698  Biso   1.000  H
  H123     1.0000 0.65383  0.86246  0.54447  Biso   1.000  H
  H124     1.0000 0.68573  0.88816  0.51196  Biso   1.000  H
  C127     1.0000 0.55483  0.87678  0.50028  Biso   1.000  C
  O46      1.0000 0.46976  0.85189  0.56857  Biso   1.000  O
  C128     1.0000 0.51755  0.87157  0.51846  Biso   1.000  C
  H125     1.0000 0.59043  0.84278  0.56776  Biso   1.000  H
  O47      1.0000 0.56445  0.89269  0.46486  Biso   1.000  O
  H126     1.0000 0.45992  0.83257  0.58428  Biso   1.000  H
  O48      1.0000 0.49155  0.88257  0.49806  Biso   1.000  O
  H127     1.0000 0.57304  0.87876  0.45286  Biso   1.000  H
  H128     1.0000 0.46884  0.87509  0.50935  Biso   1.000  H
  O49      1.0000 0.39105  0.50848  0.49806  Biso   1.000  O
  C129     1.0000 0.35405  0.48249  0.51846  Biso   1.000  C
  H129     1.0000 0.40624  0.53119  0.50935  Biso   1.000  H
  C130     1.0000 0.32193  0.44517  0.50028  Biso   1.000  C
  C131     1.0000 0.34795  0.49208  0.55346  Biso   1.000  C
  C132     1.0000 0.28273  0.41817  0.51896  Biso   1.000  C
  O50      1.0000 0.32823  0.43557  0.46486  Biso   1.000  O
  C133     1.0000 0.31004  0.46456  0.57337  Biso   1.000  C
  O51      1.0000 0.38214  0.53028  0.56857  Biso   1.000  O
  C134     1.0000 0.24672  0.37776  0.49936  Biso   1.000  C
  C135     1.0000 0.27782  0.42796  0.55516  Biso   1.000  C
  H130     1.0000 0.30573  0.42699  0.45286  Biso   1.000  H
  C136     1.0000 0.30484  0.47338  0.61267  Biso   1.000  C
  H131     1.0000 0.37264  0.54007  0.58428  Biso   1.000  H
  C137     1.0000 0.21494  0.38909  0.47946  Biso   1.000  C
  H132     1.0000 0.26073  0.36937  0.48018  Biso   1.000  H
  C138     1.0000 0.22334  0.33928  0.52557  Biso   1.000  C
  H133     1.0000 0.25235  0.40958  0.56776  Biso   1.000  H
  H134     1.0000 0.33425  0.49078  0.62278  Biso   1.000  H
  C139     1.0000 0.28194  0.43118  0.63646  Biso   1.000  C
  C140     1.0000 0.28325  0.50018  0.61717  Biso   1.000  C
  C141     1.0000 0.22033  0.40138  0.44337  Biso   1.000  C
  C142     1.0000 0.17905  0.38547  0.49836  Biso   1.000  C
  H135     1.0000 0.24404  0.33307  0.53698  Biso   1.000  H
  H136     1.0000 0.20864  0.34618  0.54447  Biso   1.000  H
  H137     1.0000 0.20243  0.31426  0.51196  Biso   1.000  H
  H138     1.0000 0.27963  0.43857  0.66167  Biso   1.000  H
  H139     1.0000 0.25333  0.41228  0.62678  Biso   1.000  H
  H140     1.0000 0.29863  0.41667  0.63566  Biso   1.000  H
  C143     1.0000 0.23855  0.48268  0.61656  Biso   1.000  C
  C144     1.0000 0.30704  0.54557  0.62086  Biso   1.000  C
  O52      1.0000 0.25462  0.40646  0.42208  Biso   1.000  O
  C145     1.0000 0.18933  0.40848  0.42577  Biso   1.000  C
  C146     1.0000 0.14823  0.39276  0.48218  Biso   1.000  C
  H141     1.0000 0.17584  0.37776  0.52326  Biso   1.000  H
  C147     1.0000 0.21694  0.50617  0.61936  Biso   1.000  C
  H142     1.0000 0.22155  0.45269  0.61406  Biso   1.000  H
  O53      1.0000 0.35233  0.56538  0.62217  Biso   1.000  O
  C148     1.0000 0.28754  0.57068  0.62317  Biso   1.000  C
  H143     1.0000 0.27633  0.41518  0.43515  Biso   1.000  H
  O54      1.0000 0.19363  0.41937  0.38957  Biso   1.000  O
  C149     1.0000 0.15324  0.40356  0.44506  Biso   1.000  C
  C150     1.0000 0.10913  0.38866  0.50378  Biso   1.000  C
  C151     1.0000 0.16775  0.48398  0.61887  Biso   1.000  C
  C152     1.0000 0.24344  0.55077  0.62206  Biso   1.000  C
  H144     1.0000 0.36065  0.55468  0.60626  Biso   1.000  H
  O55      1.0000 0.31345  0.61466  0.62697  Biso   1.000  O
  H145     1.0000 0.17302  0.42217  0.38297  Biso   1.000  H
  O56      1.0000 0.12418  0.41166  0.42666  Biso   1.000  O
  C153     1.0000 0.12264  0.43196  0.52346  Biso   1.000  C
  H146     1.0000 0.08703  0.38447  0.48545  Biso   1.000  H
  C154     1.0000 0.08875  0.34998  0.52917  Biso   1.000  C
  C155     1.0000 0.14994  0.47637  0.57978  Biso   1.000  C
  H147     1.0000 0.15973  0.50366  0.63097  Biso   1.000  H
  C156     1.0000 0.14683  0.44107  0.64177  Biso   1.000  C
  O57      1.0000 0.22582  0.57836  0.62528  Biso   1.000  O
  H148     1.0000 0.32544  0.62007  0.64737  Biso   1.000  H
  H149     1.0000 0.11812  0.42686  0.43968  Biso   1.000  H
  C157     1.0000 0.13815  0.43818  0.55957  Biso   1.000  C
  C158     1.0000 0.11914  0.46508  0.50627  Biso   1.000  C
  H150     1.0000 0.08033  0.32396  0.51507  Biso   1.000  H
  H151     1.0000 0.10934  0.35307  0.54797  Biso   1.000  H
  H152     1.0000 0.06353  0.34816  0.54067  Biso   1.000  H
  C159     1.0000 0.14403  0.50776  0.56146  Biso   1.000  C
  H153     1.0000 0.15834  0.44696  0.66647  Biso   1.000  H
  H154     1.0000 0.11584  0.42907  0.64265  Biso   1.000  H
  H155     1.0000 0.15324  0.42058  0.63016  Biso   1.000  H
  H156     1.0000 0.20413  0.56918  0.61218  Biso   1.000  H
  H157     1.0000 0.14083  0.41606  0.57098  Biso   1.000  H
  O58      1.0000 0.10434  0.46248  0.47116  Biso   1.000  O
  C160     1.0000 0.12974  0.50217  0.52626  Biso   1.000  C
  O59      1.0000 0.15334  0.54576  0.58078  Biso   1.000  O
  H158     1.0000 0.11071  0.44716  0.45856  Biso   1.000  H
  O60      1.0000 0.12553  0.53538  0.50916  Biso   1.000  O
  H159     1.0000 0.17524  0.55367  0.59335  Biso   1.000  H
  H160     1.0000 0.13303  0.55568  0.52376  Biso   1.000  H
  O61      1.0000 0.60898  0.49153  0.50194  Biso   1.000  O
  C161     1.0000 0.64595  0.51752  0.48154  Biso   1.000  C
  H161     1.0000 0.59377  0.46882  0.49065  Biso   1.000  H
  C162     1.0000 0.65206  0.50793  0.44654  Biso   1.000  C
  C163     1.0000 0.67808  0.55484  0.49972  Biso   1.000  C
  C164     1.0000 0.68996  0.53545  0.42663  Biso   1.000  C
  O62      1.0000 0.61786  0.46973  0.43143  Biso   1.000  O
  C165     1.0000 0.71727  0.58184  0.48104  Biso   1.000  C
  O63      1.0000 0.67178  0.56443  0.53514  Biso   1.000  O
  C166     1.0000 0.69516  0.52663  0.38733  Biso   1.000  C
  C167     1.0000 0.72218  0.57205  0.44484  Biso   1.000  C
  H162     1.0000 0.62736  0.45994  0.41572  Biso   1.000  H
  C168     1.0000 0.75328  0.62224  0.50064  Biso   1.000  C
  H163     1.0000 0.69427  0.57302  0.54714  Biso   1.000  H
  C169     1.0000 0.71678  0.49983  0.38283  Biso   1.000  C
  H164     1.0000 0.66575  0.50923  0.37722  Biso   1.000  H
  C170     1.0000 0.71806  0.56883  0.36354  Biso   1.000  C
  H165     1.0000 0.74766  0.59043  0.43224  Biso   1.000  H
  C171     1.0000 0.78506  0.61092  0.52054  Biso   1.000  C
  H166     1.0000 0.73928  0.63064  0.51982  Biso   1.000  H
  C172     1.0000 0.77667  0.66073  0.47443  Biso   1.000  C
  C173     1.0000 0.69296  0.45444  0.37914  Biso   1.000  C
  C174     1.0000 0.76148  0.51733  0.38344  Biso   1.000  C
  H167     1.0000 0.72037  0.56144  0.33833  Biso   1.000  H
  H168     1.0000 0.74667  0.58773  0.37322  Biso   1.000  H
  H169     1.0000 0.70137  0.58334  0.36434  Biso   1.000  H
  C175     1.0000 0.77968  0.59863  0.55663  Biso   1.000  C
  C176     1.0000 0.82096  0.61453  0.50164  Biso   1.000  C
  H170     1.0000 0.75597  0.66694  0.46302  Biso   1.000  H
  H171     1.0000 0.79136  0.65383  0.45553  Biso   1.000  H
  H172     1.0000 0.79757  0.68575  0.48804  Biso   1.000  H
  O64      1.0000 0.64767  0.43463  0.37783  Biso   1.000  O
  C177     1.0000 0.71247  0.42933  0.37683  Biso   1.000  C
  H173     1.0000 0.77848  0.54732  0.38594  Biso   1.000  H
  C178     1.0000 0.78307  0.49384  0.38064  Biso   1.000  C
  O65      1.0000 0.74539  0.59355  0.57792  Biso   1.000  O
  C179     1.0000 0.81067  0.59153  0.57423  Biso   1.000  C
  C180     1.0000 0.85177  0.60725  0.51782  Biso   1.000  C
  H174     1.0000 0.82417  0.62224  0.47674  Biso   1.000  H
  H175     1.0000 0.63936  0.44533  0.39374  Biso   1.000  H
  O66      1.0000 0.68659  0.38534  0.37303  Biso   1.000  O
  C181     1.0000 0.75657  0.44924  0.37794  Biso   1.000  C
  C182     1.0000 0.83228  0.51603  0.38113  Biso   1.000  C
  H176     1.0000 0.72367  0.58483  0.56485  Biso   1.000  H
  O67      1.0000 0.80638  0.58064  0.61043  Biso   1.000  O
  C183     1.0000 0.84677  0.59645  0.55494  Biso   1.000  C
  C184     1.0000 0.89087  0.61135  0.49622  Biso   1.000  C
  H177     1.0000 0.67459  0.37994  0.35263  Biso   1.000  H
  O68      1.0000 0.77419  0.42165  0.37472  Biso   1.000  O
  C185     1.0000 0.85009  0.52364  0.42022  Biso   1.000  C
  H178     1.0000 0.84027  0.49634  0.36903  Biso   1.000  H
  C186     1.0000 0.85317  0.55894  0.35823  Biso   1.000  C
  H179     1.0000 0.82698  0.57784  0.61703  Biso   1.000  H
  O69      1.0000 0.87582  0.58835  0.57334  Biso   1.000  O
  C187     1.0000 0.87739  0.56805  0.47654  Biso   1.000  C
  H180     1.0000 0.91297  0.61554  0.51455  Biso   1.000  H
  C188     1.0000 0.91128  0.65003  0.47083  Biso   1.000  C
  H181     1.0000 0.79588  0.43082  0.38782  Biso   1.000  H
  C189     1.0000 0.85597  0.49225  0.43854  Biso   1.000  C
  C190     1.0000 0.86186  0.56183  0.44043  Biso   1.000  C
  H182     1.0000 0.84169  0.55305  0.33353  Biso   1.000  H
  H183     1.0000 0.88416  0.57094  0.35735  Biso   1.000  H
  H184     1.0000 0.84677  0.57943  0.36984  Biso   1.000  H
  H185     1.0000 0.88189  0.57315  0.56032  Biso   1.000  H
  C191     1.0000 0.88086  0.53493  0.49373  Biso   1.000  C
  H186     1.0000 0.91967  0.67605  0.48493  Biso   1.000  H
  H187     1.0000 0.89066  0.64694  0.45203  Biso   1.000  H
  H188     1.0000 0.93648  0.65185  0.45933  Biso   1.000  H
  O70      1.0000 0.84667  0.45425  0.41922  Biso   1.000  O
  C192     1.0000 0.87027  0.49784  0.47374  Biso   1.000  C
  H189     1.0000 0.85917  0.58395  0.42902  Biso   1.000  H
  O71      1.0000 0.89566  0.53753  0.52884  Biso   1.000  O
  H190     1.0000 0.82477  0.44634  0.40665  Biso   1.000  H
  O72      1.0000 0.87448  0.46463  0.49084  Biso   1.000  O
  H191     1.0000 0.88929  0.55285  0.54144  Biso   1.000  H
  H192     1.0000 0.86698  0.44433  0.47624  Biso   1.000  H
  C193     1.0000 0.48255  0.38473  0.30313  Biso   1.000  C
  C194     1.0000 0.50187  0.36182  0.27934  Biso   1.000  C
  H193     1.0000 0.49227  0.38704  0.32834  Biso   1.000  H
  H194     1.0000 0.49226  0.41332  0.29344  Biso   1.000  H
  H195     1.0000 0.45136  0.36804  0.30233  Biso   1.000  H
  C195     1.0000 0.48787  0.35665  0.24003  Biso   1.000  C
  H196     1.0000 0.48988  0.33245  0.28945  Biso   1.000  H
  C196     1.0000 0.55025  0.38343  0.28384  Biso   1.000  C
  C197     1.0000 0.48348  0.38883  0.22182  Biso   1.000  C
  C198     1.0000 0.47749  0.31875  0.22013  Biso   1.000  C
  C199     1.0000 0.57748  0.42812  0.28323  Biso   1.000  C
  C200     1.0000 0.57189  0.35964  0.28753  Biso   1.000  C
  C201     1.0000 0.46878  0.38395  0.18563  Biso   1.000  C
  H197     1.0000 0.49057  0.41433  0.23443  Biso   1.000  H
  C202     1.0000 0.46178  0.31264  0.18513  Biso   1.000  C
  O73      1.0000 0.48148  0.28453  0.23523  Biso   1.000  O
  H198     1.0000 0.56449  0.44514  0.28073  Biso   1.000  H
  C203     1.0000 0.62256  0.44973  0.28603  Biso   1.000  C
  O74      1.0000 0.54636  0.31433  0.28884  Biso   1.000  O
  C204     1.0000 0.61648  0.37913  0.28983  Biso   1.000  C
  C205     1.0000 0.45656  0.34474  0.16694  Biso   1.000  C
  C206     1.0000 0.46437  0.41993  0.16603  Biso   1.000  C
  O75      1.0000 0.45078  0.27565  0.16472  Biso   1.000  O
  H199     1.0000 0.50076  0.29403  0.25094  Biso   1.000  H
  C207     1.0000 0.64068  0.42324  0.28872  Biso   1.000  C
  C208     1.0000 0.64957  0.49895  0.28553  Biso   1.000  C
  H200     1.0000 0.52736  0.30603  0.27293  Biso   1.000  H
  O76      1.0000 0.63458  0.35324  0.29364  Biso   1.000  O
  O77      1.0000 0.44067  0.33843  0.13152  Biso   1.000  O
  C209     1.0000 0.50747  0.45174  0.14612  Biso   1.000  C
  H201     1.0000 0.44197  0.40594  0.14685  Biso   1.000  H
  C210     1.0000 0.44929  0.44335  0.19223  Biso   1.000  C
  H202     1.0000 0.45827  0.26042  0.17602  Biso   1.000  H
  O78      1.0000 0.68588  0.44084  0.29194  Biso   1.000  O
  C211     1.0000 0.65976  0.51674  0.24645  Biso   1.000  C
  H203     1.0000 0.67727  0.50695  0.29763  Biso   1.000  H
  C212     1.0000 0.62756  0.51983  0.30843  Biso   1.000  C
  H204     1.0000 0.62796  0.34123  0.31404  Biso   1.000  H
  H205     1.0000 0.45458  0.36095  0.11953  Biso   1.000  H
  C213     1.0000 0.51438  0.44634  0.11004  Biso   1.000  C
  C214     1.0000 0.53978  0.48763  0.16503  Biso   1.000  C
  H206     1.0000 0.42236  0.42263  0.20364  Biso   1.000  H
  H207     1.0000 0.47085  0.45802  0.21114  Biso   1.000  H
  H208     1.0000 0.44517  0.46424  0.17863  Biso   1.000  H
  H209     1.0000 0.69836  0.46254  0.27884  Biso   1.000  H
  C215     1.0000 0.63338  0.52855  0.22624  Biso   1.000  C
  C216     1.0000 0.69708  0.52263  0.22813  Biso   1.000  C
  H210     1.0000 0.62198  0.50835  0.33314  Biso   1.000  H
  H211     1.0000 0.64658  0.55084  0.30932  Biso   1.000  H
  H212     1.0000 0.60066  0.51342  0.29683  Biso   1.000  H
  O79      1.0000 0.48516  0.41202  0.08875  Biso   1.000  O
  C217     1.0000 0.55247  0.47735  0.09244  Biso   1.000  C
  C218     1.0000 0.57786  0.51843  0.14885  Biso   1.000  C
  H213     1.0000 0.53528  0.49085  0.18993  Biso   1.000  H
  C219     1.0000 0.64267  0.54404  0.19012  Biso   1.000  C
  H214     1.0000 0.60859  0.52585  0.23765  Biso   1.000  H
  C220     1.0000 0.70579  0.53695  0.19293  Biso   1.000  C
  O80      1.0000 0.72576  0.51333  0.24745  Biso   1.000  O
  H215     1.0000 0.47217  0.39032  0.10182  Biso   1.000  H
  O81      1.0000 0.55909  0.47305  0.05624  Biso   1.000  O
  C221     1.0000 0.58367  0.51342  0.11173  Biso   1.000  C
  C222     1.0000 0.61288  0.55754  0.17044  Biso   1.000  C
  C223     1.0000 0.67928  0.54755  0.17294  Biso   1.000  C
  O82      1.0000 0.74319  0.54114  0.17583  Biso   1.000  O
  H216     1.0000 0.71177  0.49143  0.26002  Biso   1.000  H
  H217     1.0000 0.58248  0.49364  0.04963  Biso   1.000  H
  O83      1.0000 0.62082  0.54248  0.09333  Biso   1.000  O
  H218     1.0000 0.63077  0.57963  0.15212  Biso   1.000  H
  C224     1.0000 0.59457  0.57794  0.19584  Biso   1.000  C
  O84      1.0000 0.69147  0.56235  0.13782  Biso   1.000  O
  H219     1.0000 0.75597  0.53363  0.19043  Biso   1.000  H
  H220     1.0000 0.64207  0.54853  0.10635  Biso   1.000  H
  H221     1.0000 0.57696  0.58633  0.18174  Biso   1.000  H
  H222     1.0000 0.57706  0.55734  0.21463  Biso   1.000  H
  H223     1.0000 0.61797  0.60315  0.20733  Biso   1.000  H
  H224     1.0000 0.66978  0.55594  0.12522  Biso   1.000  H
  C225     1.0000 0.51745  0.61528  0.69687  Biso   1.000  C
  C226     1.0000 0.49814  0.63819  0.72066  Biso   1.000  C
  H225     1.0000 0.50773  0.61297  0.67166  Biso   1.000  H
  H226     1.0000 0.50775  0.58669  0.70656  Biso   1.000  H
  H227     1.0000 0.54865  0.63197  0.69767  Biso   1.000  H
  C227     1.0000 0.44975  0.61658  0.71616  Biso   1.000  C
  C228     1.0000 0.51213  0.64336  0.75997  Biso   1.000  C
  H228     1.0000 0.51012  0.66756  0.71055  Biso   1.000  H
  C229     1.0000 0.42256  0.57188  0.71677  Biso   1.000  C
  C230     1.0000 0.42814  0.64037  0.71247  Biso   1.000  C
  C231     1.0000 0.52252  0.68126  0.77987  Biso   1.000  C
  C232     1.0000 0.51656  0.61118  0.77818  Biso   1.000  C
  C233     1.0000 0.37744  0.55028  0.71397  Biso   1.000  C
  H229     1.0000 0.43555  0.55487  0.71927  Biso   1.000  H
  C234     1.0000 0.38355  0.62088  0.71017  Biso   1.000  C
  O85      1.0000 0.45365  0.68568  0.71116  Biso   1.000  O
  O86      1.0000 0.51853  0.71548  0.76477  Biso   1.000  O
  C235     1.0000 0.53823  0.68737  0.81487  Biso   1.000  C
  C236     1.0000 0.53122  0.61606  0.81437  Biso   1.000  C
  H230     1.0000 0.50944  0.58568  0.76557  Biso   1.000  H
  C237     1.0000 0.35044  0.50106  0.71447  Biso   1.000  C
  C238     1.0000 0.35932  0.57676  0.71128  Biso   1.000  C
  O87      1.0000 0.36545  0.64677  0.70636  Biso   1.000  O
  H231     1.0000 0.47264  0.69398  0.72707  Biso   1.000  H
  H232     1.0000 0.49924  0.70598  0.74906  Biso   1.000  H
  O88      1.0000 0.54923  0.72436  0.83528  Biso   1.000  O
  C239     1.0000 0.54344  0.65527  0.83306  Biso   1.000  C
  C240     1.0000 0.53563  0.58008  0.83397  Biso   1.000  C
  C241     1.0000 0.37245  0.48018  0.69157  Biso   1.000  C
  C242     1.0000 0.34024  0.48327  0.75355  Biso   1.000  C
  H233     1.0000 0.32274  0.49306  0.70237  Biso   1.000  H
  O89      1.0000 0.31412  0.55916  0.70806  Biso   1.000  O
  H234     1.0000 0.37204  0.65878  0.68596  Biso   1.000  H
  H235     1.0000 0.54174  0.73959  0.82398  Biso   1.000  H
  O90      1.0000 0.55933  0.66158  0.86848  Biso   1.000  O
  C243     1.0000 0.49254  0.54827  0.85388  Biso   1.000  C
  H236     1.0000 0.55804  0.59407  0.85315  Biso   1.000  H
  C244     1.0000 0.55074  0.55666  0.80777  Biso   1.000  C
  H237     1.0000 0.37802  0.49166  0.66686  Biso   1.000  H
  H238     1.0000 0.35343  0.44917  0.69068  Biso   1.000  H
  H239     1.0000 0.39935  0.48659  0.70317  Biso   1.000  H
  C245     1.0000 0.30295  0.47738  0.77187  Biso   1.000  C
  C246     1.0000 0.36662  0.47146  0.77376  Biso   1.000  C
  H240     1.0000 0.30164  0.53747  0.72116  Biso   1.000  H
  H241     1.0000 0.54543  0.63906  0.88047  Biso   1.000  H
  C247     1.0000 0.46025  0.51238  0.83497  Biso   1.000  C
  C248     1.0000 0.48563  0.55367  0.88996  Biso   1.000  C
  H242     1.0000 0.57764  0.57738  0.79636  Biso   1.000  H
  H243     1.0000 0.52913  0.54196  0.78886  Biso   1.000  H
  H244     1.0000 0.55484  0.53577  0.82137  Biso   1.000  H
  O91      1.0000 0.27425  0.48668  0.75255  Biso   1.000  O
  C249     1.0000 0.29422  0.46306  0.80707  Biso   1.000  C
  H245     1.0000 0.39144  0.47416  0.76235  Biso   1.000  H
  C250     1.0000 0.35733  0.45597  0.80988  Biso   1.000  C
  C251     1.0000 0.42214  0.48158  0.85115  Biso   1.000  C
  H246     1.0000 0.46473  0.50916  0.81007  Biso   1.000  H
  C252     1.0000 0.44753  0.52266  0.90756  Biso   1.000  C
  O92      1.0000 0.51483  0.58796  0.91125  Biso   1.000  O
  H247     1.0000 0.28824  0.50858  0.73998  Biso   1.000  H
  O93      1.0000 0.25685  0.45887  0.82417  Biso   1.000  O
  C253     1.0000 0.32072  0.45246  0.82706  Biso   1.000  C
  C254     1.0000 0.38715  0.44247  0.82956  Biso   1.000  C
  C255     1.0000 0.41634  0.48659  0.88827  Biso   1.000  C
  O94      1.0000 0.44092  0.52696  0.94376  Biso   1.000  O
  H248     1.0000 0.52784  0.60969  0.89818  Biso   1.000  H
  H249     1.0000 0.24404  0.46638  0.80957  Biso   1.000  H
  O95      1.0000 0.30853  0.43766  0.86218  Biso   1.000  O
  H250     1.0000 0.36923  0.42038  0.84788  Biso   1.000  H
  C256     1.0000 0.40544  0.42207  0.80416  Biso   1.000  C
  O96      1.0000 0.37919  0.45753  0.90667  Biso   1.000  O
  H251     1.0000 0.41752  0.50636  0.95037  Biso   1.000  H
  H252     1.0000 0.33022  0.44407  0.87478  Biso   1.000  H
  H253     1.0000 0.42305  0.41368  0.81826  Biso   1.000  H
  H254     1.0000 0.42294  0.44267  0.78537  Biso   1.000  H
  H255     1.0000 0.38204  0.39686  0.79267  Biso   1.000  H
  H256     1.0000 0.35793  0.45148  0.89365  Biso   1.000  H
  C257     1.0000 0.23974  0.32187  0.64338  Biso   1.000  C
  C258     1.0000 0.22054  0.28196  0.66878  Biso   1.000  C
  H257     1.0000 0.24454  0.34686  0.65737  Biso   1.000  H
  H258     1.0000 0.26684  0.32666  0.63336  Biso   1.000  H
  H259     1.0000 0.21984  0.31696  0.62347  Biso   1.000  H
  C259     1.0000 0.21294  0.24067  0.64757  Biso   1.000  C
  H260     1.0000 0.24175  0.28768  0.68857  Biso   1.000  H
  C260     1.0000 0.17834  0.27356  0.68707  Biso   1.000  C
  C261     1.0000 0.19832  0.23205  0.61145  Biso   1.000  C
  C262     1.0000 0.22234  0.21146  0.66586  Biso   1.000  C
  C263     1.0000 0.14873  0.28258  0.66797  Biso   1.000  C
  C264     1.0000 0.16843  0.25876  0.72307  Biso   1.000  C
  C265     1.0000 0.19033  0.19438  0.59186  Biso   1.000  C
  H261     1.0000 0.19332  0.25226  0.59927  Biso   1.000  H
  C266     1.0000 0.21422  0.17336  0.64707  Biso   1.000  C
  O97      1.0000 0.23763  0.21888  0.70156  Biso   1.000  O
  H262     1.0000 0.15464  0.29237  0.64357  Biso   1.000  H
  C267     1.0000 0.11035  0.27688  0.68507  Biso   1.000  C
  O98      1.0000 0.19406  0.24848  0.74436  Biso   1.000  O
  C268     1.0000 0.13213  0.25457  0.74048  Biso   1.000  C
  C269     1.0000 0.17583  0.18706  0.55235  Biso   1.000  C
  C270     1.0000 0.19904  0.16536  0.61226  Biso   1.000  C
  O99      1.0000 0.22363  0.14558  0.66728  Biso   1.000  O
  H263     1.0000 0.22422  0.22756  0.71397  Biso   1.000  H
  C271     1.0000 0.07764  0.28528  0.66406  Biso   1.000  C
  C272     1.0000 0.10292  0.26377  0.72138  Biso   1.000  C
  H264     1.0000 0.20682  0.23986  0.73096  Biso   1.000  H
  O100     1.0000 0.12274  0.24136  0.77657  Biso   1.000  O
  C273     1.0000 0.19613  0.22857  0.52917  Biso   1.000  C
  C274     1.0000 0.12613  0.16295  0.54966  Biso   1.000  C
  H265     1.0000 0.18552  0.16796  0.54156  Biso   1.000  H
  O101     1.0000 0.19154  0.12636  0.59638  Biso   1.000  O
  H266     1.0000 0.21304  0.12187  0.65676  Biso   1.000  H
  C275     1.0000 0.04514  0.24367  0.64338  Biso   1.000  C
  H267     1.0000 0.06103  0.29087  0.68288  Biso   1.000  H
  C276     1.0000 0.09955  0.32588  0.63927  Biso   1.000  C
  O102     1.0000 0.06622  0.25827  0.74026  Biso   1.000  O
  H268     1.0000 0.10025  0.24067  0.78276  Biso   1.000  H
  H269     1.0000 0.22733  0.24285  0.53106  Biso   1.000  H
  H270     1.0000 0.18774  0.22148  0.50366  Biso   1.000  H
  H271     1.0000 0.18632  0.24767  0.53817  Biso   1.000  H
  C277     1.0000 0.10252  0.11816  0.54658  Biso   1.000  C
  C278     1.0000 0.10245  0.18478  0.55047  Biso   1.000  C
  H272     1.0000 0.17154  0.11796  0.58136  Biso   1.000  H
  C279     1.0000 0.05294  0.23638  0.60696  Biso   1.000  C
  C280     1.0000 0.00683  0.21318  0.65987  Biso   1.000  C
  H273     1.0000 0.11893  0.35067  0.65387  Biso   1.000  H
  H274     1.0000 0.11564  0.32148  0.61998  Biso   1.000  H
  H275     1.0000 0.07762  0.33076  0.62828  Biso   1.000  H
  H276     1.0000 0.04485  0.24578  0.72677  Biso   1.000  H
  O103     1.0000 0.12457  0.09503  0.54486  Biso   1.000  O
  C281     1.0000 0.05724  0.09656  0.54378  Biso   1.000  C
  C282     1.0000 0.05784  0.16448  0.54797  Biso   1.000  C
  H277     1.0000 0.11783  0.21497  0.55266  Biso   1.000  H
  C283     1.0000 0.02502  0.19897  0.58697  Biso   1.000  C
  H278     1.0000 0.07813  0.25746  0.59535  Biso   1.000  H
  C284     1.0000 0.97863  0.17538  0.64016  Biso   1.000  C
  O104     1.0000 0.99492  0.21647  0.69537  Biso   1.000  O
  H279     1.0000 0.14422  0.10475  0.56027  Biso   1.000  H
  O105     1.0000 0.03625  0.05153  0.54097  Biso   1.000  O
  C285     1.0000 0.03603  0.11978  0.54528  Biso   1.000  C
  C286     1.0000 0.03473  0.19038  0.54836  Biso   1.000  C
  C287     1.0000 0.98661  0.16966  0.60407  Biso   1.000  C
  O106     1.0000 0.94033  0.14448  0.65798  Biso   1.000  O
  H280     1.0000 0.01672  0.22896  0.70836  Biso   1.000  H
  H281     1.0000 0.00984  0.04148  0.54228  Biso   1.000  H
  O107     1.0000 0.99057  0.09434  0.54305  Biso   1.000  O
  H282     1.0000 0.00664  0.17258  0.53598  Biso   1.000  H
  C288     1.0000 0.05954  0.23296  0.52587  Biso   1.000  C
  O108     1.0000 0.95624  0.13218  0.58555  Biso   1.000  O
  H283     1.0000 0.92645  0.12388  0.64407  Biso   1.000  H
  H284     1.0000 0.97944  0.10527  0.55588  Biso   1.000  H
  H285     1.0000 0.06492  0.22636  0.50128  Biso   1.000  H
  H286     1.0000 0.04242  0.24695  0.52457  Biso   1.000  H
  H287     1.0000 0.08674  0.25196  0.53778  Biso   1.000  H
  H288     1.0000 0.96905  0.12258  0.57317  Biso   1.000  H
  C289     1.0000 0.76027  0.67814  0.35662  Biso   1.000  C
  C290     1.0000 0.77949  0.71805  0.33122  Biso   1.000  C
  H289     1.0000 0.75549  0.65315  0.34263  Biso   1.000  H
  H290     1.0000 0.73317  0.67335  0.36664  Biso   1.000  H
  H291     1.0000 0.78019  0.68305  0.37653  Biso   1.000  H
  C291     1.0000 0.78706  0.75934  0.35243  Biso   1.000  C
  H292     1.0000 0.75826  0.71233  0.31143  Biso   1.000  H
  C292     1.0000 0.82167  0.72645  0.31293  Biso   1.000  C
  C293     1.0000 0.77769  0.78855  0.33414  Biso   1.000  C
  C294     1.0000 0.80167  0.76792  0.38855  Biso   1.000  C
  C295     1.0000 0.85128  0.71743  0.33203  Biso   1.000  C
  C296     1.0000 0.83158  0.74125  0.27693  Biso   1.000  C
  O109     1.0000 0.76238  0.78113  0.29844  Biso   1.000  O
  C297     1.0000 0.78578  0.82665  0.35293  Biso   1.000  C
  C298     1.0000 0.80967  0.80563  0.40814  Biso   1.000  C
  H293     1.0000 0.80668  0.74775  0.40073  Biso   1.000  H
  H294     1.0000 0.84537  0.70764  0.35643  Biso   1.000  H
  C299     1.0000 0.88968  0.72313  0.31493  Biso   1.000  C
  O110     1.0000 0.80598  0.75153  0.25564  Biso   1.000  O
  C300     1.0000 0.86788  0.74544  0.25952  Biso   1.000  C
  H295     1.0000 0.77578  0.77245  0.28603  Biso   1.000  H
  O111     1.0000 0.77637  0.85443  0.33272  Biso   1.000  O
  C301     1.0000 0.80097  0.83465  0.38774  Biso   1.000  C
  C302     1.0000 0.82418  0.81295  0.44765  Biso   1.000  C
  C303     1.0000 0.89708  0.73624  0.27862  Biso   1.000  C
  C304     1.0000 0.92236  0.71473  0.33594  Biso   1.000  C
  H296     1.0000 0.79319  0.76015  0.26904  Biso   1.000  H
  O112     1.0000 0.87727  0.75865  0.22343  Biso   1.000  O
  H297     1.0000 0.78696  0.87814  0.34324  Biso   1.000  H
  O113     1.0000 0.80847  0.87365  0.40362  Biso   1.000  O
  C305     1.0000 0.87387  0.83706  0.45034  Biso   1.000  C
  H298     1.0000 0.81448  0.83205  0.45844  Biso   1.000  H
  C306     1.0000 0.80387  0.77144  0.47083  Biso   1.000  C
  O114     1.0000 0.93378  0.74174  0.25974  Biso   1.000  O
  C307     1.0000 0.95489  0.75634  0.35662  Biso   1.000  C
  H299     1.0000 0.93898  0.70914  0.31712  Biso   1.000  H
  C308     1.0000 0.90046  0.67413  0.36073  Biso   1.000  C
  H300     1.0000 0.89978  0.75934  0.21724  Biso   1.000  H
  H301     1.0000 0.82847  0.88205  0.41864  Biso   1.000  H
  C309     1.0000 0.89748  0.88185  0.45342  Biso   1.000  C
  C310     1.0000 0.89756  0.81523  0.44953  Biso   1.000  C
  H302     1.0000 0.77266  0.75712  0.46894  Biso   1.000  H
  H303     1.0000 0.81227  0.77853  0.49634  Biso   1.000  H
  H304     1.0000 0.81368  0.75234  0.46183  Biso   1.000  H
  H305     1.0000 0.95516  0.75423  0.27323  Biso   1.000  H
  C311     1.0000 0.94707  0.76363  0.39304  Biso   1.000  C
  C312     1.0000 0.99318  0.78683  0.34013  Biso   1.000  C
  H306     1.0000 0.88108  0.64934  0.34613  Biso   1.000  H
  H307     1.0000 0.88437  0.67853  0.38002  Biso   1.000  H
  H308     1.0000 0.92239  0.66925  0.37172  Biso   1.000  H
  O115     1.0000 0.87544  0.90498  0.45514  Biso   1.000  O
  C313     1.0000 0.94277  0.90345  0.45622  Biso   1.000  C
  C314     1.0000 0.94216  0.83553  0.45203  Biso   1.000  C
  H309     1.0000 0.88218  0.78504  0.44734  Biso   1.000  H
  C315     1.0000 0.97498  0.80104  0.41303  Biso   1.000  C
  H310     1.0000 0.92187  0.74255  0.40465  Biso   1.000  H
  O116     1.0000 0.00508  0.78354  0.30463  Biso   1.000  O
  C316     1.0000 0.02137  0.82463  0.35984  Biso   1.000  C
  H311     1.0000 0.85578  0.89526  0.43973  Biso   1.000  H
  O117     1.0000 0.96376  0.94848  0.45903  Biso   1.000  O
  C317     1.0000 0.96398  0.88023  0.45472  Biso   1.000  C
  C318     1.0000 0.96528  0.80963  0.45164  Biso   1.000  C
  C319     1.0000 0.01339  0.83035  0.39593  Biso   1.000  C
  H312     1.0000 0.98329  0.77105  0.29164  Biso   1.000  H
  O118     1.0000 0.05968  0.85553  0.34202  Biso   1.000  O
  H313     1.0000 0.99017  0.95853  0.45772  Biso   1.000  H
  O119     1.0000 0.00943  0.90567  0.45695  Biso   1.000  O
  H314     1.0000 0.99336  0.82743  0.46402  Biso   1.000  H
  C320     1.0000 0.94049  0.76705  0.47413  Biso   1.000  C
  O120     1.0000 0.04377  0.86783  0.41445  Biso   1.000  O
  H315     1.0000 0.07358  0.87613  0.35593  Biso   1.000  H
  H316     1.0000 0.02056  0.89474  0.44412  Biso   1.000  H
  H317     1.0000 0.93509  0.77365  0.49872  Biso   1.000  H
  H318     1.0000 0.95757  0.75302  0.47543  Biso   1.000  H
  H319     1.0000 0.91327  0.74805  0.46222  Biso   1.000  H
  H320     1.0000 0.03095  0.87743  0.42683  Biso   1.000  H
  C321     1.0000 0.32588  0.22633  0.36073  Biso   1.000  C
  C322     1.0000 0.28525  0.20762  0.33594  Biso   1.000  C
  H321     1.0000 0.35066  0.23173  0.34613  Biso   1.000  H
  H322     1.0000 0.32146  0.20583  0.38002  Biso   1.000  H
  H323     1.0000 0.33077  0.25313  0.37172  Biso   1.000  H
  C323     1.0000 0.27688  0.16653  0.31493  Biso   1.000  C
  C324     1.0000 0.24366  0.19854  0.35662  Biso   1.000  C
  H324     1.0000 0.29087  0.22984  0.31712  Biso   1.000  H
  C325     1.0000 0.26377  0.16084  0.27862  Biso   1.000  C
  C326     1.0000 0.28256  0.13384  0.33203  Biso   1.000  C
  C327     1.0000 0.23637  0.18345  0.39304  Biso   1.000  C
  C328     1.0000 0.21315  0.20632  0.34013  Biso   1.000  C
  O121     1.0000 0.25827  0.19204  0.25974  Biso   1.000  O
  C329     1.0000 0.25457  0.12242  0.25952  Biso   1.000  C
  C330     1.0000 0.27356  0.09522  0.31293  Biso   1.000  C
  H325     1.0000 0.29237  0.13774  0.35643  Biso   1.000  H
  C331     1.0000 0.19897  0.17395  0.41303  Biso   1.000  C
  H326     1.0000 0.25748  0.17935  0.40465  Biso   1.000  H
  O122     1.0000 0.21648  0.22154  0.30463  Biso   1.000  O
  C332     1.0000 0.17536  0.19672  0.35984  Biso   1.000  C
  H327     1.0000 0.24575  0.20092  0.27323  Biso   1.000  H
  O123     1.0000 0.24138  0.11865  0.22343  Biso   1.000  O
  C333     1.0000 0.25878  0.09034  0.27693  Biso   1.000  C
  C334     1.0000 0.28196  0.06142  0.33122  Biso   1.000  C
  C335     1.0000 0.16967  0.18303  0.39593  Biso   1.000  C
  C336     1.0000 0.19037  0.15563  0.45164  Biso   1.000  C
  H328     1.0000 0.22896  0.21224  0.29164  Biso   1.000  H
  O124     1.0000 0.14447  0.20414  0.34202  Biso   1.000  O
  H329     1.0000 0.24067  0.14044  0.21724  Biso   1.000  H
  O125     1.0000 0.24846  0.05443  0.25564  Biso   1.000  O
  C337     1.0000 0.24066  0.02772  0.35243  Biso   1.000  C
  H330     1.0000 0.28766  0.04594  0.31143  Biso   1.000  H
  C338     1.0000 0.32188  0.08214  0.35662  Biso   1.000  C
  O126     1.0000 0.13217  0.17593  0.41445  Biso   1.000  O
  H331     1.0000 0.17257  0.16595  0.46402  Biso   1.000  H
  C339     1.0000 0.23296  0.17343  0.47413  Biso   1.000  C
  C340     1.0000 0.16447  0.10664  0.45203  Biso   1.000  C
  H332     1.0000 0.12388  0.19744  0.35593  Biso   1.000  H
  H333     1.0000 0.23987  0.03302  0.26904  Biso   1.000  H
  C341     1.0000 0.23206  0.03374  0.38855  Biso   1.000  C
  C342     1.0000 0.21148  0.98913  0.33414  Biso   1.000  C
  H334     1.0000 0.34689  0.10235  0.34263  Biso   1.000  H
  H335     1.0000 0.32667  0.05983  0.36664  Biso   1.000  H
  H336     1.0000 0.31698  0.09714  0.37653  Biso   1.000  H
  H337     1.0000 0.12257  0.15352  0.42683  Biso   1.000  H
  H338     1.0000 0.22637  0.16143  0.49872  Biso   1.000  H
  H339     1.0000 0.24697  0.20453  0.47543  Biso   1.000  H
  H340     1.0000 0.25197  0.16523  0.46222  Biso   1.000  H
  C343     1.0000 0.11977  0.08374  0.45472  Biso   1.000  C
  C344     1.0000 0.18477  0.08234  0.44953  Biso   1.000  C
  C345     1.0000 0.19436  0.00403  0.40814  Biso   1.000  C
  H341     1.0000 0.25227  0.05895  0.40073  Biso   1.000  H
  O127     1.0000 0.21888  0.98123  0.29844  Biso   1.000  O
  C346     1.0000 0.17338  0.95914  0.35293  Biso   1.000  C
  O128     1.0000 0.09435  0.10378  0.45695  Biso   1.000  O
  C347     1.0000 0.09658  0.03933  0.45622  Biso   1.000  C
  C348     1.0000 0.16297  0.03683  0.45034  Biso   1.000  C
  H342     1.0000 0.21497  0.09714  0.44734  Biso   1.000  H
  C349     1.0000 0.18705  0.01122  0.44765  Biso   1.000  C
  C350     1.0000 0.16536  0.96633  0.38774  Biso   1.000  C
  H343     1.0000 0.22756  0.00332  0.28603  Biso   1.000  H
  O129     1.0000 0.14556  0.92192  0.33272  Biso   1.000  O
  H344     1.0000 0.10526  0.12583  0.44412  Biso   1.000  H
  C351     1.0000 0.11818  0.01565  0.45342  Biso   1.000  C
  O130     1.0000 0.05152  0.01526  0.45903  Biso   1.000  O
  C352     1.0000 0.22856  0.03243  0.47083  Biso   1.000  C
  H345     1.0000 0.16798  0.98243  0.45844  Biso   1.000  H
  O131     1.0000 0.12638  0.93484  0.40362  Biso   1.000  O
  H346     1.0000 0.12189  0.90884  0.34324  Biso   1.000  H
  O132     1.0000 0.09502  0.97046  0.45514  Biso   1.000  O
  H347     1.0000 0.04145  0.03162  0.45772  Biso   1.000  H
  H348     1.0000 0.24287  0.01552  0.46894  Biso   1.000  H
  H349     1.0000 0.22147  0.03374  0.49634  Biso   1.000  H
  H350     1.0000 0.24766  0.06132  0.46183  Biso   1.000  H
  H351     1.0000 0.11797  0.94642  0.41864  Biso   1.000  H
  H352     1.0000 0.10477  0.96054  0.43973  Biso   1.000  H
  C353     1.0000 0.67416  0.77368  0.63927  Biso   1.000  C
  C354     1.0000 0.71476  0.79239  0.66406  Biso   1.000  C
  H353     1.0000 0.64934  0.76828  0.65387  Biso   1.000  H
  H354     1.0000 0.67854  0.79418  0.61998  Biso   1.000  H
  H355     1.0000 0.66923  0.74688  0.62828  Biso   1.000  H
  C355     1.0000 0.75634  0.80147  0.64338  Biso   1.000  C
  C356     1.0000 0.72313  0.83348  0.68507  Biso   1.000  C
  H356     1.0000 0.70914  0.77017  0.68288  Biso   1.000  H
  C357     1.0000 0.76364  0.81656  0.60696  Biso   1.000  C
  C358     1.0000 0.78684  0.79366  0.65987  Biso   1.000  C
  C359     1.0000 0.71744  0.86617  0.66797  Biso   1.000  C
  C360     1.0000 0.73623  0.83917  0.72138  Biso   1.000  C
  C361     1.0000 0.80104  0.82606  0.58697  Biso   1.000  C
  H357     1.0000 0.74253  0.82066  0.59535  Biso   1.000  H
  C362     1.0000 0.82464  0.80329  0.64016  Biso   1.000  C
  O133     1.0000 0.78352  0.77846  0.69537  Biso   1.000  O
  C363     1.0000 0.72644  0.90479  0.68707  Biso   1.000  C
  H358     1.0000 0.70763  0.86227  0.64357  Biso   1.000  H
  O134     1.0000 0.74173  0.80797  0.74026  Biso   1.000  O
  C364     1.0000 0.74542  0.87756  0.74048  Biso   1.000  C
  C365     1.0000 0.80963  0.84438  0.54836  Biso   1.000  C
  C366     1.0000 0.83034  0.81698  0.60407  Biso   1.000  C
  O135     1.0000 0.85553  0.79587  0.65798  Biso   1.000  O
  H359     1.0000 0.77105  0.78777  0.70836  Biso   1.000  H
  C367     1.0000 0.71804  0.93859  0.66878  Biso   1.000  C
  C368     1.0000 0.74125  0.90967  0.72307  Biso   1.000  C
  H360     1.0000 0.75424  0.79906  0.72677  Biso   1.000  H
  O136     1.0000 0.75862  0.88136  0.77657  Biso   1.000  O
  C369     1.0000 0.76704  0.82658  0.52587  Biso   1.000  C
  H361     1.0000 0.82744  0.83406  0.53598  Biso   1.000  H
  C370     1.0000 0.83554  0.89337  0.54797  Biso   1.000  C
  O137     1.0000 0.86783  0.82408  0.58555  Biso   1.000  O
  H362     1.0000 0.87613  0.80257  0.64407  Biso   1.000  H
  C371     1.0000 0.75933  0.97226  0.64757  Biso   1.000  C
  H363     1.0000 0.71234  0.95407  0.68857  Biso   1.000  H
  C372     1.0000 0.67812  0.91787  0.64338  Biso   1.000  C
  O138     1.0000 0.75154  0.94558  0.74436  Biso   1.000  O
  H364     1.0000 0.75933  0.85957  0.78276  Biso   1.000  H
  H365     1.0000 0.77363  0.83858  0.50128  Biso   1.000  H
  H366     1.0000 0.75304  0.79548  0.52457  Biso   1.000  H
  H367     1.0000 0.74804  0.83478  0.53778  Biso   1.000  H
  C373     1.0000 0.88024  0.91627  0.54528  Biso   1.000  C
  C374     1.0000 0.81523  0.91767  0.55047  Biso   1.000  C
  H368     1.0000 0.87746  0.84649  0.57317  Biso   1.000  H
  C375     1.0000 0.76795  0.96627  0.61145  Biso   1.000  C
  C376     1.0000 0.78853  0.01088  0.66586  Biso   1.000  C
  H369     1.0000 0.65312  0.89766  0.65737  Biso   1.000  H
  H370     1.0000 0.67334  0.94018  0.63336  Biso   1.000  H
  H371     1.0000 0.68302  0.90287  0.62347  Biso   1.000  H
  H372     1.0000 0.76013  0.96699  0.73096  Biso   1.000  H
  O139     1.0000 0.90566  0.89623  0.54305  Biso   1.000  O
  C377     1.0000 0.90345  0.96068  0.54378  Biso   1.000  C
  C378     1.0000 0.83703  0.96318  0.54966  Biso   1.000  C
  H373     1.0000 0.78504  0.90287  0.55266  Biso   1.000  H
  C379     1.0000 0.80565  0.99598  0.59186  Biso   1.000  C
  H374     1.0000 0.74773  0.94106  0.59927  Biso   1.000  H
  C380     1.0000 0.82663  0.04087  0.64707  Biso   1.000  C
  O140     1.0000 0.78115  0.01878  0.70156  Biso   1.000  O
  H375     1.0000 0.89474  0.87417  0.55588  Biso   1.000  H
  O141     1.0000 0.94846  0.98472  0.54097  Biso   1.000  O
  C381     1.0000 0.88182  0.98436  0.54658  Biso   1.000  C
  C382     1.0000 0.81295  0.98879  0.55235  Biso   1.000  C
  C383     1.0000 0.83464  0.03368  0.61226  Biso   1.000  C
  O142     1.0000 0.85445  0.07809  0.66728  Biso   1.000  O
  H376     1.0000 0.77245  0.99669  0.71397  Biso   1.000  H
  H377     1.0000 0.95856  0.96839  0.54228  Biso   1.000  H
  O143     1.0000 0.90498  0.02955  0.54486  Biso   1.000  O
  C384     1.0000 0.77144  0.96757  0.52917  Biso   1.000  C
  H378     1.0000 0.83205  0.01758  0.54156  Biso   1.000  H
  O144     1.0000 0.87363  0.06517  0.59638  Biso   1.000  O
  H379     1.0000 0.87815  0.09117  0.65676  Biso   1.000  H
  H380     1.0000 0.89524  0.03947  0.56027  Biso   1.000  H
  H381     1.0000 0.75712  0.98446  0.53106  Biso   1.000  H
  H382     1.0000 0.77854  0.96627  0.50366  Biso   1.000  H
  H383     1.0000 0.75235  0.93869  0.53817  Biso   1.000  H
  H384     1.0000 0.88204  0.05359  0.58136  Biso   1.000  H
  O145     1.0000 0.44305  0.18778  0.66606  Biso   1.000  O
  C385     1.0000 0.45244  0.15996  0.68626  Biso   1.000  C
  H385     1.0000 0.45362  0.21146  0.67658  Biso   1.000  H
  C386     1.0000 0.44435  0.12187  0.66747  Biso   1.000  C
  C387     1.0000 0.46762  0.16796  0.72107  Biso   1.000  C
  O146     1.0000 0.42905  0.11448  0.63177  Biso   1.000  O
  C388     1.0000 0.45372  0.09265  0.68577  Biso   1.000  C
  O147     1.0000 0.47513  0.20697  0.73695  Biso   1.000  O
  C389     1.0000 0.47635  0.13898  0.74148  Biso   1.000  C
  H386     1.0000 0.44244  0.10576  0.61936  Biso   1.000  H
  C390     1.0000 0.46834  0.10127  0.72188  Biso   1.000  C
  C391     1.0000 0.44615  0.05137  0.66456  Biso   1.000  C
  H387     1.0000 0.49513  0.21536  0.75197  Biso   1.000  H
  C392     1.0000 0.49084  0.14627  0.78098  Biso   1.000  C
  H388     1.0000 0.47334  0.08107  0.73407  Biso   1.000  H
  H389     1.0000 0.42493  0.04568  0.64476  Biso   1.000  H
  C393     1.0000 0.42692  0.01145  0.68996  Biso   1.000  C
  C394     1.0000 0.48832  0.05976  0.64626  Biso   1.000  C
  C395     1.0000 0.54053  0.17037  0.78367  Biso   1.000  C
  H390     1.0000 0.48114  0.16536  0.79178  Biso   1.000  H
  C396     1.0000 0.47053  0.10475  0.80416  Biso   1.000  C
  H391     1.0000 0.39982  0.00667  0.69998  Biso   1.000  H
  H392     1.0000 0.44685  0.01636  0.70986  Biso   1.000  H
  H393     1.0000 0.42215  0.98647  0.67597  Biso   1.000  H
  C397     1.0000 0.51795  0.05078  0.66536  Biso   1.000  C
  C398     1.0000 0.49823  0.07456  0.61026  Biso   1.000  C
  C399     1.0000 0.56414  0.21517  0.78675  Biso   1.000  C
  C400     1.0000 0.56423  0.14857  0.78287  Biso   1.000  C
  H394     1.0000 0.43933  0.09047  0.80227  Biso   1.000  H
  H395     1.0000 0.47894  0.11188  0.82967  Biso   1.000  H
  H396     1.0000 0.48034  0.08566  0.79516  Biso   1.000  H
  H397     1.0000 0.51203  0.04096  0.68976  Biso   1.000  H
  C401     1.0000 0.55636  0.05648  0.64826  Biso   1.000  C
  O148     1.0000 0.47265  0.08488  0.58897  Biso   1.000  O
  C402     1.0000 0.53453  0.07876  0.59285  Biso   1.000  C
  O149     1.0000 0.54209  0.23830  0.78847  Biso   1.000  O
  C403     1.0000 0.60943  0.23677  0.78956  Biso   1.000  C
  C404     1.0000 0.60884  0.16888  0.78537  Biso   1.000  C
  H398     1.0000 0.54884  0.11835  0.78067  Biso   1.000  H
  C405     1.0000 0.56374  0.06955  0.61195  Biso   1.000  C
  C406     1.0000 0.58904  0.04808  0.66928  Biso   1.000  C
  H399     1.0000 0.45984  0.09347  0.60238  Biso   1.000  H
  O150     1.0000 0.54393  0.09197  0.55677  Biso   1.000  O
  H400     1.0000 0.52244  0.22857  0.77307  Biso   1.000  H
  O151     1.0000 0.63042  0.28179  0.79236  Biso   1.000  O
  C407     1.0000 0.63065  0.21357  0.78806  Biso   1.000  C
  C408     1.0000 0.63195  0.14298  0.78498  Biso   1.000  C
  O152     1.0000 0.60044  0.07505  0.59308  Biso   1.000  O
  C409     1.0000 0.62155  0.08966  0.68996  Biso   1.000  C
  H401     1.0000 0.60564  0.04245  0.65046  Biso   1.000  H
  C410     1.0000 0.56713  0.00748  0.69407  Biso   1.000  C
  H402     1.0000 0.56644  0.09265  0.55058  Biso   1.000  H
  H403     1.0000 0.65684  0.29188  0.79106  Biso   1.000  H
  O153     1.0000 0.67609  0.23898  0.79028  Biso   1.000  O
  C411     1.0000 0.64164  0.13436  0.74636  Biso   1.000  C
  H404     1.0000 0.66003  0.16077  0.79736  Biso   1.000  H
  C412     1.0000 0.60715  0.10036  0.80746  Biso   1.000  C
  H405     1.0000 0.62183  0.08758  0.60657  Biso   1.000  H
  C413     1.0000 0.61374  0.09698  0.72638  Biso   1.000  C
  C414     1.0000 0.65985  0.12017  0.67347  Biso   1.000  C
  H406     1.0000 0.55104  0.01187  0.71336  Biso   1.000  H
  H407     1.0000 0.58905  0.00257  0.70506  Biso   1.000  H
  H408     1.0000 0.54773  0.98266  0.67946  Biso   1.000  H
  H409     1.0000 0.68724  0.22808  0.77745  Biso   1.000  H
  C415     1.0000 0.68005  0.16367  0.72926  Biso   1.000  C
  H410     1.0000 0.60174  0.10697  0.83206  Biso   1.000  H
  H411     1.0000 0.62424  0.08637  0.80877  Biso   1.000  H
  H412     1.0000 0.57993  0.08136  0.79555  Biso   1.000  H
  H413     1.0000 0.58853  0.07587  0.73798  Biso   1.000  H
  O154     1.0000 0.67174  0.11686  0.63796  Biso   1.000  O
  C416     1.0000 0.68805  0.15798  0.69318  Biso   1.000  C
  O155     1.0000 0.71044  0.20118  0.74778  Biso   1.000  O
  H414     1.0000 0.64994  0.10436  0.62497  Biso   1.000  H
  O156     1.0000 0.72635  0.18888  0.67536  Biso   1.000  O
  H415     1.0000 0.69763  0.21078  0.76016  Biso   1.000  H
  H416     1.0000 0.74025  0.20948  0.68926  Biso   1.000  H
  O157     1.0000 0.55696  0.81223  0.33394  Biso   1.000  O
  C417     1.0000 0.54757  0.84005  0.31374  Biso   1.000  C
  H417     1.0000 0.54639  0.78855  0.32342  Biso   1.000  H
  C418     1.0000 0.53238  0.83205  0.27893  Biso   1.000  C
  C419     1.0000 0.55568  0.87814  0.33253  Biso   1.000  C
  C420     1.0000 0.52366  0.86103  0.25852  Biso   1.000  C
  O158     1.0000 0.52488  0.79304  0.26305  Biso   1.000  O
  C421     1.0000 0.54627  0.90733  0.31423  Biso   1.000  C
  O159     1.0000 0.57095  0.88553  0.36823  Biso   1.000  O
  C422     1.0000 0.50917  0.85374  0.21902  Biso   1.000  C
  C423     1.0000 0.53166  0.89874  0.27812  Biso   1.000  C
  H418     1.0000 0.50488  0.78465  0.24803  Biso   1.000  H
  C424     1.0000 0.55388  0.94864  0.33544  Biso   1.000  C
  H419     1.0000 0.55756  0.89425  0.38064  Biso   1.000  H
  C425     1.0000 0.45947  0.82964  0.21633  Biso   1.000  C
  H420     1.0000 0.51886  0.83465  0.20822  Biso   1.000  H
  C426     1.0000 0.52947  0.89526  0.19584  Biso   1.000  C
  H421     1.0000 0.52666  0.91894  0.26593  Biso   1.000  H
  H422     1.0000 0.57507  0.95433  0.35524  Biso   1.000  H
  C427     1.0000 0.57306  0.98853  0.31004  Biso   1.000  C
  C428     1.0000 0.51168  0.94025  0.35374  Biso   1.000  C
  C429     1.0000 0.43586  0.78484  0.21325  Biso   1.000  C
  C430     1.0000 0.43578  0.85143  0.21713  Biso   1.000  C
  H423     1.0000 0.56067  0.90954  0.19773  Biso   1.000  H
  H424     1.0000 0.52106  0.88813  0.17033  Biso   1.000  H
  H425     1.0000 0.51967  0.91435  0.20484  Biso   1.000  H
  H426     1.0000 0.60018  0.99334  0.30002  Biso   1.000  H
  H427     1.0000 0.55319  0.98365  0.29014  Biso   1.000  H
  H428     1.0000 0.57788  0.01354  0.32403  Biso   1.000  H
  C431     1.0000 0.48205  0.94923  0.33464  Biso   1.000  C
  C432     1.0000 0.50177  0.92545  0.38974  Biso   1.000  C
  C433     1.0000 0.39058  0.76324  0.21044  Biso   1.000  C
  O160     1.0000 0.45791  0.76171  0.21153  Biso   1.000  O
  C434     1.0000 0.39117  0.83113  0.21463  Biso   1.000  C
  H429     1.0000 0.45115  0.88162  0.21933  Biso   1.000  H
  C435     1.0000 0.44368  0.94353  0.35174  Biso   1.000  C
  H430     1.0000 0.48798  0.95905  0.31024  Biso   1.000  H
  C436     1.0000 0.46547  0.92125  0.40715  Biso   1.000  C
  O161     1.0000 0.52738  0.91513  0.41103  Biso   1.000  O
  O162     1.0000 0.36959  0.71822  0.20764  Biso   1.000  O
  C437     1.0000 0.36935  0.78644  0.21194  Biso   1.000  C
  H431     1.0000 0.47757  0.77144  0.22693  Biso   1.000  H
  C438     1.0000 0.36805  0.85703  0.21502  Biso   1.000  C
  C439     1.0000 0.41097  0.95193  0.33072  Biso   1.000  C
  C440     1.0000 0.43627  0.93046  0.38805  Biso   1.000  C
  O163     1.0000 0.45608  0.90804  0.44323  Biso   1.000  O
  H432     1.0000 0.54016  0.90654  0.39762  Biso   1.000  H
  H433     1.0000 0.34316  0.70813  0.20894  Biso   1.000  H
  O164     1.0000 0.32391  0.76103  0.20972  Biso   1.000  O
  C441     1.0000 0.35836  0.86565  0.25364  Biso   1.000  C
  H434     1.0000 0.33997  0.83924  0.20264  Biso   1.000  H
  C442     1.0000 0.39288  0.89965  0.19254  Biso   1.000  C
  C443     1.0000 0.37849  0.91035  0.31004  Biso   1.000  C
  H435     1.0000 0.39437  0.95755  0.34954  Biso   1.000  H
  C444     1.0000 0.43287  0.99253  0.30593  Biso   1.000  C
  O165     1.0000 0.39955  0.92493  0.40692  Biso   1.000  O
  H436     1.0000 0.43357  0.90733  0.44942  Biso   1.000  H
  H437     1.0000 0.31277  0.77193  0.22255  Biso   1.000  H
  C445     1.0000 0.31996  0.83634  0.27074  Biso   1.000  C
  C446     1.0000 0.38626  0.90303  0.27362  Biso   1.000  C
  H438     1.0000 0.39826  0.89304  0.16794  Biso   1.000  H
  H439     1.0000 0.37576  0.91364  0.19123  Biso   1.000  H
  H440     1.0000 0.42008  0.91865  0.20445  Biso   1.000  H
  C447     1.0000 0.34015  0.87984  0.32653  Biso   1.000  C
  H441     1.0000 0.44896  0.98814  0.28664  Biso   1.000  H
  H442     1.0000 0.41096  0.99744  0.29494  Biso   1.000  H
  H443     1.0000 0.45227  0.01735  0.32054  Biso   1.000  H
  H444     1.0000 0.37817  0.91243  0.39343  Biso   1.000  H
  O166     1.0000 0.28957  0.79883  0.25222  Biso   1.000  O
  C448     1.0000 0.31196  0.84203  0.30682  Biso   1.000  C
  H445     1.0000 0.41147  0.92414  0.26202  Biso   1.000  H
  O167     1.0000 0.32826  0.88315  0.36204  Biso   1.000  O
  H446     1.0000 0.30238  0.78923  0.23984  Biso   1.000  H
  O168     1.0000 0.27365  0.81113  0.32464  Biso   1.000  O
  H447     1.0000 0.35006  0.89565  0.37503  Biso   1.000  H
  H448     1.0000 0.25978  0.79053  0.31074  Biso   1.000  H
  O169     1.0000 0.18887  0.46254  0.32464  Biso   1.000  O
  H449     1.0000 0.20946  0.46925  0.31074  Biso   1.000  H
  C449     1.0000 0.15797  0.46993  0.30682  Biso   1.000  C
  C450     1.0000 0.16366  0.48362  0.27074  Biso   1.000  C
  C451     1.0000 0.12018  0.46033  0.32653  Biso   1.000  C
  O170     1.0000 0.20117  0.49075  0.25222  Biso   1.000  O
  C452     1.0000 0.13438  0.49273  0.25364  Biso   1.000  C
  O171     1.0000 0.11686  0.44514  0.36204  Biso   1.000  O
  C453     1.0000 0.08968  0.46814  0.31004  Biso   1.000  C
  H450     1.0000 0.21076  0.51313  0.23984  Biso   1.000  H
  C454     1.0000 0.09697  0.48323  0.27362  Biso   1.000  C
  C455     1.0000 0.14297  0.51105  0.21502  Biso   1.000  C
  H451     1.0000 0.10438  0.45444  0.37503  Biso   1.000  H
  C456     1.0000 0.04808  0.45903  0.33072  Biso   1.000  C
  H452     1.0000 0.07586  0.48733  0.26202  Biso   1.000  H
  H453     1.0000 0.16078  0.50074  0.20264  Biso   1.000  H
  C457     1.0000 0.10036  0.49322  0.19254  Biso   1.000  C
  C458     1.0000 0.16888  0.56004  0.21463  Biso   1.000  C
  C459     1.0000 0.05647  0.50015  0.35174  Biso   1.000  C
  H454     1.0000 0.04248  0.43684  0.34954  Biso   1.000  H
  C460     1.0000 0.00745  0.44032  0.30593  Biso   1.000  C
  H455     1.0000 0.10695  0.50523  0.16794  Biso   1.000  H
  H456     1.0000 0.08638  0.46215  0.19123  Biso   1.000  H
  H457     1.0000 0.08137  0.50145  0.20445  Biso   1.000  H
  C461     1.0000 0.21357  0.58295  0.21194  Biso   1.000  C
  C462     1.0000 0.14857  0.58434  0.21713  Biso   1.000  C
  C463     1.0000 0.05078  0.53285  0.33464  Biso   1.000  C
  C464     1.0000 0.06957  0.50584  0.38805  Biso   1.000  C
  H458     1.0000 0.01188  0.46085  0.28664  Biso   1.000  H
  H459     1.0000 0.00257  0.41355  0.29494  Biso   1.000  H
  H460     1.0000 0.98266  0.43492  0.32054  Biso   1.000  H
  O172     1.0000 0.23900  0.56291  0.20972  Biso   1.000  O
  C465     1.0000 0.23676  0.62735  0.21044  Biso   1.000  C
  C466     1.0000 0.17035  0.62982  0.21633  Biso   1.000  C
  H461     1.0000 0.11838  0.56954  0.21933  Biso   1.000  H
  C467     1.0000 0.05976  0.57143  0.35374  Biso   1.000  C
  H462     1.0000 0.04097  0.52894  0.31024  Biso   1.000  H
  O173     1.0000 0.07507  0.47465  0.40692  Biso   1.000  O
  C468     1.0000 0.07876  0.54423  0.40715  Biso   1.000  C
  H463     1.0000 0.22808  0.54085  0.22255  Biso   1.000  H
  O174     1.0000 0.28180  0.65139  0.20764  Biso   1.000  O
  C469     1.0000 0.21516  0.65104  0.21325  Biso   1.000  C
  C470     1.0000 0.14627  0.65543  0.21902  Biso   1.000  C
  C471     1.0000 0.05136  0.60523  0.33544  Biso   1.000  C
  C472     1.0000 0.07456  0.57634  0.38974  Biso   1.000  C
  H464     1.0000 0.08757  0.46573  0.39343  Biso   1.000  H
  O175     1.0000 0.09196  0.54804  0.44323  Biso   1.000  O
  H465     1.0000 0.29188  0.63503  0.20894  Biso   1.000  H
  O176     1.0000 0.23830  0.69619  0.21153  Biso   1.000  O
  H466     1.0000 0.16536  0.68425  0.20822  Biso   1.000  H
  C473     1.0000 0.10478  0.63425  0.19584  Biso   1.000  C
  C474     1.0000 0.13898  0.66265  0.25852  Biso   1.000  C
  C475     1.0000 0.09267  0.63893  0.31423  Biso   1.000  C
  H467     1.0000 0.04568  0.62075  0.35524  Biso   1.000  H
  C476     1.0000 0.01146  0.58454  0.31004  Biso   1.000  C
  O177     1.0000 0.08486  0.61222  0.41103  Biso   1.000  O
  H468     1.0000 0.09267  0.52624  0.44942  Biso   1.000  H
  H469     1.0000 0.22857  0.70615  0.22693  Biso   1.000  H
  H470     1.0000 0.09046  0.65113  0.19773  Biso   1.000  H
  H471     1.0000 0.11188  0.63295  0.17033  Biso   1.000  H
  H472     1.0000 0.08567  0.60533  0.20484  Biso   1.000  H
  C477     1.0000 0.16798  0.70035  0.27893  Biso   1.000  C
  C478     1.0000 0.10128  0.63295  0.27812  Biso   1.000  C
  C479     1.0000 0.12186  0.67755  0.33253  Biso   1.000  C
  H473     1.0000 0.00666  0.60682  0.30002  Biso   1.000  H
  H474     1.0000 0.01636  0.56954  0.29014  Biso   1.000  H
  H475     1.0000 0.98646  0.56434  0.32403  Biso   1.000  H
  H476     1.0000 0.09345  0.63363  0.39762  Biso   1.000  H
  O178     1.0000 0.20697  0.73185  0.26305  Biso   1.000  O
  C480     1.0000 0.15996  0.70754  0.31374  Biso   1.000  C
  H477     1.0000 0.08107  0.60774  0.26593  Biso   1.000  H
  O179     1.0000 0.11446  0.68546  0.36823  Biso   1.000  O
  H478     1.0000 0.21536  0.72023  0.24803  Biso   1.000  H
  O180     1.0000 0.18777  0.74473  0.33394  Biso   1.000  O
  H479     1.0000 0.10577  0.66333  0.38064  Biso   1.000  H
  H480     1.0000 0.21145  0.75784  0.32342  Biso   1.000  H
  O181     1.0000 0.81113  0.53747  0.67536  Biso   1.000  O
  H481     1.0000 0.79054  0.53076  0.68926  Biso   1.000  H
  C481     1.0000 0.84204  0.53008  0.69318  Biso   1.000  C
  C482     1.0000 0.83635  0.51638  0.72926  Biso   1.000  C
  C483     1.0000 0.87986  0.53968  0.67347  Biso   1.000  C
  O182     1.0000 0.79883  0.50926  0.74778  Biso   1.000  O
  C484     1.0000 0.86566  0.50728  0.74636  Biso   1.000  C
  O183     1.0000 0.88314  0.55487  0.63796  Biso   1.000  O
  C485     1.0000 0.91035  0.53187  0.68996  Biso   1.000  C
  H482     1.0000 0.78925  0.48688  0.76016  Biso   1.000  H
  C486     1.0000 0.90303  0.51678  0.72638  Biso   1.000  C
  C487     1.0000 0.85703  0.48896  0.78498  Biso   1.000  C
  H483     1.0000 0.89565  0.54557  0.62497  Biso   1.000  H
  C488     1.0000 0.95196  0.54098  0.66928  Biso   1.000  C
  H484     1.0000 0.92414  0.51268  0.73798  Biso   1.000  H
  H485     1.0000 0.83923  0.49927  0.79736  Biso   1.000  H
  C489     1.0000 0.89963  0.50676  0.80746  Biso   1.000  C
  C490     1.0000 0.83113  0.43997  0.78537  Biso   1.000  C
  C491     1.0000 0.94354  0.49986  0.64826  Biso   1.000  C
  H486     1.0000 0.95753  0.56317  0.65046  Biso   1.000  H
  C492     1.0000 0.99255  0.55969  0.69407  Biso   1.000  C
  H487     1.0000 0.89305  0.49478  0.83206  Biso   1.000  H
  H488     1.0000 0.91363  0.53786  0.80877  Biso   1.000  H
  H489     1.0000 0.91863  0.49856  0.79555  Biso   1.000  H
  C493     1.0000 0.78643  0.41706  0.78806  Biso   1.000  C
  C494     1.0000 0.85143  0.41566  0.78287  Biso   1.000  C
  C495     1.0000 0.94922  0.46716  0.66536  Biso   1.000  C
  C496     1.0000 0.93044  0.49417  0.61195  Biso   1.000  C
  H490     1.0000 0.98812  0.53916  0.71336  Biso   1.000  H
  H491     1.0000 0.99743  0.58646  0.70506  Biso   1.000  H
  H492     1.0000 0.01734  0.56509  0.67946  Biso   1.000  H
  O184     1.0000 0.76101  0.43710  0.79028  Biso   1.000  O
  C497     1.0000 0.76324  0.37266  0.78956  Biso   1.000  C
  C498     1.0000 0.82965  0.37018  0.78367  Biso   1.000  C
  H493     1.0000 0.88163  0.43047  0.78067  Biso   1.000  H
  C499     1.0000 0.94024  0.42858  0.64626  Biso   1.000  C
  H494     1.0000 0.95904  0.47107  0.68976  Biso   1.000  H
  O185     1.0000 0.92493  0.52536  0.59308  Biso   1.000  O
  C500     1.0000 0.92125  0.45578  0.59285  Biso   1.000  C
  H495     1.0000 0.77193  0.45916  0.77745  Biso   1.000  H
  O186     1.0000 0.71820  0.34862  0.79236  Biso   1.000  O
  C501     1.0000 0.78484  0.34897  0.78675  Biso   1.000  C
  C502     1.0000 0.85376  0.34458  0.78098  Biso   1.000  C
  C503     1.0000 0.94864  0.39478  0.66456  Biso   1.000  C
  C504     1.0000 0.92545  0.42367  0.61026  Biso   1.000  C
  H496     1.0000 0.91243  0.53428  0.60657  Biso   1.000  H
  O187     1.0000 0.90804  0.45197  0.55677  Biso   1.000  O
  H497     1.0000 0.70816  0.36498  0.79106  Biso   1.000  H
  O188     1.0000 0.76170  0.30382  0.78847  Biso   1.000  O
  H498     1.0000 0.83464  0.31576  0.79178  Biso   1.000  H
  C505     1.0000 0.89523  0.36576  0.80416  Biso   1.000  C
  C506     1.0000 0.86102  0.33736  0.74148  Biso   1.000  C
  C507     1.0000 0.90734  0.36108  0.68577  Biso   1.000  C
  H499     1.0000 0.95432  0.37926  0.64476  Biso   1.000  H
  C508     1.0000 0.98854  0.41547  0.68996  Biso   1.000  C
  O189     1.0000 0.91514  0.38778  0.58897  Biso   1.000  O
  H500     1.0000 0.90734  0.47377  0.55058  Biso   1.000  H
  H501     1.0000 0.77143  0.29386  0.77307  Biso   1.000  H
  H502     1.0000 0.90955  0.34888  0.80227  Biso   1.000  H
  H503     1.0000 0.88813  0.36706  0.82967  Biso   1.000  H
  H504     1.0000 0.91434  0.39468  0.79516  Biso   1.000  H
  C509     1.0000 0.83203  0.29965  0.72107  Biso   1.000  C
  C510     1.0000 0.89875  0.36706  0.72188  Biso   1.000  C
  C511     1.0000 0.87814  0.32246  0.66747  Biso   1.000  C
  H505     1.0000 0.99335  0.39319  0.69998  Biso   1.000  H
  H506     1.0000 0.98365  0.43047  0.70986  Biso   1.000  H
  H507     1.0000 0.01355  0.43567  0.67597  Biso   1.000  H
  H508     1.0000 0.90655  0.36638  0.60238  Biso   1.000  H
  O190     1.0000 0.79304  0.26816  0.73695  Biso   1.000  O
  C512     1.0000 0.84004  0.29247  0.68626  Biso   1.000  C
  H509     1.0000 0.91894  0.39227  0.73407  Biso   1.000  H
  O191     1.0000 0.88554  0.31455  0.63177  Biso   1.000  O
  H510     1.0000 0.78465  0.27978  0.75197  Biso   1.000  H
  O192     1.0000 0.81223  0.25528  0.66606  Biso   1.000  O
  H511     1.0000 0.89424  0.33668  0.61936  Biso   1.000  H
  H512     1.0000 0.78855  0.24217  0.67658  Biso   1.000  H
  O193     1.0000 0.69879  0.31345  0.37303  Biso   1.000  O
  C513     1.0000 0.71687  0.28752  0.37683  Biso   1.000  C
  H513     1.0000 0.70537  0.32542  0.35263  Biso   1.000  H
  C514     1.0000 0.69266  0.24344  0.37794  Biso   1.000  C
  C515     1.0000 0.76148  0.30704  0.37914  Biso   1.000  C
  O194     1.0000 0.64746  0.22584  0.37472  Biso   1.000  O
  C516     1.0000 0.71076  0.21693  0.38064  Biso   1.000  C
  C517     1.0000 0.78307  0.28323  0.38283  Biso   1.000  C
  O195     1.0000 0.78697  0.35232  0.37783  Biso   1.000  O
  H514     1.0000 0.63498  0.20414  0.38782  Biso   1.000  H
  C518     1.0000 0.75588  0.23853  0.38344  Biso   1.000  C
  C519     1.0000 0.68377  0.16774  0.38113  Biso   1.000  C
  C520     1.0000 0.83146  0.30483  0.38733  Biso   1.000  C
  H515     1.0000 0.80597  0.36062  0.39374  Biso   1.000  H
  H516     1.0000 0.76888  0.22154  0.38594  Biso   1.000  H
  C521     1.0000 0.67358  0.14994  0.42022  Biso   1.000  C
  H517     1.0000 0.65608  0.15973  0.36903  Biso   1.000  H
  C522     1.0000 0.70579  0.14685  0.35823  Biso   1.000  C
  C523     1.0000 0.84547  0.31003  0.42663  Biso   1.000  C
  H518     1.0000 0.84349  0.33424  0.37722  Biso   1.000  H
  C524     1.0000 0.85077  0.28192  0.36354  Biso   1.000  C
  C525     1.0000 0.63627  0.14402  0.43854  Biso   1.000  C
  C526     1.0000 0.69996  0.13813  0.44043  Biso   1.000  C
  H519     1.0000 0.71136  0.15833  0.33353  Biso   1.000  H
  H520     1.0000 0.68679  0.11585  0.35735  Biso   1.000  H
  H521     1.0000 0.73267  0.15323  0.36984  Biso   1.000  H
  C527     1.0000 0.85588  0.34793  0.44654  Biso   1.000  C
  C528     1.0000 0.84988  0.27783  0.44484  Biso   1.000  C
  H522     1.0000 0.84107  0.27965  0.33833  Biso   1.000  H
  H523     1.0000 0.84107  0.25333  0.37322  Biso   1.000  H
  H524     1.0000 0.88198  0.29865  0.36434  Biso   1.000  H
  O196     1.0000 0.60757  0.15332  0.41922  Biso   1.000  O
  C529     1.0000 0.62758  0.12974  0.47374  Biso   1.000  C
  H525     1.0000 0.72478  0.14083  0.42902  Biso   1.000  H
  C530     1.0000 0.69067  0.12265  0.47654  Biso   1.000  C
  O197     1.0000 0.85188  0.38212  0.43143  Biso   1.000  O
  C531     1.0000 0.87159  0.35405  0.48154  Biso   1.000  C
  C532     1.0000 0.86456  0.28274  0.48104  Biso   1.000  C
  H526     1.0000 0.84276  0.25232  0.43224  Biso   1.000  H
  H527     1.0000 0.62156  0.17522  0.40665  Biso   1.000  H
  O198     1.0000 0.59018  0.12554  0.49084  Biso   1.000  O
  C533     1.0000 0.65406  0.11913  0.49373  Biso   1.000  C
  C534     1.0000 0.72049  0.10915  0.49622  Biso   1.000  C
  H528     1.0000 0.83256  0.37262  0.41572  Biso   1.000  H
  O199     1.0000 0.88256  0.39104  0.50194  Biso   1.000  O
  C535     1.0000 0.87678  0.32194  0.49972  Biso   1.000  C
  C536     1.0000 0.86898  0.24672  0.50064  Biso   1.000  C
  H529     1.0000 0.57736  0.13302  0.47624  Biso   1.000  H
  O200     1.0000 0.64187  0.10433  0.52884  Biso   1.000  O
  H530     1.0000 0.70258  0.08702  0.51455  Biso   1.000  H
  C537     1.0000 0.73877  0.08875  0.47083  Biso   1.000  C
  C538     1.0000 0.75548  0.14825  0.51782  Biso   1.000  C
  H531     1.0000 0.87506  0.40623  0.49065  Biso   1.000  H
  O201     1.0000 0.89267  0.32825  0.53514  Biso   1.000  O
  C539     1.0000 0.82587  0.21494  0.52054  Biso   1.000  C
  H532     1.0000 0.89137  0.26075  0.51982  Biso   1.000  H
  C540     1.0000 0.88408  0.22333  0.47443  Biso   1.000  C
  H533     1.0000 0.66359  0.11074  0.54144  Biso   1.000  H
  H534     1.0000 0.75637  0.08032  0.48493  Biso   1.000  H
  H535     1.0000 0.75628  0.10934  0.45203  Biso   1.000  H
  H536     1.0000 0.71538  0.06354  0.45933  Biso   1.000  H
  C541     1.0000 0.74966  0.15323  0.55494  Biso   1.000  C
  C542     1.0000 0.79358  0.17903  0.50164  Biso   1.000  C
  H537     1.0000 0.87877  0.30574  0.54714  Biso   1.000  H
  C543     1.0000 0.81897  0.22034  0.55663  Biso   1.000  C
  H538     1.0000 0.91096  0.24402  0.46302  Biso   1.000  H
  H539     1.0000 0.86247  0.20863  0.45553  Biso   1.000  H
  H540     1.0000 0.88817  0.20245  0.48804  Biso   1.000  H
  O202     1.0000 0.71251  0.12418  0.57334  Biso   1.000  O
  C544     1.0000 0.78087  0.18934  0.57423  Biso   1.000  C
  H541     1.0000 0.79807  0.17584  0.47674  Biso   1.000  H
  O203     1.0000 0.84817  0.25463  0.57792  Biso   1.000  O
  H542     1.0000 0.69125  0.11812  0.56032  Biso   1.000  H
  O204     1.0000 0.77428  0.19363  0.61043  Biso   1.000  O
  H543     1.0000 0.86116  0.27633  0.56485  Biso   1.000  H
  H544     1.0000 0.75089  0.17304  0.61703  Biso   1.000  H
  O205     1.0000 0.55918  0.24503  0.29194  Biso   1.000  O
  C545     1.0000 0.57677  0.21745  0.28872  Biso   1.000  C
  H545     1.0000 0.53748  0.23583  0.27884  Biso   1.000  H
  C546     1.0000 0.55028  0.17284  0.28603  Biso   1.000  C
  C547     1.0000 0.62086  0.23732  0.28983  Biso   1.000  C
  C548     1.0000 0.50107  0.15062  0.28553  Biso   1.000  C
  C549     1.0000 0.57187  0.14932  0.28323  Biso   1.000  C
  C550     1.0000 0.64038  0.21224  0.28753  Biso   1.000  C
  O206     1.0000 0.64678  0.28134  0.29364  Biso   1.000  O
  C551     1.0000 0.48328  0.14304  0.24645  Biso   1.000  C
  H546     1.0000 0.49307  0.17034  0.29763  Biso   1.000  H
  C552     1.0000 0.48017  0.10775  0.30843  Biso   1.000  C
  C553     1.0000 0.61657  0.16683  0.28384  Biso   1.000  C
  H547     1.0000 0.55487  0.11933  0.28073  Biso   1.000  H
  O207     1.0000 0.68566  0.23202  0.28884  Biso   1.000  O
  H548     1.0000 0.65878  0.28674  0.31404  Biso   1.000  H
  C554     1.0000 0.47737  0.17444  0.22813  Biso   1.000  C
  C555     1.0000 0.47147  0.10482  0.22624  Biso   1.000  C
  H549     1.0000 0.49168  0.11364  0.33314  Biso   1.000  H
  H550     1.0000 0.44918  0.09574  0.30932  Biso   1.000  H
  H551     1.0000 0.48656  0.08722  0.29683  Biso   1.000  H
  C556     1.0000 0.63816  0.14002  0.27934  Biso   1.000  C
  H552     1.0000 0.69398  0.22135  0.27293  Biso   1.000  H
  C557     1.0000 0.46308  0.16884  0.19293  Biso   1.000  C
  O208     1.0000 0.48668  0.21244  0.24745  Biso   1.000  O
  C558     1.0000 0.45598  0.09864  0.19012  Biso   1.000  C
  H553     1.0000 0.47417  0.08273  0.23765  Biso   1.000  H
  C559     1.0000 0.64338  0.13124  0.24003  Biso   1.000  C
  H554     1.0000 0.66757  0.15742  0.28945  Biso   1.000  H
  C560     1.0000 0.61526  0.09782  0.30313  Biso   1.000  C
  O209     1.0000 0.45888  0.20203  0.17583  Biso   1.000  O
  C561     1.0000 0.45246  0.13172  0.17294  Biso   1.000  C
  H555     1.0000 0.50858  0.22034  0.26002  Biso   1.000  H
  C562     1.0000 0.44247  0.05534  0.17044  Biso   1.000  C
  C563     1.0000 0.68127  0.15872  0.22013  Biso   1.000  C
  C564     1.0000 0.61116  0.09464  0.22182  Biso   1.000  C
  H556     1.0000 0.61297  0.10524  0.32834  Biso   1.000  H
  H557     1.0000 0.58665  0.07892  0.29344  Biso   1.000  H
  H558     1.0000 0.63197  0.08335  0.30233  Biso   1.000  H
  H559     1.0000 0.46638  0.22233  0.19043  Biso   1.000  H
  O210     1.0000 0.43767  0.12912  0.13782  Biso   1.000  O
  H560     1.0000 0.42037  0.05114  0.15212  Biso   1.000  H
  C565     1.0000 0.42207  0.01662  0.19584  Biso   1.000  C
  C566     1.0000 0.48157  0.05944  0.14885  Biso   1.000  C
  O211     1.0000 0.71548  0.19695  0.23523  Biso   1.000  O
  C567     1.0000 0.68737  0.14913  0.18513  Biso   1.000  C
  C568     1.0000 0.61607  0.08484  0.18563  Biso   1.000  C
  H561     1.0000 0.58567  0.07622  0.23443  Biso   1.000  H
  H562     1.0000 0.44408  0.11383  0.12522  Biso   1.000  H
  H563     1.0000 0.44268  0.01975  0.21463  Biso   1.000  H
  H564     1.0000 0.39686  0.01483  0.20733  Biso   1.000  H
  H565     1.0000 0.41367  0.99063  0.18174  Biso   1.000  H
  C569     1.0000 0.48658  0.07024  0.11173  Biso   1.000  C
  C570     1.0000 0.51238  0.05215  0.16503  Biso   1.000  C
  H566     1.0000 0.70598  0.20674  0.25094  Biso   1.000  H
  C571     1.0000 0.65529  0.11185  0.16694  Biso   1.000  C
  O212     1.0000 0.72437  0.17512  0.16472  Biso   1.000  O
  C572     1.0000 0.58006  0.04444  0.16603  Biso   1.000  C
  O213     1.0000 0.45752  0.07834  0.09333  Biso   1.000  O
  C573     1.0000 0.52267  0.07515  0.09244  Biso   1.000  C
  C574     1.0000 0.54826  0.05573  0.14612  Biso   1.000  C
  H567     1.0000 0.50918  0.04444  0.18993  Biso   1.000  H
  O214     1.0000 0.66157  0.10225  0.13152  Biso   1.000  O
  H568     1.0000 0.73956  0.19783  0.17602  Biso   1.000  H
  H569     1.0000 0.59406  0.03605  0.14685  Biso   1.000  H
  C575     1.0000 0.55666  0.00592  0.19223  Biso   1.000  C
  H570     1.0000 0.45148  0.09353  0.10635  Biso   1.000  H
  O215     1.0000 0.52696  0.08605  0.05624  Biso   1.000  O
  C576     1.0000 0.55368  0.06802  0.11004  Biso   1.000  C
  H571     1.0000 0.63905  0.09363  0.11953  Biso   1.000  H
  H572     1.0000 0.54196  0.01282  0.21114  Biso   1.000  H
  H573     1.0000 0.57738  0.99974  0.20364  Biso   1.000  H
  H574     1.0000 0.53577  0.98094  0.17863  Biso   1.000  H
  H575     1.0000 0.50639  0.08885  0.04963  Biso   1.000  H
  O216     1.0000 0.58798  0.07313  0.08875  Biso   1.000  O
  H576     1.0000 0.60965  0.08182  0.10182  Biso   1.000  H
  O217     1.0000 0.30122  0.68656  0.62697  Biso   1.000  O
  C577     1.0000 0.28312  0.71246  0.62317  Biso   1.000  C
  H577     1.0000 0.29462  0.67456  0.64737  Biso   1.000  H
  C578     1.0000 0.23852  0.69297  0.62086  Biso   1.000  C
  C579     1.0000 0.30734  0.75657  0.62206  Biso   1.000  C
  C580     1.0000 0.21693  0.71678  0.61717  Biso   1.000  C
  O218     1.0000 0.21304  0.64769  0.62217  Biso   1.000  O
  C581     1.0000 0.28924  0.78308  0.61936  Biso   1.000  C
  O219     1.0000 0.35254  0.77417  0.62528  Biso   1.000  O
  C582     1.0000 0.16855  0.69518  0.61267  Biso   1.000  C
  C583     1.0000 0.24413  0.76148  0.61656  Biso   1.000  C
  H578     1.0000 0.19402  0.63936  0.60626  Biso   1.000  H
  C584     1.0000 0.31623  0.83227  0.61887  Biso   1.000  C
  H579     1.0000 0.36503  0.79587  0.61218  Biso   1.000  H
  C585     1.0000 0.15453  0.68998  0.57337  Biso   1.000  C
  H580     1.0000 0.15655  0.66577  0.62278  Biso   1.000  H
  C586     1.0000 0.14923  0.71808  0.63646  Biso   1.000  C
  H581     1.0000 0.23112  0.77846  0.61406  Biso   1.000  H
  C587     1.0000 0.32643  0.85007  0.57978  Biso   1.000  C
  H582     1.0000 0.34393  0.84028  0.63097  Biso   1.000  H
  C588     1.0000 0.29422  0.85316  0.64177  Biso   1.000  C
  C589     1.0000 0.14415  0.65208  0.55346  Biso   1.000  C
  C590     1.0000 0.15013  0.72218  0.55516  Biso   1.000  C
  H583     1.0000 0.15894  0.72036  0.66167  Biso   1.000  H
  H584     1.0000 0.15894  0.74668  0.62678  Biso   1.000  H
  H585     1.0000 0.11802  0.70136  0.63566  Biso   1.000  H
  C591     1.0000 0.30004  0.86188  0.55957  Biso   1.000  C
  C592     1.0000 0.36373  0.85599  0.56146  Biso   1.000  C
  H586     1.0000 0.28865  0.84167  0.66647  Biso   1.000  H
  H587     1.0000 0.31324  0.88416  0.64265  Biso   1.000  H
  H588     1.0000 0.26734  0.84678  0.63016  Biso   1.000  H
  C593     1.0000 0.12844  0.64596  0.51846  Biso   1.000  C
  O220     1.0000 0.14816  0.61789  0.56857  Biso   1.000  O
  C594     1.0000 0.13544  0.71727  0.51896  Biso   1.000  C
  H589     1.0000 0.15723  0.74766  0.56776  Biso   1.000  H
  C595     1.0000 0.30934  0.87736  0.52346  Biso   1.000  C
  H590     1.0000 0.27522  0.85918  0.57098  Biso   1.000  H
  C596     1.0000 0.37245  0.87027  0.52626  Biso   1.000  C
  O221     1.0000 0.39244  0.84668  0.58078  Biso   1.000  O
  O222     1.0000 0.11744  0.60897  0.49806  Biso   1.000  O
  C597     1.0000 0.12322  0.67807  0.50028  Biso   1.000  C
  H591     1.0000 0.16744  0.62738  0.58428  Biso   1.000  H
  C598     1.0000 0.13105  0.75328  0.49936  Biso   1.000  C
  C599     1.0000 0.27952  0.89086  0.50378  Biso   1.000  C
  C600     1.0000 0.34594  0.88088  0.50627  Biso   1.000  C
  O223     1.0000 0.40982  0.87447  0.50916  Biso   1.000  O
  H592     1.0000 0.37843  0.82476  0.59335  Biso   1.000  H
  H593     1.0000 0.12494  0.59378  0.50935  Biso   1.000  H
  O224     1.0000 0.10733  0.67176  0.46486  Biso   1.000  O
  C601     1.0000 0.17413  0.78507  0.47946  Biso   1.000  C
  H594     1.0000 0.10863  0.73926  0.48018  Biso   1.000  H
  C602     1.0000 0.11593  0.77668  0.52557  Biso   1.000  C
  C603     1.0000 0.24453  0.85176  0.48218  Biso   1.000  C
  H595     1.0000 0.29745  0.91299  0.48545  Biso   1.000  H
  C604     1.0000 0.26123  0.91126  0.52917  Biso   1.000  C
  O225     1.0000 0.35813  0.89568  0.47116  Biso   1.000  O
  H596     1.0000 0.42265  0.86699  0.52376  Biso   1.000  H
  H597     1.0000 0.12124  0.69427  0.45286  Biso   1.000  H
  C605     1.0000 0.18104  0.77967  0.44337  Biso   1.000  C
  C606     1.0000 0.20643  0.82098  0.49836  Biso   1.000  C
  H598     1.0000 0.08904  0.75598  0.53698  Biso   1.000  H
  H599     1.0000 0.13753  0.79138  0.54447  Biso   1.000  H
  H600     1.0000 0.11183  0.79756  0.51196  Biso   1.000  H
  C607     1.0000 0.25035  0.84678  0.44506  Biso   1.000  C
  H601     1.0000 0.24364  0.91969  0.51507  Biso   1.000  H
  H602     1.0000 0.24372  0.89067  0.54797  Biso   1.000  H
  H603     1.0000 0.28463  0.93647  0.54067  Biso   1.000  H
  H604     1.0000 0.33645  0.88927  0.45856  Biso   1.000  H
  O226     1.0000 0.15184  0.74538  0.42208  Biso   1.000  O
  C608     1.0000 0.21914  0.81067  0.42577  Biso   1.000  C
  H605     1.0000 0.20194  0.82417  0.52326  Biso   1.000  H
  O227     1.0000 0.28750  0.87583  0.42666  Biso   1.000  O
  H606     1.0000 0.13884  0.72368  0.43515  Biso   1.000  H
  O228     1.0000 0.22575  0.80638  0.38957  Biso   1.000  O
  H607     1.0000 0.30875  0.88188  0.43968  Biso   1.000  H
  H608     1.0000 0.24915  0.82697  0.38297  Biso   1.000  H
  O229     1.0000 0.44085  0.75498  0.70806  Biso   1.000  O
  C609     1.0000 0.42323  0.78256  0.71128  Biso   1.000  C
  H609     1.0000 0.46256  0.76418  0.72116  Biso   1.000  H
  C610     1.0000 0.37915  0.76269  0.71017  Biso   1.000  C
  C611     1.0000 0.44973  0.82717  0.71397  Biso   1.000  C
  O230     1.0000 0.35322  0.71867  0.70636  Biso   1.000  O
  C612     1.0000 0.35963  0.78777  0.71247  Biso   1.000  C
  C613     1.0000 0.42813  0.85069  0.71677  Biso   1.000  C
  C614     1.0000 0.49893  0.84939  0.71447  Biso   1.000  C
  H610     1.0000 0.34122  0.71327  0.68596  Biso   1.000  H
  O231     1.0000 0.31435  0.76799  0.71116  Biso   1.000  O
  C615     1.0000 0.38343  0.83318  0.71616  Biso   1.000  C
  H611     1.0000 0.44513  0.88068  0.71927  Biso   1.000  H
  C616     1.0000 0.51672  0.85697  0.75355  Biso   1.000  C
  H612     1.0000 0.50694  0.82967  0.70237  Biso   1.000  H
  C617     1.0000 0.51983  0.89226  0.69157  Biso   1.000  C
  H613     1.0000 0.30602  0.77866  0.72707  Biso   1.000  H
  C618     1.0000 0.36183  0.85996  0.72066  Biso   1.000  C
  C619     1.0000 0.52264  0.82557  0.77187  Biso   1.000  C
  C620     1.0000 0.52852  0.89516  0.77376  Biso   1.000  C
  H614     1.0000 0.50832  0.88637  0.66686  Biso   1.000  H
  H615     1.0000 0.55083  0.90427  0.69068  Biso   1.000  H
  H616     1.0000 0.51345  0.91279  0.70317  Biso   1.000  H
  C621     1.0000 0.35663  0.86877  0.75997  Biso   1.000  C
  H617     1.0000 0.33243  0.84259  0.71055  Biso   1.000  H
  C622     1.0000 0.38474  0.90219  0.69687  Biso   1.000  C
  O232     1.0000 0.51333  0.78757  0.75255  Biso   1.000  O
  C623     1.0000 0.53693  0.83117  0.80707  Biso   1.000  C
  H618     1.0000 0.52583  0.91728  0.76235  Biso   1.000  H
  C624     1.0000 0.54403  0.90137  0.80988  Biso   1.000  C
  C625     1.0000 0.31874  0.84128  0.77987  Biso   1.000  C
  C626     1.0000 0.38884  0.90537  0.77818  Biso   1.000  C
  H619     1.0000 0.38704  0.89477  0.67166  Biso   1.000  H
  H620     1.0000 0.41335  0.92109  0.70656  Biso   1.000  H
  H621     1.0000 0.36803  0.91666  0.69767  Biso   1.000  H
  H622     1.0000 0.49143  0.77967  0.73998  Biso   1.000  H
  O233     1.0000 0.54116  0.79798  0.82417  Biso   1.000  O
  C627     1.0000 0.54754  0.86829  0.82706  Biso   1.000  C
  C628     1.0000 0.55753  0.94467  0.82956  Biso   1.000  C
  O234     1.0000 0.28452  0.80306  0.76477  Biso   1.000  O
  C629     1.0000 0.31263  0.85088  0.81487  Biso   1.000  C
  C630     1.0000 0.38394  0.91517  0.81437  Biso   1.000  C
  H623     1.0000 0.41434  0.92379  0.76557  Biso   1.000  H
  H624     1.0000 0.53366  0.77768  0.80957  Biso   1.000  H
  O235     1.0000 0.56234  0.87089  0.86218  Biso   1.000  O
  H625     1.0000 0.57964  0.94887  0.84788  Biso   1.000  H
  C631     1.0000 0.57793  0.98339  0.80416  Biso   1.000  C
  C632     1.0000 0.51844  0.94057  0.85115  Biso   1.000  C
  H626     1.0000 0.29402  0.79327  0.74906  Biso   1.000  H
  O236     1.0000 0.27563  0.82489  0.83528  Biso   1.000  O
  C633     1.0000 0.34474  0.88816  0.83306  Biso   1.000  C
  C634     1.0000 0.41994  0.95557  0.83397  Biso   1.000  C
  H627     1.0000 0.55595  0.88618  0.87478  Biso   1.000  H
  H628     1.0000 0.55733  0.98026  0.78537  Biso   1.000  H
  H629     1.0000 0.60314  0.98517  0.79267  Biso   1.000  H
  H630     1.0000 0.58634  0.00938  0.81826  Biso   1.000  H
  C635     1.0000 0.51343  0.92977  0.88827  Biso   1.000  C
  C636     1.0000 0.48762  0.94786  0.83497  Biso   1.000  C
  H631     1.0000 0.26045  0.80218  0.82398  Biso   1.000  H
  O237     1.0000 0.33844  0.89776  0.86848  Biso   1.000  O
  C637     1.0000 0.45174  0.94428  0.85388  Biso   1.000  C
  H632     1.0000 0.40594  0.96396  0.85315  Biso   1.000  H
  C638     1.0000 0.44335  0.99409  0.80777  Biso   1.000  C
  O238     1.0000 0.54248  0.92167  0.90667  Biso   1.000  O
  C639     1.0000 0.47733  0.92486  0.90756  Biso   1.000  C
  H633     1.0000 0.49083  0.95557  0.81007  Biso   1.000  H
  H634     1.0000 0.36095  0.90638  0.88047  Biso   1.000  H
  C640     1.0000 0.44636  0.93198  0.88996  Biso   1.000  C
  H635     1.0000 0.45802  0.98716  0.78886  Biso   1.000  H
  H636     1.0000 0.42263  0.00027  0.79636  Biso   1.000  H
  H637     1.0000 0.46423  0.01907  0.82137  Biso   1.000  H
  H638     1.0000 0.54855  0.90648  0.89365  Biso   1.000  H
  O239     1.0000 0.47304  0.91396  0.94376  Biso   1.000  O
  O240     1.0000 0.41205  0.92688  0.91125  Biso   1.000  O
  H639     1.0000 0.49364  0.91116  0.95037  Biso   1.000  H
  H640     1.0000 0.39034  0.91816  0.89818  Biso   1.000  H
  O241     1.0000 0.23203  0.54638  0.71116  Biso   1.000  O
  H641     1.0000 0.22135  0.52738  0.72707  Biso   1.000  H
  C641     1.0000 0.21224  0.57188  0.71247  Biso   1.000  C
  C642     1.0000 0.16684  0.55028  0.71616  Biso   1.000  C
  C643     1.0000 0.23733  0.61649  0.71017  Biso   1.000  C
  C644     1.0000 0.14005  0.50188  0.72066  Biso   1.000  C
  C645     1.0000 0.14934  0.57748  0.71677  Biso   1.000  C
  O242     1.0000 0.28134  0.63457  0.70636  Biso   1.000  O
  C646     1.0000 0.21744  0.64066  0.71128  Biso   1.000  C
  C647     1.0000 0.13125  0.48789  0.75997  Biso   1.000  C
  H642     1.0000 0.15743  0.48987  0.71055  Biso   1.000  H
  C648     1.0000 0.09783  0.48258  0.69687  Biso   1.000  C
  H643     1.0000 0.11933  0.56447  0.71927  Biso   1.000  H
  C649     1.0000 0.17284  0.62257  0.71397  Biso   1.000  C
  H644     1.0000 0.28674  0.62797  0.68596  Biso   1.000  H
  O243     1.0000 0.24504  0.68588  0.70806  Biso   1.000  O
  C650     1.0000 0.15872  0.47748  0.77987  Biso   1.000  C
  C651     1.0000 0.09464  0.48346  0.77818  Biso   1.000  C
  H645     1.0000 0.10524  0.49228  0.67166  Biso   1.000  H
  H646     1.0000 0.07893  0.49228  0.70656  Biso   1.000  H
  H647     1.0000 0.08333  0.45139  0.69767  Biso   1.000  H
  C652     1.0000 0.15064  0.64957  0.71447  Biso   1.000  C
  H648     1.0000 0.23584  0.69837  0.72116  Biso   1.000  H
  O244     1.0000 0.19693  0.48148  0.76477  Biso   1.000  O
  C653     1.0000 0.14912  0.46176  0.81487  Biso   1.000  C
  C654     1.0000 0.08483  0.46876  0.81437  Biso   1.000  C
  H649     1.0000 0.07625  0.49059  0.76557  Biso   1.000  H
  C655     1.0000 0.14305  0.65979  0.75355  Biso   1.000  C
  H650     1.0000 0.17032  0.67726  0.70237  Biso   1.000  H
  C656     1.0000 0.10773  0.62758  0.69157  Biso   1.000  C
  H651     1.0000 0.20674  0.50077  0.74906  Biso   1.000  H
  O245     1.0000 0.17512  0.45077  0.83528  Biso   1.000  O
  C657     1.0000 0.11184  0.45656  0.83306  Biso   1.000  C
  C658     1.0000 0.04443  0.46437  0.83397  Biso   1.000  C
  C659     1.0000 0.17442  0.69707  0.77187  Biso   1.000  C
  C660     1.0000 0.10485  0.63337  0.77376  Biso   1.000  C
  H652     1.0000 0.11363  0.62198  0.66686  Biso   1.000  H
  H653     1.0000 0.09573  0.64658  0.69068  Biso   1.000  H
  H654     1.0000 0.08723  0.60068  0.70317  Biso   1.000  H
  H655     1.0000 0.19784  0.45828  0.82398  Biso   1.000  H
  O246     1.0000 0.10224  0.44068  0.86848  Biso   1.000  O
  C661     1.0000 0.05573  0.50747  0.85388  Biso   1.000  C
  H656     1.0000 0.03603  0.44198  0.85315  Biso   1.000  H
  C662     1.0000 0.00592  0.44927  0.80777  Biso   1.000  C
  O247     1.0000 0.21243  0.72576  0.75255  Biso   1.000  O
  C663     1.0000 0.16883  0.70579  0.80707  Biso   1.000  C
  H657     1.0000 0.08273  0.60858  0.76235  Biso   1.000  H
  C664     1.0000 0.09862  0.64268  0.80988  Biso   1.000  C
  H658     1.0000 0.09363  0.45457  0.88047  Biso   1.000  H
  C665     1.0000 0.06803  0.51437  0.88996  Biso   1.000  C
  C666     1.0000 0.05213  0.53978  0.83497  Biso   1.000  C
  H659     1.0000 0.01284  0.47087  0.78886  Biso   1.000  H
  H660     1.0000 0.99974  0.42237  0.79636  Biso   1.000  H
  H661     1.0000 0.98094  0.44517  0.82137  Biso   1.000  H
  H662     1.0000 0.22034  0.71177  0.73998  Biso   1.000  H
  O248     1.0000 0.20203  0.74317  0.82417  Biso   1.000  O
  C667     1.0000 0.13174  0.67927  0.82706  Biso   1.000  C
  C668     1.0000 0.05532  0.61288  0.82956  Biso   1.000  C
  O249     1.0000 0.07313  0.48519  0.91125  Biso   1.000  O
  C669     1.0000 0.07513  0.55246  0.90756  Biso   1.000  C
  C670     1.0000 0.05943  0.57787  0.85115  Biso   1.000  C
  H663     1.0000 0.04445  0.53529  0.81007  Biso   1.000  H
  H664     1.0000 0.22233  0.75598  0.80957  Biso   1.000  H
  O250     1.0000 0.12914  0.69147  0.86218  Biso   1.000  O
  H665     1.0000 0.05114  0.63077  0.84788  Biso   1.000  H
  C671     1.0000 0.01664  0.59456  0.80416  Biso   1.000  C
  H666     1.0000 0.08184  0.47217  0.89818  Biso   1.000  H
  O251     1.0000 0.08604  0.55907  0.94376  Biso   1.000  O
  C672     1.0000 0.07022  0.58366  0.88827  Biso   1.000  C
  H667     1.0000 0.11384  0.66977  0.87478  Biso   1.000  H
  H668     1.0000 0.01972  0.57706  0.78537  Biso   1.000  H
  H669     1.0000 0.01483  0.61798  0.79267  Biso   1.000  H
  H670     1.0000 0.99063  0.57696  0.81826  Biso   1.000  H
  H671     1.0000 0.08883  0.58246  0.95037  Biso   1.000  H
  O252     1.0000 0.07834  0.62081  0.90667  Biso   1.000  O
  H672     1.0000 0.09353  0.64206  0.89365  Biso   1.000  H
  O253     1.0000 0.76798  0.45363  0.28884  Biso   1.000  O
  C673     1.0000 0.78776  0.42812  0.28753  Biso   1.000  C
  H673     1.0000 0.77866  0.47263  0.27293  Biso   1.000  H
  C674     1.0000 0.76267  0.38352  0.28983  Biso   1.000  C
  C675     1.0000 0.83316  0.44973  0.28384  Biso   1.000  C
  O254     1.0000 0.71867  0.36544  0.29364  Biso   1.000  O
  C676     1.0000 0.78259  0.35935  0.28872  Biso   1.000  C
  C677     1.0000 0.85067  0.42253  0.28323  Biso   1.000  C
  C678     1.0000 0.85996  0.49813  0.27934  Biso   1.000  C
  H674     1.0000 0.71326  0.37204  0.31404  Biso   1.000  H
  O255     1.0000 0.75497  0.31413  0.29194  Biso   1.000  O
  C679     1.0000 0.82717  0.37744  0.28603  Biso   1.000  C
  H675     1.0000 0.88067  0.43554  0.28073  Biso   1.000  H
  C680     1.0000 0.86876  0.51212  0.24003  Biso   1.000  C
  H676     1.0000 0.84258  0.51014  0.28945  Biso   1.000  H
  C681     1.0000 0.90217  0.51743  0.30313  Biso   1.000  C
  H677     1.0000 0.76416  0.30164  0.27884  Biso   1.000  H
  C682     1.0000 0.84936  0.35044  0.28553  Biso   1.000  C
  C683     1.0000 0.84128  0.52253  0.22013  Biso   1.000  C
  C684     1.0000 0.90537  0.51655  0.22182  Biso   1.000  C
  H678     1.0000 0.89476  0.50773  0.32834  Biso   1.000  H
  H679     1.0000 0.92108  0.50773  0.29344  Biso   1.000  H
  H680     1.0000 0.91667  0.54862  0.30233  Biso   1.000  H
  C685     1.0000 0.85696  0.34022  0.24645  Biso   1.000  C
  H681     1.0000 0.82967  0.32272  0.29763  Biso   1.000  H
  C686     1.0000 0.89228  0.37243  0.30843  Biso   1.000  C
  O256     1.0000 0.80308  0.51853  0.23523  Biso   1.000  O
  C687     1.0000 0.85088  0.53825  0.18513  Biso   1.000  C
  C688     1.0000 0.91517  0.53125  0.18563  Biso   1.000  C
  H682     1.0000 0.92375  0.50942  0.23443  Biso   1.000  H
  C689     1.0000 0.82558  0.30294  0.22813  Biso   1.000  C
  C690     1.0000 0.89519  0.36664  0.22624  Biso   1.000  C
  H683     1.0000 0.88637  0.37803  0.33314  Biso   1.000  H
  H684     1.0000 0.90427  0.35343  0.30932  Biso   1.000  H
  H685     1.0000 0.91277  0.39933  0.29683  Biso   1.000  H
  H686     1.0000 0.79326  0.49924  0.25094  Biso   1.000  H
  O257     1.0000 0.82488  0.54924  0.16472  Biso   1.000  O
  C691     1.0000 0.88817  0.54345  0.16694  Biso   1.000  C
  C692     1.0000 0.95557  0.53564  0.16603  Biso   1.000  C
  O258     1.0000 0.78757  0.27425  0.24745  Biso   1.000  O
  C693     1.0000 0.83117  0.29422  0.19293  Biso   1.000  C
  H687     1.0000 0.91727  0.39143  0.23765  Biso   1.000  H
  C694     1.0000 0.90138  0.35733  0.19012  Biso   1.000  C
  H688     1.0000 0.80216  0.54173  0.17602  Biso   1.000  H
  O259     1.0000 0.89777  0.55933  0.13152  Biso   1.000  O
  C695     1.0000 0.94427  0.49254  0.14612  Biso   1.000  C
  H689     1.0000 0.96397  0.55803  0.14685  Biso   1.000  H
  C696     1.0000 0.99408  0.55074  0.19223  Biso   1.000  C
  H690     1.0000 0.77966  0.28824  0.26002  Biso   1.000  H
  O260     1.0000 0.79797  0.25684  0.17583  Biso   1.000  O
  C697     1.0000 0.86826  0.32074  0.17294  Biso   1.000  C
  C698     1.0000 0.94468  0.38713  0.17044  Biso   1.000  C
  H691     1.0000 0.90637  0.54544  0.11953  Biso   1.000  H
  C699     1.0000 0.94787  0.46023  0.16503  Biso   1.000  C
  C700     1.0000 0.93198  0.48564  0.11004  Biso   1.000  C
  H692     1.0000 0.98717  0.52914  0.21114  Biso   1.000  H
  H693     1.0000 0.00027  0.57764  0.20364  Biso   1.000  H
  H694     1.0000 0.01907  0.55484  0.17863  Biso   1.000  H
  H695     1.0000 0.77767  0.24402  0.19043  Biso   1.000  H
  O261     1.0000 0.87087  0.30854  0.13782  Biso   1.000  O
  H696     1.0000 0.94889  0.36924  0.15212  Biso   1.000  H
  C701     1.0000 0.98339  0.40545  0.19584  Biso   1.000  C
  C702     1.0000 0.94057  0.42214  0.14885  Biso   1.000  C
  H697     1.0000 0.95555  0.46472  0.18993  Biso   1.000  H
  C703     1.0000 0.92488  0.44755  0.09244  Biso   1.000  C
  O262     1.0000 0.92688  0.51482  0.08875  Biso   1.000  O
  H698     1.0000 0.88617  0.33024  0.12522  Biso   1.000  H
  H699     1.0000 0.98028  0.42295  0.21463  Biso   1.000  H
  H700     1.0000 0.98518  0.38203  0.20733  Biso   1.000  H
  H701     1.0000 0.00938  0.42305  0.18174  Biso   1.000  H
  C704     1.0000 0.92979  0.41635  0.11173  Biso   1.000  C
  O263     1.0000 0.91397  0.44094  0.05624  Biso   1.000  O
  H702     1.0000 0.91817  0.52784  0.10182  Biso   1.000  H
  O264     1.0000 0.92167  0.37920  0.09333  Biso   1.000  O
  H703     1.0000 0.91118  0.41755  0.04963  Biso   1.000  H
  H704     1.0000 0.90648  0.35795  0.10635  Biso   1.000  H
  O265     1.0000 0.20914  0.25499  0.24001  Biso   1.000  O
  H705     1.0000 0.21521  0.23980  0.22699  Biso   1.000  H
  C705     1.0000 0.18009  0.26309  0.22160  Biso   1.000  C
  C706     1.0000 0.18509  0.27389  0.18449  Biso   1.000  C
  C707     1.0000 0.14401  0.25821  0.24089  Biso   1.000  C
  C708     1.0000 0.22419  0.27799  0.16289  Biso   1.000  C
  C709     1.0000 0.15430  0.28121  0.16830  Biso   1.000  C
  O266     1.0000 0.13971  0.24731  0.27709  Biso   1.000  O
  C710     1.0000 0.11301  0.26530  0.22330  Biso   1.000  C
  C711     1.0000 0.21068  0.23469  0.14321  Biso   1.000  C
  H706     1.0000 0.24631  0.28222  0.18121  Biso   1.000  H
  C712     1.0000 0.24459  0.31670  0.13749  Biso   1.000  C
  C713     1.0000 0.11840  0.27760  0.18721  Biso   1.000  C
  H707     1.0000 0.15749  0.28889  0.14340  Biso   1.000  H
  H708     1.0000 0.16032  0.24451  0.28370  Biso   1.000  H
  O267     1.0000 0.07871  0.26019  0.24459  Biso   1.000  O
  C714     1.0000 0.19520  0.22851  0.10710  Biso   1.000  C
  C715     1.0000 0.21420  0.20160  0.16039  Biso   1.000  C
  H709     1.0000 0.25300  0.34269  0.15159  Biso   1.000  H
  H710     1.0000 0.22400  0.31361  0.11870  Biso   1.000  H
  H711     1.0000 0.26980  0.31849  0.12600  Biso   1.000  H
  C716     1.0000 0.08660  0.28889  0.16731  Biso   1.000  C
  H712     1.0000 0.05701  0.25151  0.23151  Biso   1.000  H
  C717     1.0000 0.18340  0.19031  0.08689  Biso   1.000  C
  H713     1.0000 0.19249  0.25060  0.09569  Biso   1.000  H
  O268     1.0000 0.22900  0.20421  0.19551  Biso   1.000  O
  C718     1.0000 0.20360  0.16452  0.14041  Biso   1.000  C
  H714     1.0000 0.07262  0.29731  0.18649  Biso   1.000  H
  C719     1.0000 0.11000  0.32740  0.14110  Biso   1.000  C
  C720     1.0000 0.05061  0.24851  0.14771  Biso   1.000  C
  C721     1.0000 0.18929  0.15889  0.10521  Biso   1.000  C
  C722     1.0000 0.16559  0.18270  0.04780  Biso   1.000  C
  H715     1.0000 0.22261  0.21950  0.20811  Biso   1.000  H
  O269     1.0000 0.20782  0.13130  0.15751  Biso   1.000  O
  H716     1.0000 0.08930  0.33362  0.12969  Biso   1.000  H
  H717     1.0000 0.12470  0.32051  0.12220  Biso   1.000  H
  H718     1.0000 0.13089  0.35239  0.15470  Biso   1.000  H
  C723     1.0000 0.01142  0.22151  0.16639  Biso   1.000  C
  C724     1.0000 0.05550  0.23869  0.11151  Biso   1.000  C
  O270     1.0000 0.17999  0.12089  0.08589  Biso   1.000  O
  C725     1.0000 0.11640  0.16051  0.04730  Biso   1.000  C
  H719     1.0000 0.17359  0.16299  0.03570  Biso   1.000  H
  C726     1.0000 0.18651  0.22561  0.02490  Biso   1.000  C
  H720     1.0000 0.20031  0.11100  0.14290  Biso   1.000  H
  O271     1.0000 0.00511  0.23111  0.20181  Biso   1.000  O
  C727     1.0000 0.97929  0.18420  0.14821  Biso   1.000  C
  C728     1.0000 0.02329  0.20209  0.09330  Biso   1.000  C
  H721     1.0000 0.08099  0.25710  0.09891  Biso   1.000  H
  H722     1.0000 0.15810  0.11302  0.07331  Biso   1.000  H
  C729     1.0000 0.09479  0.18400  0.05011  Biso   1.000  C
  C730     1.0000 0.08991  0.11591  0.04461  Biso   1.000  C
  H723     1.0000 0.17498  0.21969  0.00019  Biso   1.000  H
  H724     1.0000 0.21750  0.23762  0.02401  Biso   1.000  H
  H725     1.0000 0.18011  0.24611  0.03650  Biso   1.000  H
  H726     1.0000 0.02761  0.23970  0.21380  Biso   1.000  H
  O272     1.0000 0.94229  0.15820  0.16861  Biso   1.000  O
  C731     1.0000 0.98540  0.17460  0.11320  Biso   1.000  C
  C732     1.0000 0.02850  0.19331  0.05399  Biso   1.000  C
  C733     1.0000 0.05009  0.16650  0.04949  Biso   1.000  C
  H727     1.0000 0.11179  0.21400  0.05260  Biso   1.000  H
  O273     1.0000 0.10751  0.08829  0.04139  Biso   1.000  O
  C734     1.0000 0.04580  0.09600  0.04350  Biso   1.000  C
  H728     1.0000 0.92710  0.13550  0.15731  Biso   1.000  H
  O274     1.0000 0.95120  0.13641  0.09810  Biso   1.000  O
  C735     1.0000 0.05140  0.23550  0.03020  Biso   1.000  C
  H729     1.0000 0.99909  0.17590  0.04389  Biso   1.000  H
  C736     1.0000 0.02628  0.12109  0.04580  Biso   1.000  C
  H730     1.0000 0.12921  0.09750  0.05449  Biso   1.000  H
  O275     1.0000 0.01988  0.05199  0.03970  Biso   1.000  O
  H731     1.0000 0.96070  0.12662  0.08239  Biso   1.000  H
  H732     1.0000 0.05371  0.22812  0.00500  Biso   1.000  H
  H733     1.0000 0.08001  0.25440  0.03989  Biso   1.000  H
  H734     1.0000 0.03471  0.25001  0.03101  Biso   1.000  H
  O276     1.0000 0.98101  0.10131  0.04450  Biso   1.000  O
  H735     1.0000 0.00788  0.04659  0.01929  Biso   1.000  H
  H736     1.0000 0.97269  0.11201  0.06040  Biso   1.000  H
  O277     1.0000 0.79086  0.74502  0.75999  Biso   1.000  O
  H737     1.0000 0.78482  0.76021  0.77301  Biso   1.000  H
  C737     1.0000 0.81992  0.73692  0.77840  Biso   1.000  C
  C738     1.0000 0.81491  0.72612  0.81551  Biso   1.000  C
  C739     1.0000 0.85600  0.74180  0.75911  Biso   1.000  C
  C740     1.0000 0.77581  0.72202  0.83711  Biso   1.000  C
  C741     1.0000 0.84571  0.71880  0.83170  Biso   1.000  C
  O278     1.0000 0.86029  0.75270  0.72291  Biso   1.000  O
  C742     1.0000 0.88702  0.73471  0.77670  Biso   1.000  C
  C743     1.0000 0.78932  0.76532  0.85679  Biso   1.000  C
  H738     1.0000 0.75370  0.71779  0.81879  Biso   1.000  H
  C744     1.0000 0.75541  0.68331  0.86251  Biso   1.000  C
  C745     1.0000 0.88160  0.72241  0.81279  Biso   1.000  C
  H739     1.0000 0.84250  0.71109  0.85660  Biso   1.000  H
  H740     1.0000 0.83971  0.75550  0.71630  Biso   1.000  H
  O279     1.0000 0.92133  0.73982  0.75541  Biso   1.000  O
  C746     1.0000 0.80481  0.77150  0.89290  Biso   1.000  C
  C747     1.0000 0.78580  0.79841  0.83961  Biso   1.000  C
  H741     1.0000 0.74701  0.65731  0.84841  Biso   1.000  H
  H742     1.0000 0.77600  0.68640  0.88130  Biso   1.000  H
  H743     1.0000 0.73021  0.68152  0.87400  Biso   1.000  H
  C748     1.0000 0.91339  0.71109  0.83269  Biso   1.000  C
  H744     1.0000 0.94300  0.74850  0.76849  Biso   1.000  H
  C749     1.0000 0.81661  0.80970  0.91311  Biso   1.000  C
  H745     1.0000 0.80751  0.74941  0.90431  Biso   1.000  H
  O280     1.0000 0.77101  0.79580  0.80449  Biso   1.000  O
  C750     1.0000 0.79640  0.83549  0.85959  Biso   1.000  C
  H746     1.0000 0.92739  0.70270  0.81351  Biso   1.000  H
  C751     1.0000 0.89000  0.67260  0.85890  Biso   1.000  C
  C752     1.0000 0.94939  0.75150  0.85229  Biso   1.000  C
  C753     1.0000 0.81071  0.84112  0.89479  Biso   1.000  C
  C754     1.0000 0.83442  0.81731  0.95220  Biso   1.000  C
  H747     1.0000 0.77742  0.78051  0.79189  Biso   1.000  H
  O281     1.0000 0.79222  0.86871  0.84249  Biso   1.000  O
  H748     1.0000 0.91070  0.66639  0.87031  Biso   1.000  H
  H749     1.0000 0.87531  0.67950  0.87780  Biso   1.000  H
  H750     1.0000 0.86911  0.64762  0.84530  Biso   1.000  H
  C755     1.0000 0.98862  0.77850  0.83361  Biso   1.000  C
  C756     1.0000 0.94450  0.76132  0.88849  Biso   1.000  C
  O282     1.0000 0.82002  0.87912  0.91411  Biso   1.000  O
  C757     1.0000 0.88360  0.83950  0.95270  Biso   1.000  C
  H751     1.0000 0.82641  0.83702  0.96430  Biso   1.000  H
  C758     1.0000 0.81350  0.77440  0.97510  Biso   1.000  C
  H752     1.0000 0.79972  0.88901  0.85710  Biso   1.000  H
  O283     1.0000 0.99489  0.76890  0.79819  Biso   1.000  O
  C759     1.0000 0.02071  0.81581  0.85179  Biso   1.000  C
  C760     1.0000 0.97672  0.79792  0.90670  Biso   1.000  C
  H753     1.0000 0.91901  0.74291  0.90109  Biso   1.000  H
  H754     1.0000 0.84190  0.88699  0.92669  Biso   1.000  H
  C761     1.0000 0.90521  0.81601  0.94989  Biso   1.000  C
  C762     1.0000 0.91010  0.88410  0.95539  Biso   1.000  C
  H755     1.0000 0.82502  0.78032  0.99981  Biso   1.000  H
  H756     1.0000 0.78250  0.76239  0.97599  Biso   1.000  H
  H757     1.0000 0.81990  0.75390  0.96350  Biso   1.000  H
  H758     1.0000 0.97240  0.76031  0.78620  Biso   1.000  H
  O284     1.0000 0.05771  0.84181  0.83139  Biso   1.000  O
  C763     1.0000 0.01461  0.82541  0.88680  Biso   1.000  C
  C764     1.0000 0.97150  0.80670  0.94601  Biso   1.000  C
  C765     1.0000 0.94992  0.83351  0.95051  Biso   1.000  C
  H759     1.0000 0.88822  0.78601  0.94740  Biso   1.000  H
  O285     1.0000 0.89252  0.91172  0.95861  Biso   1.000  O
  C766     1.0000 0.95420  0.90401  0.95650  Biso   1.000  C
  H760     1.0000 0.07290  0.86451  0.84269  Biso   1.000  H
  O286     1.0000 0.04881  0.86360  0.90190  Biso   1.000  O
  C767     1.0000 0.94860  0.76451  0.96980  Biso   1.000  C
  H761     1.0000 0.00091  0.82411  0.95611  Biso   1.000  H
  C768     1.0000 0.97371  0.87889  0.95420  Biso   1.000  C
  H762     1.0000 0.87082  0.90251  0.94551  Biso   1.000  H
  O287     1.0000 0.98013  0.94802  0.96030  Biso   1.000  O
  H763     1.0000 0.03931  0.87339  0.91761  Biso   1.000  H
  H764     1.0000 0.94629  0.77189  0.99500  Biso   1.000  H
  H765     1.0000 0.91999  0.74561  0.96011  Biso   1.000  H
  H766     1.0000 0.96530  0.75000  0.96899  Biso   1.000  H
  O288     1.0000 0.01900  0.89870  0.95550  Biso   1.000  O
  H767     1.0000 0.99212  0.95342  0.98071  Biso   1.000  H
  H768     1.0000 0.02731  0.88800  0.93960  Biso   1.000  H
  O289     1.0000 0.26021  0.18150  0.75541  Biso   1.000  O
  C769     1.0000 0.26532  0.15232  0.77670  Biso   1.000  C
  H769     1.0000 0.25151  0.19451  0.76849  Biso   1.000  H
  C770     1.0000 0.25820  0.11419  0.75911  Biso   1.000  C
  C771     1.0000 0.27761  0.15921  0.81279  Biso   1.000  C
  O290     1.0000 0.24731  0.10762  0.72291  Biso   1.000  O
  C772     1.0000 0.26311  0.08299  0.77840  Biso   1.000  C
  C773     1.0000 0.28121  0.12691  0.83170  Biso   1.000  C
  C774     1.0000 0.28889  0.20229  0.83269  Biso   1.000  C
  H770     1.0000 0.24450  0.08419  0.71630  Biso   1.000  H
  O291     1.0000 0.25499  0.04584  0.75999  Biso   1.000  O
  C775     1.0000 0.27391  0.08881  0.81551  Biso   1.000  C
  H771     1.0000 0.28889  0.13140  0.85660  Biso   1.000  H
  H772     1.0000 0.29731  0.22470  0.81351  Biso   1.000  H
  C776     1.0000 0.32742  0.21741  0.85890  Biso   1.000  C
  C777     1.0000 0.24849  0.19789  0.85229  Biso   1.000  C
  H773     1.0000 0.23980  0.02459  0.77301  Biso   1.000  H
  C778     1.0000 0.27802  0.05381  0.83711  Biso   1.000  C
  H774     1.0000 0.33360  0.24432  0.87031  Biso   1.000  H
  H775     1.0000 0.32051  0.19581  0.87780  Biso   1.000  H
  H776     1.0000 0.35240  0.22151  0.84530  Biso   1.000  H
  C779     1.0000 0.22149  0.21009  0.83361  Biso   1.000  C
  C780     1.0000 0.23869  0.18319  0.88849  Biso   1.000  C
  C781     1.0000 0.23472  0.02401  0.85679  Biso   1.000  C
  H777     1.0000 0.28220  0.03592  0.81879  Biso   1.000  H
  C782     1.0000 0.31668  0.07209  0.86251  Biso   1.000  C
  O292     1.0000 0.23111  0.22600  0.79819  Biso   1.000  O
  C783     1.0000 0.18420  0.20489  0.85179  Biso   1.000  C
  C784     1.0000 0.20209  0.17880  0.90670  Biso   1.000  C
  H778     1.0000 0.25709  0.17610  0.90109  Biso   1.000  H
  C785     1.0000 0.22850  0.03331  0.89290  Biso   1.000  C
  C786     1.0000 0.20160  0.98741  0.83961  Biso   1.000  C
  H779     1.0000 0.34270  0.08969  0.84841  Biso   1.000  H
  H780     1.0000 0.31360  0.08959  0.88130  Biso   1.000  H
  H781     1.0000 0.31851  0.04870  0.87400  Biso   1.000  H
  H782     1.0000 0.23971  0.21211  0.78620  Biso   1.000  H
  O293     1.0000 0.15822  0.21592  0.83139  Biso   1.000  O
  C787     1.0000 0.17462  0.18921  0.88680  Biso   1.000  C
  C788     1.0000 0.19330  0.16481  0.94601  Biso   1.000  C
  C789     1.0000 0.19030  0.00690  0.91311  Biso   1.000  C
  H783     1.0000 0.25061  0.05810  0.90431  Biso   1.000  H
  O294     1.0000 0.20421  0.97521  0.80449  Biso   1.000  O
  C790     1.0000 0.16451  0.96090  0.85959  Biso   1.000  C
  H784     1.0000 0.13550  0.20840  0.84269  Biso   1.000  H
  O295     1.0000 0.13641  0.18521  0.90190  Biso   1.000  O
  H785     1.0000 0.17591  0.17681  0.95611  Biso   1.000  H
  C791     1.0000 0.23551  0.18410  0.96980  Biso   1.000  C
  C792     1.0000 0.16650  0.11640  0.95051  Biso   1.000  C
  C793     1.0000 0.18270  0.01711  0.95220  Biso   1.000  C
  C794     1.0000 0.15892  0.96961  0.89479  Biso   1.000  C
  H786     1.0000 0.21951  0.99691  0.79189  Biso   1.000  H
  O296     1.0000 0.13129  0.92348  0.84249  Biso   1.000  O
  H787     1.0000 0.12660  0.16591  0.91761  Biso   1.000  H
  H788     1.0000 0.22810  0.17441  0.99500  Biso   1.000  H
  H789     1.0000 0.25441  0.17441  0.96011  Biso   1.000  H
  H790     1.0000 0.25001  0.21530  0.96899  Biso   1.000  H
  C795     1.0000 0.18401  0.08920  0.94989  Biso   1.000  C
  C796     1.0000 0.12110  0.09480  0.95420  Biso   1.000  C
  C797     1.0000 0.16050  0.04411  0.95270  Biso   1.000  C
  C798     1.0000 0.22561  0.03910  0.97510  Biso   1.000  C
  H791     1.0000 0.16301  0.98939  0.96430  Biso   1.000  H
  O297     1.0000 0.12089  0.94089  0.91411  Biso   1.000  O
  H792     1.0000 0.11101  0.91070  0.85710  Biso   1.000  H
  H793     1.0000 0.21401  0.10222  0.94740  Biso   1.000  H
  C799     1.0000 0.09601  0.05020  0.95650  Biso   1.000  C
  O298     1.0000 0.10131  0.12030  0.95550  Biso   1.000  O
  C800     1.0000 0.11589  0.02599  0.95539  Biso   1.000  C
  H794     1.0000 0.21971  0.04470  0.99981  Biso   1.000  H
  H795     1.0000 0.23761  0.02010  0.97599  Biso   1.000  H
  H796     1.0000 0.24611  0.06601  0.96350  Biso   1.000  H
  H797     1.0000 0.11300  0.95491  0.92669  Biso   1.000  H
  O299     1.0000 0.05200  0.03211  0.96030  Biso   1.000  O
  H798     1.0000 0.11200  0.13930  0.93960  Biso   1.000  H
  O300     1.0000 0.08831  0.98081  0.95861  Biso   1.000  O
  H799     1.0000 0.04660  0.03871  0.98071  Biso   1.000  H
  H800     1.0000 0.09750  0.96831  0.94551  Biso   1.000  H
  O301     1.0000 0.73982  0.81851  0.24459  Biso   1.000  O
  C801     1.0000 0.73469  0.84769  0.22330  Biso   1.000  C
  H801     1.0000 0.74850  0.80550  0.23151  Biso   1.000  H
  C802     1.0000 0.72239  0.84080  0.18721  Biso   1.000  C
  C803     1.0000 0.74181  0.88582  0.24089  Biso   1.000  C
  C804     1.0000 0.71110  0.79769  0.16731  Biso   1.000  C
  C805     1.0000 0.71880  0.87310  0.16830  Biso   1.000  C
  O302     1.0000 0.75270  0.89239  0.27709  Biso   1.000  O
  C806     1.0000 0.73692  0.91702  0.22160  Biso   1.000  C
  C807     1.0000 0.67261  0.78260  0.14110  Biso   1.000  C
  H802     1.0000 0.70269  0.77531  0.18649  Biso   1.000  H
  C808     1.0000 0.75151  0.80212  0.14771  Biso   1.000  C
  C809     1.0000 0.72609  0.91120  0.18449  Biso   1.000  C
  H803     1.0000 0.71111  0.86861  0.14340  Biso   1.000  H
  H804     1.0000 0.75551  0.91582  0.28370  Biso   1.000  H
  O303     1.0000 0.74502  0.95417  0.24001  Biso   1.000  O
  H805     1.0000 0.66640  0.75569  0.12969  Biso   1.000  H
  H806     1.0000 0.67950  0.80420  0.12220  Biso   1.000  H
  H807     1.0000 0.64760  0.77850  0.15470  Biso   1.000  H
  C810     1.0000 0.77852  0.78992  0.16639  Biso   1.000  C
  C811     1.0000 0.76131  0.81682  0.11151  Biso   1.000  C
  C812     1.0000 0.72202  0.94620  0.16289  Biso   1.000  C
  H808     1.0000 0.76020  0.97542  0.22699  Biso   1.000  H
  O304     1.0000 0.76890  0.77401  0.20181  Biso   1.000  O
  C813     1.0000 0.81580  0.79512  0.14821  Biso   1.000  C
  C814     1.0000 0.79791  0.82121  0.09330  Biso   1.000  C
  H809     1.0000 0.74291  0.82391  0.09891  Biso   1.000  H
  C815     1.0000 0.76531  0.97600  0.14321  Biso   1.000  C
  H810     1.0000 0.71781  0.96409  0.18121  Biso   1.000  H
  C816     1.0000 0.68332  0.92792  0.13749  Biso   1.000  C
  H811     1.0000 0.76029  0.78790  0.21380  Biso   1.000  H
  O305     1.0000 0.84181  0.78409  0.16861  Biso   1.000  O
  C817     1.0000 0.82542  0.81080  0.11320  Biso   1.000  C
  C818     1.0000 0.80671  0.83520  0.05399  Biso   1.000  C
  C819     1.0000 0.77151  0.96670  0.10710  Biso   1.000  C
  C820     1.0000 0.79841  0.01260  0.16039  Biso   1.000  C
  H812     1.0000 0.65731  0.91032  0.15159  Biso   1.000  H
  H813     1.0000 0.68640  0.91042  0.11870  Biso   1.000  H
  H814     1.0000 0.68152  0.95131  0.12600  Biso   1.000  H
  H815     1.0000 0.86450  0.79161  0.15731  Biso   1.000  H
  O306     1.0000 0.86359  0.81480  0.09810  Biso   1.000  O
  H816     1.0000 0.82409  0.82320  0.04389  Biso   1.000  H
  C821     1.0000 0.76449  0.81591  0.03020  Biso   1.000  C
  C822     1.0000 0.83350  0.88361  0.04949  Biso   1.000  C
  C823     1.0000 0.80971  0.99311  0.08689  Biso   1.000  C
  H817     1.0000 0.74939  0.94191  0.09569  Biso   1.000  H
  O307     1.0000 0.79580  0.02480  0.19551  Biso   1.000  O
  C824     1.0000 0.83550  0.03911  0.14041  Biso   1.000  C
  H818     1.0000 0.87341  0.83409  0.08239  Biso   1.000  H
  H819     1.0000 0.77190  0.82560  0.00500  Biso   1.000  H
  H820     1.0000 0.74562  0.82560  0.03989  Biso   1.000  H
  H821     1.0000 0.75002  0.78471  0.03101  Biso   1.000  H
  C825     1.0000 0.81600  0.91081  0.05011  Biso   1.000  C
  C826     1.0000 0.87890  0.90521  0.04580  Biso   1.000  C
  C827     1.0000 0.81731  0.98290  0.04780  Biso   1.000  C
  C828     1.0000 0.84111  0.03039  0.10521  Biso   1.000  C
  H822     1.0000 0.78050  0.00310  0.20811  Biso   1.000  H
  O308     1.0000 0.86870  0.07649  0.15751  Biso   1.000  O
  H823     1.0000 0.78600  0.89779  0.05260  Biso   1.000  H
  C829     1.0000 0.83950  0.95590  0.04730  Biso   1.000  C
  O309     1.0000 0.89872  0.87971  0.04450  Biso   1.000  O
  C830     1.0000 0.90402  0.94981  0.04350  Biso   1.000  C
  C831     1.0000 0.77442  0.96091  0.02490  Biso   1.000  C
  H824     1.0000 0.83700  0.01062  0.03570  Biso   1.000  H
  O310     1.0000 0.87911  0.05912  0.08589  Biso   1.000  O
  H825     1.0000 0.88900  0.08931  0.14290  Biso   1.000  H
  C832     1.0000 0.88412  0.97402  0.04461  Biso   1.000  C
  H826     1.0000 0.88801  0.86071  0.06040  Biso   1.000  H
  O311     1.0000 0.94800  0.96790  0.03970  Biso   1.000  O
  H827     1.0000 0.78030  0.95531  0.00019  Biso   1.000  H
  H828     1.0000 0.76239  0.97990  0.02401  Biso   1.000  H
  H829     1.0000 0.75389  0.93400  0.03650  Biso   1.000  H
  H830     1.0000 0.88701  0.04510  0.07331  Biso   1.000  H
  O312     1.0000 0.91170  0.01920  0.04139  Biso   1.000  O
  H831     1.0000 0.95340  0.96130  0.01929  Biso   1.000  H
  H832     1.0000 0.90250  0.03170  0.05449  Biso   1.000  H
  C833     1.0000 0.43810  0.30089  0.86251  Biso   1.000  C
  C834     1.0000 0.47961  0.32210  0.88569  Biso   1.000  C
  H833     1.0000 0.42379  0.31781  0.86440  Biso   1.000  H
  H834     1.0000 0.44520  0.29959  0.83700  Biso   1.000  H
  H835     1.0000 0.41901  0.27200  0.87150  Biso   1.000  H
  C835     1.0000 0.50369  0.29650  0.88299  Biso   1.000  C
  H836     1.0000 0.49871  0.35089  0.87489  Biso   1.000  H
  C836     1.0000 0.47230  0.32929  0.92519  Biso   1.000  C
  C837     1.0000 0.54850  0.31771  0.87991  Biso   1.000  C
  C838     1.0000 0.48189  0.25099  0.88380  Biso   1.000  C
  C839     1.0000 0.50130  0.36700  0.94559  Biso   1.000  C
  C840     1.0000 0.43460  0.29959  0.94479  Biso   1.000  C
  O313     1.0000 0.57164  0.36286  0.87819  Biso   1.000  O
  C841     1.0000 0.57011  0.29399  0.87711  Biso   1.000  C
  C842     1.0000 0.50221  0.22672  0.88130  Biso   1.000  C
  H837     1.0000 0.45171  0.23622  0.88599  Biso   1.000  H
  O314     1.0000 0.54029  0.39849  0.92971  Biso   1.000  O
  C843     1.0000 0.49330  0.37422  0.98040  Biso   1.000  C
  C844     1.0000 0.42601  0.30561  0.98090  Biso   1.000  C
  H838     1.0000 0.41441  0.27441  0.93260  Biso   1.000  H
  H839     1.0000 0.56189  0.37279  0.89360  Biso   1.000  H
  O315     1.0000 0.61514  0.31807  0.87431  Biso   1.000  O
  C845     1.0000 0.54689  0.24959  0.87861  Biso   1.000  C
  C846     1.0000 0.47629  0.17769  0.88169  Biso   1.000  C
  H840     1.0000 0.54870  0.38691  0.91470  Biso   1.000  H
  C847     1.0000 0.45519  0.34419  0.99919  Biso   1.000  C
  O316     1.0000 0.52111  0.41140  0.00061  Biso   1.000  O
  C848     1.0000 0.38470  0.27190  0.00211  Biso   1.000  C
  H841     1.0000 0.62521  0.30170  0.87561  Biso   1.000  H
  O317     1.0000 0.57232  0.22955  0.87639  Biso   1.000  O
  C849     1.0000 0.46771  0.15941  0.92030  Biso   1.000  C
  H842     1.0000 0.49411  0.16741  0.86931  Biso   1.000  H
  C850     1.0000 0.43370  0.15990  0.85920  Biso   1.000  C
  O318     1.0000 0.44781  0.35210  0.03489  Biso   1.000  O
  H843     1.0000 0.54482  0.42451  0.99009  Biso   1.000  H
  C851     1.0000 0.34480  0.25121  0.97671  Biso   1.000  C
  H844     1.0000 0.37900  0.28739  0.02190  Biso   1.000  H
  C852     1.0000 0.39310  0.23810  0.02040  Biso   1.000  C
  H845     1.0000 0.56140  0.20749  0.88921  Biso   1.000  H
  C853     1.0000 0.49700  0.15030  0.93740  Biso   1.000  C
  C854     1.0000 0.43031  0.14991  0.94029  Biso   1.000  C
  H846     1.0000 0.44029  0.17190  0.83461  Biso   1.000  H
  H847     1.0000 0.41970  0.12880  0.85790  Biso   1.000  H
  H848     1.0000 0.41469  0.16809  0.87111  Biso   1.000  H
  H849     1.0000 0.43911  0.33001  0.04730  Biso   1.000  H
  H850     1.0000 0.31979  0.23101  0.99070  Biso   1.000  H
  H851     1.0000 0.34000  0.27350  0.96669  Biso   1.000  H
  H852     1.0000 0.34970  0.23622  0.95681  Biso   1.000  H
  C855     1.0000 0.38410  0.19949  0.00130  Biso   1.000  C
  C856     1.0000 0.40792  0.24302  0.05641  Biso   1.000  C
  O319     1.0000 0.53449  0.15739  0.91889  Biso   1.000  O
  C857     1.0000 0.49130  0.13660  0.97349  Biso   1.000  C
  H853     1.0000 0.40920  0.15401  0.92869  Biso   1.000  H
  C858     1.0000 0.42302  0.13481  0.97671  Biso   1.000  C
  H854     1.0000 0.37431  0.19562  0.97690  Biso   1.000  H
  C859     1.0000 0.38979  0.16679  0.01840  Biso   1.000  C
  O320     1.0000 0.41820  0.27890  0.07770  Biso   1.000  O
  C860     1.0000 0.41210  0.21091  0.07381  Biso   1.000  C
  H855     1.0000 0.54412  0.17981  0.90651  Biso   1.000  H
  O321     1.0000 0.52219  0.12919  0.99131  Biso   1.000  O
  C861     1.0000 0.45351  0.12701  0.99320  Biso   1.000  C
  C862     1.0000 0.38141  0.12570  0.99739  Biso   1.000  C
  C863     1.0000 0.40289  0.17249  0.05471  Biso   1.000  C
  H856     1.0000 0.42679  0.30031  0.06429  Biso   1.000  H
  O322     1.0000 0.42530  0.21471  0.10990  Biso   1.000  O
  H857     1.0000 0.54278  0.13589  0.97740  Biso   1.000  H
  O323     1.0000 0.45020  0.11181  0.02870  Biso   1.000  O
  C864     1.0000 0.34082  0.10700  0.97260  Biso   1.000  C
  H858     1.0000 0.37580  0.10349  0.01621  Biso   1.000  H
  O324     1.0000 0.40839  0.14129  0.07359  Biso   1.000  O
  H859     1.0000 0.42601  0.19292  0.11609  Biso   1.000  H
  H860     1.0000 0.43770  0.12109  0.04169  Biso   1.000  H
  H861     1.0000 0.31600  0.10160  0.98720  Biso   1.000  H
  H862     1.0000 0.34520  0.12749  0.95331  Biso   1.000  H
  H863     1.0000 0.33589  0.08019  0.96161  Biso   1.000  H
  H864     1.0000 0.42091  0.13241  0.06010  Biso   1.000  H
  C865     1.0000 0.56191  0.69912  0.13749  Biso   1.000  C
  C866     1.0000 0.52039  0.67791  0.11431  Biso   1.000  C
  H865     1.0000 0.57621  0.68220  0.13560  Biso   1.000  H
  H866     1.0000 0.55481  0.70042  0.16300  Biso   1.000  H
  H867     1.0000 0.58100  0.72801  0.12850  Biso   1.000  H
  C867     1.0000 0.52770  0.67072  0.07481  Biso   1.000  C
  C868     1.0000 0.49631  0.70351  0.11701  Biso   1.000  C
  H868     1.0000 0.50132  0.64912  0.12511  Biso   1.000  H
  C869     1.0000 0.49871  0.63301  0.05441  Biso   1.000  C
  C870     1.0000 0.56540  0.70042  0.05521  Biso   1.000  C
  C871     1.0000 0.45151  0.68230  0.12009  Biso   1.000  C
  C872     1.0000 0.51810  0.74899  0.11620  Biso   1.000  C
  O325     1.0000 0.45970  0.60149  0.07029  Biso   1.000  O
  C873     1.0000 0.50670  0.62579  0.01960  Biso   1.000  C
  C874     1.0000 0.57400  0.69440  0.01910  Biso   1.000  C
  H869     1.0000 0.58560  0.72560  0.06740  Biso   1.000  H
  O326     1.0000 0.42837  0.63714  0.12181  Biso   1.000  O
  C875     1.0000 0.42992  0.70602  0.12289  Biso   1.000  C
  C876     1.0000 0.49779  0.77329  0.11870  Biso   1.000  C
  H870     1.0000 0.54829  0.76379  0.11401  Biso   1.000  H
  H871     1.0000 0.45131  0.61310  0.08530  Biso   1.000  H
  C877     1.0000 0.54482  0.65582  0.00081  Biso   1.000  C
  O327     1.0000 0.47890  0.58861  0.99939  Biso   1.000  O
  C878     1.0000 0.61531  0.72810  0.99789  Biso   1.000  C
  H872     1.0000 0.43809  0.62719  0.10640  Biso   1.000  H
  O328     1.0000 0.38487  0.68194  0.12569  Biso   1.000  O
  C879     1.0000 0.45311  0.75042  0.12139  Biso   1.000  C
  C880     1.0000 0.52371  0.82232  0.11831  Biso   1.000  C
  O329     1.0000 0.55222  0.64791  0.96511  Biso   1.000  O
  H873     1.0000 0.45521  0.57550  0.00991  Biso   1.000  H
  C881     1.0000 0.65521  0.74880  0.02329  Biso   1.000  C
  H874     1.0000 0.62100  0.71262  0.97810  Biso   1.000  H
  C882     1.0000 0.60691  0.76191  0.97960  Biso   1.000  C
  H875     1.0000 0.37479  0.69831  0.12439  Biso   1.000  H
  O330     1.0000 0.42769  0.77046  0.12361  Biso   1.000  O
  C883     1.0000 0.53229  0.84060  0.07970  Biso   1.000  C
  H876     1.0000 0.50589  0.83260  0.13069  Biso   1.000  H
  C884     1.0000 0.56631  0.84011  0.14080  Biso   1.000  C
  H877     1.0000 0.56090  0.67000  0.95270  Biso   1.000  H
  H878     1.0000 0.68021  0.76900  0.00930  Biso   1.000  H
  H879     1.0000 0.66001  0.72651  0.03331  Biso   1.000  H
  H880     1.0000 0.65031  0.76379  0.04319  Biso   1.000  H
  C885     1.0000 0.61590  0.80052  0.99870  Biso   1.000  C
  C886     1.0000 0.59211  0.75699  0.94359  Biso   1.000  C
  H881     1.0000 0.43860  0.79252  0.11079  Biso   1.000  H
  C887     1.0000 0.50301  0.84971  0.06260  Biso   1.000  C
  C888     1.0000 0.56969  0.85010  0.05971  Biso   1.000  C
  H882     1.0000 0.55971  0.82811  0.16539  Biso   1.000  H
  H883     1.0000 0.58031  0.87121  0.14210  Biso   1.000  H
  H884     1.0000 0.58531  0.83192  0.12889  Biso   1.000  H
  H885     1.0000 0.62570  0.80439  0.02310  Biso   1.000  H
  C889     1.0000 0.61022  0.83322  0.98160  Biso   1.000  C
  O331     1.0000 0.58180  0.72111  0.92230  Biso   1.000  O
  C890     1.0000 0.58791  0.78910  0.92619  Biso   1.000  C
  O332     1.0000 0.46551  0.84262  0.08111  Biso   1.000  O
  C891     1.0000 0.50870  0.86341  0.02651  Biso   1.000  C
  H886     1.0000 0.59080  0.84600  0.07131  Biso   1.000  H
  C892     1.0000 0.57699  0.86520  0.02329  Biso   1.000  C
  C893     1.0000 0.61859  0.87430  0.00261  Biso   1.000  C
  C894     1.0000 0.59710  0.82749  0.94529  Biso   1.000  C
  H887     1.0000 0.57321  0.69970  0.93571  Biso   1.000  H
  O333     1.0000 0.57471  0.78530  0.89010  Biso   1.000  O
  H888     1.0000 0.45591  0.82020  0.09349  Biso   1.000  H
  O334     1.0000 0.47780  0.87079  0.00869  Biso   1.000  O
  C895     1.0000 0.54649  0.87300  0.00680  Biso   1.000  C
  C896     1.0000 0.65922  0.89301  0.02740  Biso   1.000  C
  H889     1.0000 0.62419  0.89649  0.98379  Biso   1.000  H
  O335     1.0000 0.59161  0.85872  0.92641  Biso   1.000  O
  H890     1.0000 0.57400  0.80709  0.88391  Biso   1.000  H
  H891     1.0000 0.45722  0.86412  0.02260  Biso   1.000  H
  O336     1.0000 0.54981  0.88820  0.97130  Biso   1.000  O
  H892     1.0000 0.68401  0.89841  0.01280  Biso   1.000  H
  H893     1.0000 0.65480  0.87252  0.04669  Biso   1.000  H
  H894     1.0000 0.66411  0.91982  0.03839  Biso   1.000  H
  H895     1.0000 0.57909  0.86760  0.93990  Biso   1.000  H
  H896     1.0000 0.56228  0.87889  0.95831  Biso   1.000  H
  C897     1.0000 0.27378  0.43369  0.14080  Biso   1.000  C
  C898     1.0000 0.29861  0.47631  0.11831  Biso   1.000  C
  H897     1.0000 0.26841  0.44029  0.16539  Biso   1.000  H
  H898     1.0000 0.29091  0.41970  0.14210  Biso   1.000  H
  H899     1.0000 0.24659  0.41469  0.12889  Biso   1.000  H
  C899     1.0000 0.30832  0.46772  0.07970  Biso   1.000  C
  H900     1.0000 0.32670  0.49410  0.13069  Biso   1.000  H
  C900     1.0000 0.27550  0.50220  0.11870  Biso   1.000  C
  C901     1.0000 0.34671  0.49700  0.06260  Biso   1.000  C
  C902     1.0000 0.28040  0.43030  0.05971  Biso   1.000  C
  C903     1.0000 0.29731  0.54690  0.12139  Biso   1.000  C
  C904     1.0000 0.23089  0.48190  0.11620  Biso   1.000  C
  O337     1.0000 0.37710  0.53451  0.08111  Biso   1.000  O
  C905     1.0000 0.35471  0.49130  0.02651  Biso   1.000  C
  H901     1.0000 0.25520  0.40919  0.07131  Biso   1.000  H
  C906     1.0000 0.28820  0.42302  0.02329  Biso   1.000  C
  O338     1.0000 0.34277  0.57234  0.12361  Biso   1.000  O
  C907     1.0000 0.27609  0.57010  0.12289  Biso   1.000  C
  C908     1.0000 0.20719  0.50370  0.11701  Biso   1.000  C
  H902     1.0000 0.21552  0.45171  0.11401  Biso   1.000  H
  H903     1.0000 0.36429  0.54410  0.09349  Biso   1.000  H
  O339     1.0000 0.39301  0.52221  0.00869  Biso   1.000  O
  C909     1.0000 0.32651  0.45350  0.00680  Biso   1.000  C
  C910     1.0000 0.25570  0.38141  0.00261  Biso   1.000  C
  H904     1.0000 0.35390  0.56141  0.11079  Biso   1.000  H
  O340     1.0000 0.29710  0.61515  0.12569  Biso   1.000  O
  C911     1.0000 0.23080  0.54849  0.12009  Biso   1.000  C
  C912     1.0000 0.15750  0.47959  0.11431  Biso   1.000  C
  H905     1.0000 0.40689  0.54280  0.02260  Biso   1.000  H
  O341     1.0000 0.33842  0.45021  0.97130  Biso   1.000  O
  C913     1.0000 0.23380  0.34081  0.02740  Biso   1.000  C
  C914     1.0000 0.22299  0.38980  0.98160  Biso   1.000  C
  H906     1.0000 0.27232  0.37581  0.98379  Biso   1.000  H
  H907     1.0000 0.32351  0.62521  0.12439  Biso   1.000  H
  O342     1.0000 0.20876  0.57162  0.12181  Biso   1.000  O
  H908     1.0000 0.14782  0.49872  0.12511  Biso   1.000  H
  C915     1.0000 0.13721  0.43811  0.13749  Biso   1.000  C
  C916     1.0000 0.14301  0.47230  0.07481  Biso   1.000  C
  H909     1.0000 0.31661  0.43769  0.95831  Biso   1.000  H
  H910     1.0000 0.21441  0.31602  0.01280  Biso   1.000  H
  H911     1.0000 0.21771  0.34520  0.04669  Biso   1.000  H
  H912     1.0000 0.25571  0.33590  0.03839  Biso   1.000  H
  C917     1.0000 0.18462  0.38411  0.99870  Biso   1.000  C
  C918     1.0000 0.23042  0.40291  0.94529  Biso   1.000  C
  H913     1.0000 0.18910  0.56190  0.10640  Biso   1.000  H
  H914     1.0000 0.10599  0.42380  0.13560  Biso   1.000  H
  H915     1.0000 0.14560  0.44520  0.16300  Biso   1.000  H
  H916     1.0000 0.14702  0.41902  0.12850  Biso   1.000  H
  C919     1.0000 0.13429  0.50129  0.05441  Biso   1.000  C
  C920     1.0000 0.13500  0.43460  0.05521  Biso   1.000  C
  H917     1.0000 0.17871  0.37432  0.02310  Biso   1.000  H
  C921     1.0000 0.15499  0.39309  0.97960  Biso   1.000  C
  O343     1.0000 0.26712  0.40841  0.92641  Biso   1.000  O
  C922     1.0000 0.20121  0.41212  0.92619  Biso   1.000  C
  O344     1.0000 0.14179  0.54030  0.07029  Biso   1.000  O
  C923     1.0000 0.11912  0.49332  0.01960  Biso   1.000  C
  C924     1.0000 0.12040  0.42601  0.01910  Biso   1.000  C
  H918     1.0000 0.14000  0.41440  0.06740  Biso   1.000  H
  C925     1.0000 0.11278  0.38469  0.99789  Biso   1.000  C
  C926     1.0000 0.16490  0.40789  0.94359  Biso   1.000  C
  H919     1.0000 0.28849  0.42090  0.93990  Biso   1.000  H
  O345     1.0000 0.21059  0.42529  0.89010  Biso   1.000  O
  H920     1.0000 0.16179  0.54869  0.08530  Biso   1.000  H
  C927     1.0000 0.11098  0.45519  0.00081  Biso   1.000  C
  O346     1.0000 0.10971  0.52110  0.99939  Biso   1.000  O
  C928     1.0000 0.09360  0.34481  0.02329  Biso   1.000  C
  H921     1.0000 0.09160  0.37900  0.97810  Biso   1.000  H
  O347     1.0000 0.13929  0.41820  0.92230  Biso   1.000  O
  H922     1.0000 0.23309  0.42601  0.88391  Biso   1.000  H
  O348     1.0000 0.09571  0.44781  0.96511  Biso   1.000  O
  H923     1.0000 0.12030  0.54482  0.00991  Biso   1.000  H
  H924     1.0000 0.08879  0.31979  0.00930  Biso   1.000  H
  H925     1.0000 0.06649  0.33999  0.03331  Biso   1.000  H
  H926     1.0000 0.11348  0.34969  0.04319  Biso   1.000  H
  H927     1.0000 0.12651  0.42679  0.93571  Biso   1.000  H
  H928     1.0000 0.10910  0.43909  0.95270  Biso   1.000  H
  C929     1.0000 0.72621  0.56629  0.85920  Biso   1.000  C
  C930     1.0000 0.70142  0.52370  0.88169  Biso   1.000  C
  H929     1.0000 0.73163  0.55972  0.83461  Biso   1.000  H
  H930     1.0000 0.70910  0.58031  0.85790  Biso   1.000  H
  H931     1.0000 0.75341  0.58532  0.87111  Biso   1.000  H
  C931     1.0000 0.72451  0.49781  0.88130  Biso   1.000  C
  C932     1.0000 0.69171  0.53229  0.92030  Biso   1.000  C
  H932     1.0000 0.67331  0.50591  0.86931  Biso   1.000  H
  C933     1.0000 0.70272  0.45311  0.87861  Biso   1.000  C
  C934     1.0000 0.76911  0.51811  0.88380  Biso   1.000  C
  C935     1.0000 0.65332  0.50301  0.93740  Biso   1.000  C
  C936     1.0000 0.71960  0.56971  0.94029  Biso   1.000  C
  O349     1.0000 0.65723  0.42767  0.87639  Biso   1.000  O
  C937     1.0000 0.72392  0.42991  0.87711  Biso   1.000  C
  C938     1.0000 0.79281  0.49631  0.88299  Biso   1.000  C
  H933     1.0000 0.78452  0.54830  0.88599  Biso   1.000  H
  O350     1.0000 0.62290  0.46550  0.91889  Biso   1.000  O
  C939     1.0000 0.64529  0.50871  0.97349  Biso   1.000  C
  H934     1.0000 0.74481  0.59082  0.92869  Biso   1.000  H
  C940     1.0000 0.71181  0.57699  0.97671  Biso   1.000  C
  H935     1.0000 0.64610  0.43860  0.88921  Biso   1.000  H
  O351     1.0000 0.70291  0.38486  0.87431  Biso   1.000  O
  C941     1.0000 0.76920  0.45152  0.87991  Biso   1.000  C
  C942     1.0000 0.84250  0.52042  0.88569  Biso   1.000  C
  H936     1.0000 0.63571  0.45591  0.90651  Biso   1.000  H
  O352     1.0000 0.60699  0.47780  0.99131  Biso   1.000  O
  C943     1.0000 0.67352  0.54651  0.99320  Biso   1.000  C
  C944     1.0000 0.74430  0.61860  0.99739  Biso   1.000  C
  H937     1.0000 0.67650  0.37480  0.87561  Biso   1.000  H
  O353     1.0000 0.79125  0.42838  0.87819  Biso   1.000  O
  H938     1.0000 0.85221  0.50129  0.87489  Biso   1.000  H
  C945     1.0000 0.86279  0.56190  0.86251  Biso   1.000  C
  C946     1.0000 0.85700  0.52771  0.92519  Biso   1.000  C
  H939     1.0000 0.59312  0.45721  0.97740  Biso   1.000  H
  O354     1.0000 0.66161  0.54980  0.02870  Biso   1.000  O
  C947     1.0000 0.76621  0.65920  0.97260  Biso   1.000  C
  C948     1.0000 0.77701  0.61021  0.01840  Biso   1.000  C
  H940     1.0000 0.72769  0.62420  0.01621  Biso   1.000  H
  H941     1.0000 0.81090  0.43811  0.89360  Biso   1.000  H
  H942     1.0000 0.89401  0.57621  0.86440  Biso   1.000  H
  H943     1.0000 0.85440  0.55481  0.83700  Biso   1.000  H
  H944     1.0000 0.85301  0.58099  0.87150  Biso   1.000  H
  C949     1.0000 0.86572  0.49872  0.94559  Biso   1.000  C
  C950     1.0000 0.86500  0.56541  0.94479  Biso   1.000  C
  H945     1.0000 0.68343  0.56232  0.04169  Biso   1.000  H
  H946     1.0000 0.78559  0.68399  0.98720  Biso   1.000  H
  H947     1.0000 0.78230  0.65481  0.95331  Biso   1.000  H
  H948     1.0000 0.74432  0.66411  0.96161  Biso   1.000  H
  C951     1.0000 0.81542  0.61590  0.00130  Biso   1.000  C
  C952     1.0000 0.76961  0.59710  0.05471  Biso   1.000  C
  O355     1.0000 0.85822  0.45971  0.92971  Biso   1.000  O
  C953     1.0000 0.88089  0.50669  0.98040  Biso   1.000  C
  C954     1.0000 0.87961  0.57400  0.98090  Biso   1.000  C
  H949     1.0000 0.86000  0.58561  0.93260  Biso   1.000  H
  H950     1.0000 0.82130  0.62569  0.97690  Biso   1.000  H
  C955     1.0000 0.84500  0.60689  0.02040  Biso   1.000  C
  O356     1.0000 0.73292  0.59160  0.07359  Biso   1.000  O
  C956     1.0000 0.79879  0.58789  0.07381  Biso   1.000  C
  H951     1.0000 0.83820  0.45129  0.91470  Biso   1.000  H
  C957     1.0000 0.88902  0.54482  0.99919  Biso   1.000  C
  O357     1.0000 0.89030  0.47891  0.00061  Biso   1.000  O
  C958     1.0000 0.88722  0.61532  0.00211  Biso   1.000  C
  C959     1.0000 0.83511  0.59212  0.05641  Biso   1.000  C
  H952     1.0000 0.71151  0.57911  0.06010  Biso   1.000  H
  O358     1.0000 0.78941  0.57472  0.10990  Biso   1.000  O
  O359     1.0000 0.90432  0.55220  0.03489  Biso   1.000  O
  H953     1.0000 0.87971  0.45519  0.99009  Biso   1.000  H
  C960     1.0000 0.90640  0.65520  0.97671  Biso   1.000  C
  H954     1.0000 0.90841  0.62101  0.02190  Biso   1.000  H
  O360     1.0000 0.86072  0.58181  0.07770  Biso   1.000  O
  H955     1.0000 0.76691  0.57400  0.11609  Biso   1.000  H
  H956     1.0000 0.89089  0.56089  0.04730  Biso   1.000  H
  H957     1.0000 0.91122  0.68022  0.99070  Biso   1.000  H
  H958     1.0000 0.93352  0.66001  0.96669  Biso   1.000  H
  H959     1.0000 0.88652  0.65032  0.95681  Biso   1.000  H
  H960     1.0000 0.87353  0.57322  0.06429  Biso   1.000  H
  O361     1.0000 0.68196  0.29708  0.87431  Biso   1.000  O
  H961     1.0000 0.69829  0.32350  0.87561  Biso   1.000  H
  C961     1.0000 0.70601  0.27610  0.87711  Biso   1.000  C
  C962     1.0000 0.75042  0.29731  0.87861  Biso   1.000  C
  C963     1.0000 0.68232  0.23082  0.87991  Biso   1.000  C
  O362     1.0000 0.77044  0.34276  0.87639  Biso   1.000  O
  C964     1.0000 0.77330  0.27552  0.88130  Biso   1.000  C
  O363     1.0000 0.63715  0.20876  0.87819  Biso   1.000  O
  C965     1.0000 0.70350  0.20720  0.88299  Biso   1.000  C
  H962     1.0000 0.79253  0.35392  0.88921  Biso   1.000  H
  C966     1.0000 0.82232  0.29861  0.88169  Biso   1.000  C
  C967     1.0000 0.74900  0.23091  0.88380  Biso   1.000  C
  H963     1.0000 0.62721  0.18911  0.89360  Biso   1.000  H
  C968     1.0000 0.67789  0.15749  0.88569  Biso   1.000  C
  C969     1.0000 0.84061  0.30831  0.92030  Biso   1.000  C
  H964     1.0000 0.83261  0.32669  0.86931  Biso   1.000  H
  C970     1.0000 0.84011  0.27379  0.85920  Biso   1.000  C
  H965     1.0000 0.76380  0.21549  0.88599  Biso   1.000  H
  H966     1.0000 0.64909  0.14779  0.87489  Biso   1.000  H
  C971     1.0000 0.69910  0.13719  0.86251  Biso   1.000  C
  C972     1.0000 0.67071  0.14301  0.92519  Biso   1.000  C
  C973     1.0000 0.84972  0.34670  0.93740  Biso   1.000  C
  C974     1.0000 0.85009  0.28040  0.94029  Biso   1.000  C
  H967     1.0000 0.82809  0.26839  0.83461  Biso   1.000  H
  H968     1.0000 0.87121  0.29090  0.85790  Biso   1.000  H
  H969     1.0000 0.83190  0.24659  0.87111  Biso   1.000  H
  H970     1.0000 0.68220  0.10599  0.86440  Biso   1.000  H
  H971     1.0000 0.70041  0.14561  0.83700  Biso   1.000  H
  H972     1.0000 0.72801  0.14701  0.87150  Biso   1.000  H
  C975     1.0000 0.63299  0.13429  0.94559  Biso   1.000  C
  C976     1.0000 0.70040  0.13501  0.94479  Biso   1.000  C
  O364     1.0000 0.84261  0.37711  0.91889  Biso   1.000  O
  C977     1.0000 0.86341  0.35470  0.97349  Biso   1.000  C
  H973     1.0000 0.84601  0.25522  0.92869  Biso   1.000  H
  C978     1.0000 0.86521  0.28820  0.97671  Biso   1.000  C
  O365     1.0000 0.60150  0.14181  0.92971  Biso   1.000  O
  C979     1.0000 0.62582  0.11910  0.98040  Biso   1.000  C
  C980     1.0000 0.69439  0.12040  0.98090  Biso   1.000  C
  H974     1.0000 0.72560  0.13999  0.93260  Biso   1.000  H
  H975     1.0000 0.82020  0.36430  0.90651  Biso   1.000  H
  O366     1.0000 0.87081  0.39299  0.99131  Biso   1.000  O
  C981     1.0000 0.87300  0.32649  0.99320  Biso   1.000  C
  C982     1.0000 0.87432  0.25570  0.99739  Biso   1.000  C
  H976     1.0000 0.61311  0.16182  0.91470  Biso   1.000  H
  C983     1.0000 0.65580  0.11100  0.99919  Biso   1.000  C
  O367     1.0000 0.58860  0.10970  0.00061  Biso   1.000  O
  C984     1.0000 0.72811  0.11279  0.00211  Biso   1.000  C
  H977     1.0000 0.86410  0.40691  0.97740  Biso   1.000  H
  O368     1.0000 0.88820  0.33840  0.02870  Biso   1.000  O
  C985     1.0000 0.89301  0.23381  0.97260  Biso   1.000  C
  C986     1.0000 0.83320  0.22301  0.01840  Biso   1.000  C
  H978     1.0000 0.89650  0.27230  0.01621  Biso   1.000  H
  O369     1.0000 0.64790  0.09571  0.03489  Biso   1.000  O
  H979     1.0000 0.57551  0.12030  0.99009  Biso   1.000  H
  C987     1.0000 0.74880  0.09360  0.97671  Biso   1.000  C
  H980     1.0000 0.71262  0.09161  0.02190  Biso   1.000  H
  C988     1.0000 0.76191  0.15502  0.02040  Biso   1.000  C
  H981     1.0000 0.87890  0.31660  0.04169  Biso   1.000  H
  H982     1.0000 0.89840  0.21439  0.98720  Biso   1.000  H
  H983     1.0000 0.87250  0.21771  0.95331  Biso   1.000  H
  H984     1.0000 0.91982  0.25570  0.96161  Biso   1.000  H
  C989     1.0000 0.80050  0.18459  0.00130  Biso   1.000  C
  C990     1.0000 0.82751  0.23039  0.05471  Biso   1.000  C
  H985     1.0000 0.67001  0.10911  0.04730  Biso   1.000  H
  H986     1.0000 0.76901  0.08881  0.99070  Biso   1.000  H
  H987     1.0000 0.72649  0.06650  0.96669  Biso   1.000  H
  H988     1.0000 0.76380  0.11351  0.95681  Biso   1.000  H
  C991     1.0000 0.75702  0.16491  0.05641  Biso   1.000  C
  H989     1.0000 0.80440  0.17870  0.97690  Biso   1.000  H
  O370     1.0000 0.85871  0.26709  0.07359  Biso   1.000  O
  C992     1.0000 0.78912  0.20121  0.07381  Biso   1.000  C
  O371     1.0000 0.72111  0.13930  0.07770  Biso   1.000  O
  H990     1.0000 0.86761  0.28850  0.06010  Biso   1.000  H
  O372     1.0000 0.78531  0.21061  0.10990  Biso   1.000  O
  H991     1.0000 0.69969  0.12649  0.06429  Biso   1.000  H
  H992     1.0000 0.80711  0.23309  0.11609  Biso   1.000  H
  O373     1.0000 0.31805  0.70292  0.12569  Biso   1.000  O
  C993     1.0000 0.29400  0.72391  0.12289  Biso   1.000  C
  H993     1.0000 0.30171  0.67651  0.12439  Biso   1.000  H
  C994     1.0000 0.24958  0.70270  0.12139  Biso   1.000  C
  C995     1.0000 0.31768  0.76919  0.12009  Biso   1.000  C
  O374     1.0000 0.22957  0.65725  0.12361  Biso   1.000  O
  C996     1.0000 0.22670  0.72449  0.11870  Biso   1.000  C
  C997     1.0000 0.29650  0.79281  0.11701  Biso   1.000  C
  O375     1.0000 0.36286  0.79125  0.12181  Biso   1.000  O
  H994     1.0000 0.20750  0.64609  0.11079  Biso   1.000  H
  C998     1.0000 0.17768  0.70140  0.11831  Biso   1.000  C
  C999     1.0000 0.25100  0.76910  0.11620  Biso   1.000  C
  C1000    1.0000 0.32212  0.84252  0.11431  Biso   1.000  C
  H995     1.0000 0.37280  0.81090  0.10640  Biso   1.000  H
  C1001    1.0000 0.15940  0.69170  0.07970  Biso   1.000  C
  H996     1.0000 0.16742  0.67332  0.13069  Biso   1.000  H
  C1002    1.0000 0.15992  0.72622  0.14080  Biso   1.000  C
  H997     1.0000 0.23620  0.78452  0.11401  Biso   1.000  H
  H998     1.0000 0.35091  0.85222  0.12511  Biso   1.000  H
  C1003    1.0000 0.30091  0.86282  0.13749  Biso   1.000  C
  C1004    1.0000 0.32930  0.85700  0.07481  Biso   1.000  C
  C1005    1.0000 0.15032  0.65331  0.06260  Biso   1.000  C
  C1006    1.0000 0.14991  0.71961  0.05971  Biso   1.000  C
  H999     1.0000 0.17192  0.73162  0.16539  Biso   1.000  H
  H1000    1.0000 0.12880  0.70911  0.14210  Biso   1.000  H
  H1001    1.0000 0.16811  0.75341  0.12889  Biso   1.000  H
  H1002    1.0000 0.31780  0.89402  0.13560  Biso   1.000  H
  H1003    1.0000 0.29960  0.85440  0.16300  Biso   1.000  H
  H1004    1.0000 0.27199  0.85300  0.12850  Biso   1.000  H
  C1007    1.0000 0.36702  0.86572  0.05441  Biso   1.000  C
  C1008    1.0000 0.29960  0.86500  0.05521  Biso   1.000  C
  O376     1.0000 0.15739  0.62290  0.08111  Biso   1.000  O
  C1009    1.0000 0.13660  0.64531  0.02651  Biso   1.000  C
  H1005    1.0000 0.15399  0.74479  0.07131  Biso   1.000  H
  C1010    1.0000 0.13480  0.71181  0.02329  Biso   1.000  C
  O377     1.0000 0.39850  0.85820  0.07029  Biso   1.000  O
  C1011    1.0000 0.37422  0.88091  0.01960  Biso   1.000  C
  C1012    1.0000 0.30561  0.87961  0.01910  Biso   1.000  C
  H1006    1.0000 0.27441  0.86002  0.06740  Biso   1.000  H
  H1007    1.0000 0.17981  0.63571  0.09349  Biso   1.000  H
  O378     1.0000 0.12920  0.60702  0.00869  Biso   1.000  O
  C1013    1.0000 0.12700  0.67352  0.00680  Biso   1.000  C
  C1014    1.0000 0.12569  0.74431  0.00261  Biso   1.000  C
  H1008    1.0000 0.38689  0.83819  0.08530  Biso   1.000  H
  C1015    1.0000 0.34421  0.88901  0.00081  Biso   1.000  C
  O379     1.0000 0.41140  0.89031  0.99939  Biso   1.000  O
  C1016    1.0000 0.27192  0.88722  0.99789  Biso   1.000  C
  H1009    1.0000 0.13590  0.59310  0.02260  Biso   1.000  H
  O380     1.0000 0.11181  0.66161  0.97130  Biso   1.000  O
  C1017    1.0000 0.10700  0.76620  0.02740  Biso   1.000  C
  C1018    1.0000 0.16680  0.77700  0.98160  Biso   1.000  C
  H1010    1.0000 0.10350  0.72771  0.98379  Biso   1.000  H
  O381     1.0000 0.35210  0.90430  0.96511  Biso   1.000  O
  H1011    1.0000 0.42450  0.87971  0.00991  Biso   1.000  H
  C1019    1.0000 0.23810  0.84499  0.97960  Biso   1.000  C
  C1020    1.0000 0.25120  0.90641  0.02329  Biso   1.000  C
  H1012    1.0000 0.28741  0.90840  0.97810  Biso   1.000  H
  H1013    1.0000 0.12110  0.68341  0.95831  Biso   1.000  H
  H1014    1.0000 0.10161  0.78562  0.01280  Biso   1.000  H
  H1015    1.0000 0.12750  0.78230  0.04669  Biso   1.000  H
  H1016    1.0000 0.08019  0.74431  0.03839  Biso   1.000  H
  C1021    1.0000 0.19951  0.81542  0.99870  Biso   1.000  C
  C1022    1.0000 0.17252  0.76962  0.94529  Biso   1.000  C
  H1017    1.0000 0.32999  0.89090  0.95270  Biso   1.000  H
  C1023    1.0000 0.24299  0.83510  0.94359  Biso   1.000  C
  H1018    1.0000 0.23100  0.91120  0.00930  Biso   1.000  H
  H1019    1.0000 0.27351  0.93351  0.03331  Biso   1.000  H
  H1020    1.0000 0.23620  0.88650  0.04319  Biso   1.000  H
  H1021    1.0000 0.19560  0.82131  0.02310  Biso   1.000  H
  O382     1.0000 0.14129  0.73292  0.92641  Biso   1.000  O
  C1024    1.0000 0.21089  0.79880  0.92619  Biso   1.000  C
  O383     1.0000 0.27889  0.86071  0.92230  Biso   1.000  O
  H1022    1.0000 0.13239  0.71151  0.93990  Biso   1.000  H
  O384     1.0000 0.21470  0.78940  0.89010  Biso   1.000  O
  H1023    1.0000 0.30030  0.87349  0.93571  Biso   1.000  H
  H1024    1.0000 0.19292  0.76692  0.88391  Biso   1.000  H
  C1025    1.0000 0.77367  0.09955  0.36073  Biso   1.000  C
  C1026    1.0000 0.79237  0.07762  0.33594  Biso   1.000  C
  H1025    1.0000 0.76826  0.11894  0.34613  Biso   1.000  H
  H1026    1.0000 0.79416  0.11562  0.38002  Biso   1.000  H
  H1027    1.0000 0.74687  0.07762  0.37172  Biso   1.000  H
  C1027    1.0000 0.80148  0.04512  0.35662  Biso   1.000  C
  C1028    1.0000 0.83348  0.11035  0.31493  Biso   1.000  C
  H1028    1.0000 0.77016  0.06103  0.31712  Biso   1.000  H
  C1029    1.0000 0.81657  0.05293  0.39304  Biso   1.000  C
  C1030    1.0000 0.79366  0.00683  0.34013  Biso   1.000  C
  C1031    1.0000 0.86616  0.14874  0.33203  Biso   1.000  C
  C1032    1.0000 0.83918  0.10293  0.27862  Biso   1.000  C
  C1033    1.0000 0.82605  0.02502  0.41303  Biso   1.000  C
  H1029    1.0000 0.82067  0.07814  0.40465  Biso   1.000  H
  O385     1.0000 0.77847  0.99492  0.30463  Biso   1.000  O
  C1034    1.0000 0.80328  0.97863  0.35984  Biso   1.000  C
  C1035    1.0000 0.90477  0.17834  0.31293  Biso   1.000  C
  H1030    1.0000 0.86226  0.15463  0.35643  Biso   1.000  H
  O386     1.0000 0.80798  0.06624  0.25974  Biso   1.000  O
  C1036    1.0000 0.87759  0.13215  0.25952  Biso   1.000  C
  C1037    1.0000 0.84439  0.03474  0.45164  Biso   1.000  C
  C1038    1.0000 0.81697  0.98663  0.39593  Biso   1.000  C
  H1031    1.0000 0.78776  0.01672  0.29164  Biso   1.000  H
  O387     1.0000 0.79588  0.94034  0.34202  Biso   1.000  O
  C1039    1.0000 0.93858  0.22054  0.33122  Biso   1.000  C
  C1040    1.0000 0.90967  0.16842  0.27693  Biso   1.000  C
  H1032    1.0000 0.79908  0.04483  0.27323  Biso   1.000  H
  O388     1.0000 0.88137  0.12274  0.22343  Biso   1.000  O
  H1033    1.0000 0.83408  0.00664  0.46402  Biso   1.000  H
  C1041    1.0000 0.82658  0.05953  0.47413  Biso   1.000  C
  C1042    1.0000 0.89338  0.05784  0.45203  Biso   1.000  C
  O389     1.0000 0.82407  0.95624  0.41445  Biso   1.000  O
  H1034    1.0000 0.80258  0.92644  0.35593  Biso   1.000  H
  C1043    1.0000 0.97227  0.21292  0.35243  Biso   1.000  C
  H1035    1.0000 0.95408  0.24175  0.31143  Biso   1.000  H
  C1044    1.0000 0.91786  0.23973  0.35662  Biso   1.000  C
  O390     1.0000 0.94558  0.19402  0.25564  Biso   1.000  O
  H1036    1.0000 0.85958  0.10023  0.21724  Biso   1.000  H
  H1037    1.0000 0.83858  0.06493  0.49872  Biso   1.000  H
  H1038    1.0000 0.79545  0.04242  0.47543  Biso   1.000  H
  H1039    1.0000 0.83477  0.08673  0.46222  Biso   1.000  H
  C1045    1.0000 0.91629  0.03605  0.45472  Biso   1.000  C
  C1046    1.0000 0.91768  0.10244  0.44953  Biso   1.000  C
  H1040    1.0000 0.84646  0.96903  0.42683  Biso   1.000  H
  C1047    1.0000 0.96628  0.19835  0.38855  Biso   1.000  C
  C1048    1.0000 0.01086  0.22233  0.33414  Biso   1.000  C
  H1041    1.0000 0.89767  0.24455  0.34263  Biso   1.000  H
  H1042    1.0000 0.94017  0.26683  0.36664  Biso   1.000  H
  H1043    1.0000 0.90286  0.21982  0.37653  Biso   1.000  H
  H1044    1.0000 0.96697  0.20684  0.26904  Biso   1.000  H
  C1049    1.0000 0.96066  0.05722  0.45622  Biso   1.000  C
  O391     1.0000 0.89622  0.99057  0.45695  Biso   1.000  O
  C1050    1.0000 0.96316  0.12613  0.45034  Biso   1.000  C
  H1045    1.0000 0.90286  0.11783  0.44734  Biso   1.000  H
  C1051    1.0000 0.99597  0.19035  0.40814  Biso   1.000  C
  H1046    1.0000 0.94107  0.19334  0.40073  Biso   1.000  H
  O392     1.0000 0.01878  0.23765  0.29844  Biso   1.000  O
  C1052    1.0000 0.04088  0.21423  0.35293  Biso   1.000  C
  O393     1.0000 0.98473  0.03624  0.45903  Biso   1.000  O
  C1053    1.0000 0.98439  0.10254  0.45342  Biso   1.000  C
  H1047    1.0000 0.87418  0.97944  0.44412  Biso   1.000  H
  C1054    1.0000 0.98877  0.17584  0.44765  Biso   1.000  C
  C1055    1.0000 0.03367  0.19903  0.38774  Biso   1.000  C
  H1048    1.0000 0.99667  0.22424  0.28603  Biso   1.000  H
  O394     1.0000 0.07806  0.22363  0.33272  Biso   1.000  O
  H1049    1.0000 0.96837  0.00982  0.45772  Biso   1.000  H
  O395     1.0000 0.02955  0.12457  0.45514  Biso   1.000  O
  C1056    1.0000 0.96757  0.19614  0.47083  Biso   1.000  C
  H1050    1.0000 0.01757  0.18553  0.45844  Biso   1.000  H
  O396     1.0000 0.06518  0.19155  0.40362  Biso   1.000  O
  H1051    1.0000 0.09116  0.21302  0.34324  Biso   1.000  H
  H1052    1.0000 0.03947  0.14425  0.43973  Biso   1.000  H
  H1053    1.0000 0.98446  0.22734  0.46894  Biso   1.000  H
  H1054    1.0000 0.96627  0.18774  0.49634  Biso   1.000  H
  H1055    1.0000 0.93867  0.18634  0.46183  Biso   1.000  H
  H1056    1.0000 0.05357  0.17154  0.41864  Biso   1.000  H
  C1057    1.0000 0.22633  0.90046  0.63927  Biso   1.000  C
  C1058    1.0000 0.20763  0.92239  0.66406  Biso   1.000  C
  H1057    1.0000 0.23174  0.88107  0.65387  Biso   1.000  H
  H1058    1.0000 0.20585  0.88439  0.61998  Biso   1.000  H
  H1059    1.0000 0.25313  0.92239  0.62828  Biso   1.000  H
  C1059    1.0000 0.16653  0.88966  0.68507  Biso   1.000  C
  C1060    1.0000 0.19855  0.95489  0.64338  Biso   1.000  C
  H1060    1.0000 0.22984  0.93898  0.68288  Biso   1.000  H
  C1061    1.0000 0.13384  0.85127  0.66797  Biso   1.000  C
  C1062    1.0000 0.16083  0.89708  0.72138  Biso   1.000  C
  C1063    1.0000 0.18343  0.94708  0.60696  Biso   1.000  C
  C1064    1.0000 0.20634  0.99318  0.65987  Biso   1.000  C
  C1065    1.0000 0.09523  0.82167  0.68707  Biso   1.000  C
  H1061    1.0000 0.13774  0.84538  0.64357  Biso   1.000  H
  C1066    1.0000 0.12244  0.86786  0.74048  Biso   1.000  C
  O397     1.0000 0.19202  0.93377  0.74026  Biso   1.000  O
  C1067    1.0000 0.17393  0.97496  0.58697  Biso   1.000  C
  H1062    1.0000 0.17934  0.92187  0.59535  Biso   1.000  H
  O398     1.0000 0.22154  0.00508  0.69537  Biso   1.000  O
  C1068    1.0000 0.19675  0.02138  0.64016  Biso   1.000  C
  C1069    1.0000 0.06143  0.77947  0.66878  Biso   1.000  C
  C1070    1.0000 0.09032  0.83156  0.72307  Biso   1.000  C
  O399     1.0000 0.11863  0.87727  0.77657  Biso   1.000  O
  H1063    1.0000 0.20095  0.95518  0.72677  Biso   1.000  H
  C1071    1.0000 0.15562  0.96527  0.54836  Biso   1.000  C
  C1072    1.0000 0.18303  0.01338  0.60407  Biso   1.000  C
  H1064    1.0000 0.21224  0.98329  0.70836  Biso   1.000  H
  O400     1.0000 0.20415  0.05967  0.65798  Biso   1.000  O
  C1073    1.0000 0.08215  0.76028  0.64338  Biso   1.000  C
  C1074    1.0000 0.02773  0.78709  0.64757  Biso   1.000  C
  H1065    1.0000 0.04592  0.75826  0.68857  Biso   1.000  H
  O401     1.0000 0.05443  0.80599  0.74436  Biso   1.000  O
  H1066    1.0000 0.14043  0.89978  0.78276  Biso   1.000  H
  C1075    1.0000 0.10663  0.94217  0.54797  Biso   1.000  C
  H1067    1.0000 0.16593  0.99337  0.53598  Biso   1.000  H
  C1076    1.0000 0.17343  0.94048  0.52587  Biso   1.000  C
  O402     1.0000 0.17594  0.04377  0.58555  Biso   1.000  O
  H1068    1.0000 0.19743  0.07357  0.64407  Biso   1.000  H
  H1069    1.0000 0.10233  0.75546  0.65737  Biso   1.000  H
  H1070    1.0000 0.05983  0.73318  0.63336  Biso   1.000  H
  H1071    1.0000 0.09714  0.78019  0.62347  Biso   1.000  H
  C1077    1.0000 0.03373  0.80166  0.61145  Biso   1.000  C
  C1078    1.0000 0.98914  0.77768  0.66586  Biso   1.000  C
  H1072    1.0000 0.03303  0.79317  0.73096  Biso   1.000  H
  C1079    1.0000 0.08233  0.89757  0.55047  Biso   1.000  C
  C1080    1.0000 0.08372  0.96396  0.54528  Biso   1.000  C
  H1073    1.0000 0.16143  0.93508  0.50128  Biso   1.000  H
  H1074    1.0000 0.20455  0.95759  0.52457  Biso   1.000  H
  H1075    1.0000 0.16524  0.91328  0.53778  Biso   1.000  H
  H1076    1.0000 0.15354  0.03098  0.57317  Biso   1.000  H
  C1081    1.0000 0.00403  0.80966  0.59186  Biso   1.000  C
  H1077    1.0000 0.05894  0.80667  0.59927  Biso   1.000  H
  O403     1.0000 0.98123  0.76236  0.70156  Biso   1.000  O
  C1082    1.0000 0.95913  0.78578  0.64707  Biso   1.000  C
  C1083    1.0000 0.03685  0.87388  0.54966  Biso   1.000  C
  H1078    1.0000 0.09714  0.88218  0.55266  Biso   1.000  H
  C1084    1.0000 0.03935  0.94279  0.54378  Biso   1.000  C
  O404     1.0000 0.10378  0.00944  0.54305  Biso   1.000  O
  C1085    1.0000 0.01123  0.82417  0.55235  Biso   1.000  C
  C1086    1.0000 0.96633  0.80098  0.61226  Biso   1.000  C
  H1079    1.0000 0.00334  0.77576  0.71397  Biso   1.000  H
  O405     1.0000 0.92194  0.77638  0.66728  Biso   1.000  O
  C1087    1.0000 0.01562  0.89747  0.54658  Biso   1.000  C
  O406     1.0000 0.01527  0.96377  0.54097  Biso   1.000  O
  H1080    1.0000 0.12583  0.02057  0.55588  Biso   1.000  H
  C1088    1.0000 0.03244  0.80387  0.52917  Biso   1.000  C
  H1081    1.0000 0.98243  0.81448  0.54156  Biso   1.000  H
  O407     1.0000 0.93483  0.80846  0.59638  Biso   1.000  O
  H1082    1.0000 0.90885  0.78699  0.65676  Biso   1.000  H
  O408     1.0000 0.97046  0.87544  0.54486  Biso   1.000  O
  H1083    1.0000 0.03163  0.99018  0.54228  Biso   1.000  H
  H1084    1.0000 0.01554  0.77267  0.53106  Biso   1.000  H
  H1085    1.0000 0.03373  0.81227  0.50366  Biso   1.000  H
  H1086    1.0000 0.06134  0.81366  0.53817  Biso   1.000  H
  H1087    1.0000 0.94644  0.82847  0.58136  Biso   1.000  H
  H1088    1.0000 0.96053  0.85576  0.56027  Biso   1.000  H
  C1089    1.0000 0.78261  0.10999  0.85890  Biso   1.000  C
  C1090    1.0000 0.79771  0.08660  0.83269  Biso   1.000  C
  H1089    1.0000 0.75570  0.08930  0.87031  Biso   1.000  H
  H1090    1.0000 0.80419  0.12470  0.87780  Biso   1.000  H
  H1091    1.0000 0.77851  0.13091  0.84530  Biso   1.000  H
  C1091    1.0000 0.84079  0.11838  0.81279  Biso   1.000  C
  H1092    1.0000 0.77530  0.07261  0.81351  Biso   1.000  H
  C1092    1.0000 0.80210  0.05059  0.85229  Biso   1.000  C
  C1093    1.0000 0.84771  0.11302  0.77670  Biso   1.000  C
  C1094    1.0000 0.87312  0.15430  0.83170  Biso   1.000  C
  C1095    1.0000 0.78991  0.01139  0.83361  Biso   1.000  C
  C1096    1.0000 0.81681  0.05550  0.88849  Biso   1.000  C
  O409     1.0000 0.81849  0.07870  0.75541  Biso   1.000  O
  C1097    1.0000 0.88579  0.14399  0.75911  Biso   1.000  C
  C1098    1.0000 0.91120  0.18511  0.81551  Biso   1.000  C
  H1093    1.0000 0.86860  0.15749  0.85660  Biso   1.000  H
  O410     1.0000 0.77401  0.00511  0.79819  Biso   1.000  O
  C1099    1.0000 0.79511  0.97931  0.85179  Biso   1.000  C
  C1100    1.0000 0.82119  0.02329  0.90670  Biso   1.000  C
  H1094    1.0000 0.82390  0.08101  0.90109  Biso   1.000  H
  H1095    1.0000 0.80550  0.05700  0.76849  Biso   1.000  H
  O411     1.0000 0.89241  0.13969  0.72291  Biso   1.000  O
  C1101    1.0000 0.91701  0.18010  0.77840  Biso   1.000  C
  C1102    1.0000 0.94622  0.22421  0.83711  Biso   1.000  C
  H1096    1.0000 0.78790  0.02759  0.78620  Biso   1.000  H
  O412     1.0000 0.78410  0.94229  0.83139  Biso   1.000  O
  C1103    1.0000 0.81081  0.98539  0.88680  Biso   1.000  C
  C1104    1.0000 0.83520  0.02850  0.94601  Biso   1.000  C
  H1097    1.0000 0.91581  0.16029  0.71630  Biso   1.000  H
  O413     1.0000 0.95416  0.20915  0.75999  Biso   1.000  O
  C1105    1.0000 0.97601  0.21071  0.85679  Biso   1.000  C
  H1098    1.0000 0.96411  0.24630  0.81879  Biso   1.000  H
  C1106    1.0000 0.92791  0.24461  0.86251  Biso   1.000  C
  H1099    1.0000 0.79160  0.92710  0.84269  Biso   1.000  H
  O414     1.0000 0.81481  0.95120  0.90190  Biso   1.000  O
  C1107    1.0000 0.81592  0.05140  0.96980  Biso   1.000  C
  C1108    1.0000 0.88362  0.05010  0.95051  Biso   1.000  C
  H1100    1.0000 0.82320  0.99909  0.95611  Biso   1.000  H
  H1101    1.0000 0.97541  0.21520  0.77301  Biso   1.000  H
  C1109    1.0000 0.96670  0.19519  0.89290  Biso   1.000  C
  C1110    1.0000 0.01260  0.21419  0.83961  Biso   1.000  C
  H1102    1.0000 0.91030  0.25300  0.84841  Biso   1.000  H
  H1103    1.0000 0.91043  0.22402  0.88130  Biso   1.000  H
  H1104    1.0000 0.95131  0.26979  0.87400  Biso   1.000  H
  H1105    1.0000 0.83410  0.96070  0.91761  Biso   1.000  H
  H1106    1.0000 0.82561  0.05371  0.99500  Biso   1.000  H
  H1107    1.0000 0.82560  0.08000  0.96011  Biso   1.000  H
  H1108    1.0000 0.78473  0.03471  0.96899  Biso   1.000  H
  C1111    1.0000 0.91081  0.09480  0.94989  Biso   1.000  C
  C1112    1.0000 0.90521  0.02629  0.95420  Biso   1.000  C
  C1113    1.0000 0.99313  0.18342  0.91311  Biso   1.000  C
  H1109    1.0000 0.94191  0.19249  0.90431  Biso   1.000  H
  O415     1.0000 0.02479  0.22899  0.80449  Biso   1.000  O
  C1114    1.0000 0.03911  0.20359  0.85959  Biso   1.000  C
  C1115    1.0000 0.95590  0.11640  0.95270  Biso   1.000  C
  H1110    1.0000 0.89782  0.11181  0.94740  Biso   1.000  H
  C1116    1.0000 0.94982  0.04581  0.95650  Biso   1.000  C
  O416     1.0000 0.87972  0.98100  0.95550  Biso   1.000  O
  C1117    1.0000 0.98289  0.16559  0.95220  Biso   1.000  C
  C1118    1.0000 0.03042  0.18931  0.89479  Biso   1.000  C
  H1111    1.0000 0.00311  0.22259  0.79189  Biso   1.000  H
  O417     1.0000 0.07652  0.20782  0.84249  Biso   1.000  O
  C1119    1.0000 0.97400  0.08989  0.95539  Biso   1.000  C
  O418     1.0000 0.96792  0.01991  0.96030  Biso   1.000  O
  H1112    1.0000 0.86070  0.97271  0.93960  Biso   1.000  H
  C1120    1.0000 0.96092  0.18651  0.97510  Biso   1.000  C
  H1113    1.0000 0.01061  0.17359  0.96430  Biso   1.000  H
  O419     1.0000 0.05912  0.18000  0.91411  Biso   1.000  O
  H1114    1.0000 0.08930  0.20030  0.85710  Biso   1.000  H
  O420     1.0000 0.01920  0.10749  0.95861  Biso   1.000  O
  H1115    1.0000 0.96130  0.00791  0.98071  Biso   1.000  H
  H1116    1.0000 0.95530  0.17499  0.99981  Biso   1.000  H
  H1117    1.0000 0.97992  0.21751  0.97599  Biso   1.000  H
  H1118    1.0000 0.93399  0.18010  0.96350  Biso   1.000  H
  H1119    1.0000 0.04510  0.15811  0.92669  Biso   1.000  H
  H1120    1.0000 0.03171  0.12919  0.94551  Biso   1.000  H
  C1121    1.0000 0.21739  0.89002  0.14110  Biso   1.000  C
  C1122    1.0000 0.20230  0.91341  0.16731  Biso   1.000  C
  H1121    1.0000 0.24430  0.91071  0.12969  Biso   1.000  H
  H1122    1.0000 0.19581  0.87531  0.12220  Biso   1.000  H
  H1123    1.0000 0.22150  0.86910  0.15470  Biso   1.000  H
  C1123    1.0000 0.15920  0.88159  0.18721  Biso   1.000  C
  H1124    1.0000 0.22470  0.92740  0.18649  Biso   1.000  H
  C1124    1.0000 0.19790  0.94942  0.14771  Biso   1.000  C
  C1125    1.0000 0.12689  0.84571  0.16830  Biso   1.000  C
  C1126    1.0000 0.15229  0.88699  0.22330  Biso   1.000  C
  C1127    1.0000 0.21012  0.98862  0.16639  Biso   1.000  C
  C1128    1.0000 0.18319  0.94451  0.11151  Biso   1.000  C
  C1129    1.0000 0.08881  0.81490  0.18449  Biso   1.000  C
  H1125    1.0000 0.13141  0.84252  0.14340  Biso   1.000  H
  C1130    1.0000 0.11421  0.85602  0.24089  Biso   1.000  C
  O421     1.0000 0.18151  0.92131  0.24459  Biso   1.000  O
  O422     1.0000 0.22600  0.99490  0.20181  Biso   1.000  O
  C1131    1.0000 0.20489  0.02070  0.14821  Biso   1.000  C
  C1132    1.0000 0.17881  0.97672  0.09330  Biso   1.000  C
  H1126    1.0000 0.17610  0.91900  0.09891  Biso   1.000  H
  C1133    1.0000 0.05379  0.77580  0.16289  Biso   1.000  C
  C1134    1.0000 0.08300  0.81991  0.22160  Biso   1.000  C
  O423     1.0000 0.10760  0.86032  0.27709  Biso   1.000  O
  H1127    1.0000 0.19450  0.94301  0.23151  Biso   1.000  H
  H1128    1.0000 0.21211  0.97242  0.21380  Biso   1.000  H
  O424     1.0000 0.21591  0.05772  0.16861  Biso   1.000  O
  C1135    1.0000 0.18920  0.01462  0.11320  Biso   1.000  C
  C1136    1.0000 0.16480  0.97151  0.05399  Biso   1.000  C
  C1137    1.0000 0.07210  0.75540  0.13749  Biso   1.000  C
  C1138    1.0000 0.02399  0.78930  0.14321  Biso   1.000  C
  H1129    1.0000 0.03589  0.75371  0.18121  Biso   1.000  H
  O425     1.0000 0.04585  0.79086  0.24001  Biso   1.000  O
  H1130    1.0000 0.08420  0.83972  0.28370  Biso   1.000  H
  H1131    1.0000 0.20840  0.07291  0.15731  Biso   1.000  H
  O426     1.0000 0.18519  0.04881  0.09810  Biso   1.000  O
  C1139    1.0000 0.11642  0.94991  0.04949  Biso   1.000  C
  C1140    1.0000 0.18411  0.94861  0.03020  Biso   1.000  C
  H1132    1.0000 0.17680  0.00092  0.04389  Biso   1.000  H
  H1133    1.0000 0.08971  0.74701  0.15159  Biso   1.000  H
  H1134    1.0000 0.08961  0.77599  0.11870  Biso   1.000  H
  H1135    1.0000 0.04872  0.73022  0.12600  Biso   1.000  H
  C1141    1.0000 0.03330  0.80482  0.10710  Biso   1.000  C
  C1142    1.0000 0.98740  0.78582  0.16039  Biso   1.000  C
  H1136    1.0000 0.02460  0.78481  0.22699  Biso   1.000  H
  H1137    1.0000 0.16590  0.03931  0.08239  Biso   1.000  H
  C1143    1.0000 0.08919  0.90521  0.05011  Biso   1.000  C
  C1144    1.0000 0.09480  0.97372  0.04580  Biso   1.000  C
  H1138    1.0000 0.17439  0.94630  0.00500  Biso   1.000  H
  H1139    1.0000 0.17441  0.92001  0.03989  Biso   1.000  H
  H1140    1.0000 0.21531  0.96530  0.03101  Biso   1.000  H
  C1145    1.0000 0.00690  0.81659  0.08689  Biso   1.000  C
  H1141    1.0000 0.05809  0.80752  0.09569  Biso   1.000  H
  O427     1.0000 0.97521  0.77101  0.19551  Biso   1.000  O
  C1146    1.0000 0.96090  0.79642  0.14041  Biso   1.000  C
  C1147    1.0000 0.04410  0.88361  0.04730  Biso   1.000  C
  H1142    1.0000 0.10218  0.88820  0.05260  Biso   1.000  H
  C1148    1.0000 0.05018  0.95420  0.04350  Biso   1.000  C
  O428     1.0000 0.12031  0.01901  0.04450  Biso   1.000  O
  C1149    1.0000 0.01711  0.83442  0.04780  Biso   1.000  C
  C1150    1.0000 0.96959  0.81070  0.10521  Biso   1.000  C
  H1143    1.0000 0.99688  0.77739  0.20811  Biso   1.000  H
  O429     1.0000 0.92348  0.79219  0.15751  Biso   1.000  O
  C1151    1.0000 0.02600  0.91012  0.04461  Biso   1.000  C
  O430     1.0000 0.03209  0.98010  0.03970  Biso   1.000  O
  H1144    1.0000 0.13931  0.02730  0.06040  Biso   1.000  H
  C1152    1.0000 0.03911  0.81350  0.02490  Biso   1.000  C
  H1145    1.0000 0.98942  0.82642  0.03570  Biso   1.000  H
  O431     1.0000 0.94091  0.82001  0.08589  Biso   1.000  O
  H1146    1.0000 0.91070  0.79971  0.14290  Biso   1.000  H
  O432     1.0000 0.98080  0.89252  0.04139  Biso   1.000  O
  H1147    1.0000 0.03871  0.99210  0.01929  Biso   1.000  H
  H1148    1.0000 0.04470  0.82502  0.00019  Biso   1.000  H
  H1149    1.0000 0.02009  0.78250  0.02401  Biso   1.000  H
  H1150    1.0000 0.06601  0.81991  0.03650  Biso   1.000  H
  H1151    1.0000 0.95490  0.84190  0.07331  Biso   1.000  H
  H1152    1.0000 0.96830  0.87079  0.05449  Biso   1.000  H
