data_image0
_cell_length_a       10.625
_cell_length_b       12.322
_cell_length_c       14.875
_cell_angle_alpha    90
_cell_angle_beta     98.78
_cell_angle_gamma    90

_symmetry_space_group_name_H-M    "P 1"
_symmetry_int_tables_number       1

loop_
  _symmetry_equiv_pos_as_xyz
  'x, y, z'

loop_
  _atom_site_label
  _atom_site_occupancy
  _atom_site_fract_x
  _atom_site_fract_y
  _atom_site_fract_z
  _atom_site_thermal_displace_type
  _atom_site_B_iso_or_equiv
  _atom_site_type_symbol
  N1       1.0000 0.97745  0.14454  0.09530  Biso   1.000  N
  C1       1.0000 0.86762  0.14640  0.13408  Biso   1.000  C
  C2       1.0000 0.86763  0.14640  0.13414  Biso   1.000  C
  H1       1.0000 0.03396  0.09098  0.10299  Biso   1.000  H
  H2       1.0000 0.03396  0.09106  0.10299  Biso   1.000  H
  C3       1.0000 0.99162  0.24152  0.05197  Biso   1.000  C
  C4       1.0000 0.99164  0.24152  0.05204  Biso   1.000  C
  C5       1.0000 0.99153  0.24152  0.05197  Biso   1.000  C
  C6       1.0000 0.99154  0.24152  0.05204  Biso   1.000  C
  C7       1.0000 0.83494  0.05730  0.19611  Biso   1.000  C
  C8       1.0000 0.83485  0.05730  0.19611  Biso   1.000  C
  C9       1.0000 0.81174  0.24590  0.11482  Biso   1.000  C
  N2       1.0000 0.97746  0.14454  0.09537  Biso   1.000  N
  C10      1.0000 0.81164  0.24590  0.11482  Biso   1.000  C
  N3       1.0000 0.97735  0.14454  0.09530  Biso   1.000  N
  N4       1.0000 0.97737  0.14454  0.09537  Biso   1.000  N
  C11      1.0000 0.88933  0.30531  0.06258  Biso   1.000  C
  C12      1.0000 0.88934  0.30531  0.06265  Biso   1.000  C
  C13      1.0000 0.88923  0.30531  0.06258  Biso   1.000  C
  C14      1.0000 0.88925  0.30531  0.06265  Biso   1.000  C
  C15      1.0000 0.10397  0.26392  0.00252  Biso   1.000  C
  C16      1.0000 0.87952  0.09284  0.29679  Biso   1.000  C
  C17      1.0000 0.88807  0.94790  0.17387  Biso   1.000  C
  C18      1.0000 0.88809  0.94790  0.17394  Biso   1.000  C
  C19      1.0000 0.68868  0.03847  0.18421  Biso   1.000  C
  C20      1.0000 0.68868  0.03855  0.18421  Biso   1.000  C
  H3       1.0000 0.73480  0.27049  0.13312  Biso   1.000  H
  H4       1.0000 0.87322  0.37648  0.03918  Biso   1.000  H
  H5       1.0000 0.87323  0.37648  0.03925  Biso   1.000  H
  H6       1.0000 0.87322  0.37656  0.03918  Biso   1.000  H
  H7       1.0000 0.87323  0.37656  0.03925  Biso   1.000  H
  H8       1.0000 0.87313  0.37648  0.03918  Biso   1.000  H
  H9       1.0000 0.87314  0.37648  0.03925  Biso   1.000  H
  H10      1.0000 0.87313  0.37656  0.03918  Biso   1.000  H
  H11      1.0000 0.87314  0.37656  0.03925  Biso   1.000  H
  C21      1.0000 0.22841  0.23973  0.06687  Biso   1.000  C
  C22      1.0000 0.22842  0.23973  0.06694  Biso   1.000  C
  C23      1.0000 0.22831  0.23973  0.06687  Biso   1.000  C
  C24      1.0000 0.22833  0.23973  0.06694  Biso   1.000  C
  C25      1.0000 0.09398  0.19810  0.91524  Biso   1.000  C
  C26      1.0000 0.10461  0.38460  0.97776  Biso   1.000  C
  C27      1.0000 0.10452  0.38460  0.97776  Biso   1.000  C
  C28      1.0000 0.00984  0.15119  0.31910  Biso   1.000  C
  C29      1.0000 0.00974  0.15119  0.31910  Biso   1.000  C
  H12      1.0000 0.88234  0.02727  0.33556  Biso   1.000  H
  H13      1.0000 0.81367  0.14154  0.31502  Biso   1.000  H
  H14      1.0000 0.88236  0.02727  0.33563  Biso   1.000  H
  H15      1.0000 0.88234  0.02735  0.33556  Biso   1.000  H
  H16      1.0000 0.88236  0.02735  0.33563  Biso   1.000  H
  H17      1.0000 0.88225  0.02727  0.33556  Biso   1.000  H
  H18      1.0000 0.81358  0.14154  0.31502  Biso   1.000  H
  H19      1.0000 0.88226  0.02727  0.33563  Biso   1.000  H
  H20      1.0000 0.88225  0.02735  0.33556  Biso   1.000  H
  H21      1.0000 0.88226  0.02735  0.33563  Biso   1.000  H
  C30      1.0000 0.93810  0.86479  0.22829  Biso   1.000  C
  N5       1.0000 0.86768  0.90911  0.08591  Biso   1.000  N
  C31      1.0000 0.63503  0.98133  0.24978  Biso   1.000  C
  C32      1.0000 0.60583  0.07093  0.10789  Biso   1.000  C
  C33      1.0000 0.60574  0.07093  0.10789  Biso   1.000  C
  H22      1.0000 0.22776  0.16418  0.08761  Biso   1.000  H
  H23      1.0000 0.23561  0.28843  0.11952  Biso   1.000  H
  H24      1.0000 0.30111  0.25110  0.03449  Biso   1.000  H
  H25      1.0000 0.22776  0.16426  0.08761  Biso   1.000  H
  H26      1.0000 0.23552  0.28843  0.11952  Biso   1.000  H
  H27      1.0000 0.30102  0.25110  0.03449  Biso   1.000  H
  C34      1.0000 0.04974  0.22651  0.82756  Biso   1.000  C
  N6       1.0000 0.13240  0.09089  0.91402  Biso   1.000  N
  N7       1.0000 0.13242  0.09089  0.91409  Biso   1.000  N
  N8       1.0000 0.13231  0.09089  0.91402  Biso   1.000  N
  N9       1.0000 0.13232  0.09089  0.91409  Biso   1.000  N
  H28      1.0000 0.10915  0.42834  0.03333  Biso   1.000  H
  H29      1.0000 0.10905  0.42834  0.03333  Biso   1.000  H
  H30      1.0000 0.17850  0.40034  0.94783  Biso   1.000  H
  H31      1.0000 0.02633  0.40229  0.93647  Biso   1.000  H
  H32      1.0000 0.02633  0.40237  0.93647  Biso   1.000  H
  H33      1.0000 0.17840  0.40034  0.94783  Biso   1.000  H
  H34      1.0000 0.02623  0.40229  0.93647  Biso   1.000  H
  H35      1.0000 0.02623  0.40237  0.93647  Biso   1.000  H
  C35      1.0000 0.12415  0.07791  0.31760  Biso   1.000  C
  C36      1.0000 0.12406  0.07791  0.31760  Biso   1.000  C
  H36      1.0000 0.01282  0.20841  0.27182  Biso   1.000  H
  C37      1.0000 0.01617  0.20889  0.41127  Biso   1.000  C
  C38      1.0000 0.01626  0.20889  0.41127  Biso   1.000  C
  H37      1.0000 0.96095  0.86747  0.29250  Biso   1.000  H
  C39      1.0000 0.95034  0.77349  0.17237  Biso   1.000  C
  C40      1.0000 0.95036  0.77349  0.17244  Biso   1.000  C
  H38      1.0000 0.96095  0.86755  0.29250  Biso   1.000  H
  H39      1.0000 0.96086  0.86747  0.29250  Biso   1.000  H
  C41      1.0000 0.95025  0.77349  0.17237  Biso   1.000  C
  C42      1.0000 0.95026  0.77349  0.17244  Biso   1.000  C
  H40      1.0000 0.96086  0.86755  0.29250  Biso   1.000  H
  C43      1.0000 0.90610  0.80190  0.08469  Biso   1.000  C
  H41      1.0000 0.84204  0.95098  0.03598  Biso   1.000  H
  H42      1.0000 0.84204  0.95106  0.03598  Biso   1.000  H
  H43      1.0000 0.84195  0.95098  0.03598  Biso   1.000  H
  H44      1.0000 0.84195  0.95106  0.03598  Biso   1.000  H
  C44      1.0000 0.50527  0.96031  0.23672  Biso   1.000  C
  H45      1.0000 0.68736  0.95683  0.30352  Biso   1.000  H
  C45      1.0000 0.50518  0.96031  0.23672  Biso   1.000  C
  H46      1.0000 0.68726  0.95683  0.30352  Biso   1.000  H
  H47      1.0000 0.63686  0.10972  0.06061  Biso   1.000  H
  C46      1.0000 0.47722  0.04650  0.10108  Biso   1.000  C
  H48      1.0000 0.63676  0.10972  0.06061  Biso   1.000  H
  C47      1.0000 0.06198  0.13521  0.77164  Biso   1.000  C
  H49      1.0000 0.01666  0.29541  0.80756  Biso   1.000  H
  C48      1.0000 0.06188  0.13521  0.77164  Biso   1.000  C
  C49      1.0000 0.11201  0.05210  0.82606  Biso   1.000  C
  H50      1.0000 0.15804  0.04902  0.96395  Biso   1.000  H
  C50      1.0000 0.11191  0.05210  0.82606  Biso   1.000  C
  C51      1.0000 0.24313  0.14381  0.32339  Biso   1.000  C
  H51      1.0000 0.11254  0.03514  0.26060  Biso   1.000  H
  H52      1.0000 0.13115  0.02654  0.36930  Biso   1.000  H
  H53      1.0000 0.11244  0.03514  0.26060  Biso   1.000  H
  H54      1.0000 0.13106  0.02654  0.36930  Biso   1.000  H
  C52      1.0000 0.24304  0.14381  0.32339  Biso   1.000  C
  H55      1.0000 0.20251  0.12222  0.32182  Biso   1.000  H
  H56      1.0000 0.01814  0.15517  0.46100  Biso   1.000  H
  H57      1.0000 0.09333  0.25507  0.42086  Biso   1.000  H
  H58      1.0000 0.09334  0.25507  0.42093  Biso   1.000  H
  H59      1.0000 0.01814  0.15525  0.46100  Biso   1.000  H
  H60      1.0000 0.09333  0.25515  0.42086  Biso   1.000  H
  H61      1.0000 0.09334  0.25515  0.42093  Biso   1.000  H
  H62      1.0000 0.01804  0.15517  0.46100  Biso   1.000  H
  H63      1.0000 0.09323  0.25507  0.42086  Biso   1.000  H
  H64      1.0000 0.01804  0.15525  0.46100  Biso   1.000  H
  H65      1.0000 0.09323  0.25515  0.42086  Biso   1.000  H
  C53      1.0000 0.02040  0.13204  0.49447  Biso   1.000  C
  H66      1.0000 0.94140  0.25734  0.40889  Biso   1.000  H
  H67      1.0000 0.98342  0.70459  0.19237  Biso   1.000  H
  H68      1.0000 0.98343  0.70459  0.19244  Biso   1.000  H
  H69      1.0000 0.98332  0.70459  0.19237  Biso   1.000  H
  C54      1.0000 0.89611  0.73608  0.99742  Biso   1.000  C
  C55      1.0000 0.89612  0.73608  0.99748  Biso   1.000  C
  C56      1.0000 0.89601  0.73608  0.99742  Biso   1.000  C
  C57      1.0000 0.89603  0.73608  0.99748  Biso   1.000  C
  H70      1.0000 0.47134  0.92063  0.28230  Biso   1.000  H
  N10      1.0000 0.42545  0.99294  0.16360  Biso   1.000  N
  N11      1.0000 0.42536  0.99294  0.16360  Biso   1.000  N
  H71      1.0000 0.42250  0.06979  0.04802  Biso   1.000  H
  H72      1.0000 0.03913  0.13253  0.70743  Biso   1.000  H
  C58      1.0000 0.16514  0.94270  0.80382  Biso   1.000  C
  C59      1.0000 0.16515  0.94270  0.80389  Biso   1.000  C
  H73      1.0000 0.26381  0.17473  0.38447  Biso   1.000  H
  H74      1.0000 0.31330  0.09731  0.31087  Biso   1.000  H
  H75      1.0000 0.23024  0.20248  0.27849  Biso   1.000  H
  H76      1.0000 0.26382  0.17473  0.38454  Biso   1.000  H
  H77      1.0000 0.31332  0.09731  0.31094  Biso   1.000  H
  H78      1.0000 0.23024  0.20256  0.27849  Biso   1.000  H
  H79      1.0000 0.23015  0.20248  0.27849  Biso   1.000  H
  H80      1.0000 0.23015  0.20256  0.27849  Biso   1.000  H
  H81      1.0000 0.08904  0.07888  0.49419  Biso   1.000  H
  H82      1.0000 0.03601  0.17457  0.55079  Biso   1.000  H
  H83      1.0000 0.93882  0.09390  0.49107  Biso   1.000  H
  C60      1.0000 0.77167  0.76027  0.93306  Biso   1.000  C
  C61      1.0000 0.77167  0.76035  0.93306  Biso   1.000  C
  C62      1.0000 0.89547  0.61540  0.02218  Biso   1.000  C
  C63      1.0000 0.89548  0.61540  0.02224  Biso   1.000  C
  C64      1.0000 0.00846  0.75848  0.94796  Biso   1.000  C
  C65      1.0000 0.13246  0.85360  0.86586  Biso   1.000  C
  C66      1.0000 0.31140  0.96153  0.81572  Biso   1.000  C
  C67      1.0000 0.12056  0.90716  0.70314  Biso   1.000  C
  C68      1.0000 0.12056  0.90724  0.70314  Biso   1.000  C
  C69      1.0000 0.31130  0.96153  0.81572  Biso   1.000  C
  H84      1.0000 0.77232  0.83582  0.91232  Biso   1.000  H
  H85      1.0000 0.76447  0.71157  0.88041  Biso   1.000  H
  H86      1.0000 0.69897  0.74890  0.96544  Biso   1.000  H
  H87      1.0000 0.77234  0.83582  0.91239  Biso   1.000  H
  H88      1.0000 0.76448  0.71157  0.88048  Biso   1.000  H
  H89      1.0000 0.76447  0.71165  0.88041  Biso   1.000  H
  H90      1.0000 0.76448  0.71165  0.88048  Biso   1.000  H
  H91      1.0000 0.77223  0.83582  0.91232  Biso   1.000  H
  H92      1.0000 0.77224  0.83582  0.91239  Biso   1.000  H
  H93      1.0000 0.89093  0.57166  0.96660  Biso   1.000  H
  H94      1.0000 0.89104  0.57166  0.96667  Biso   1.000  H
  H95      1.0000 0.89093  0.57174  0.96660  Biso   1.000  H
  H96      1.0000 0.89104  0.57174  0.96667  Biso   1.000  H
  H97      1.0000 0.89095  0.57166  0.96667  Biso   1.000  H
  H98      1.0000 0.89095  0.57174  0.96667  Biso   1.000  H
  H99      1.0000 0.82158  0.59966  0.05211  Biso   1.000  H
  H100     1.0000 0.97375  0.59771  0.06347  Biso   1.000  H
  H101     1.0000 0.97386  0.59771  0.06353  Biso   1.000  H
  H102     1.0000 0.82158  0.59974  0.05211  Biso   1.000  H
  H103     1.0000 0.97377  0.59771  0.06353  Biso   1.000  H
  C70      1.0000 0.11075  0.69469  0.93735  Biso   1.000  C
  N12      1.0000 0.02263  0.85546  0.90463  Biso   1.000  N
  N13      1.0000 0.02273  0.85546  0.90463  Biso   1.000  N
  N14      1.0000 0.02263  0.85554  0.90463  Biso   1.000  N
  N15      1.0000 0.02273  0.85554  0.90463  Biso   1.000  N
  C71      1.0000 0.18834  0.75410  0.88511  Biso   1.000  C
  C72      1.0000 0.18836  0.75410  0.88518  Biso   1.000  C
  C73      1.0000 0.39425  0.92907  0.89205  Biso   1.000  C
  C74      1.0000 0.39425  0.92915  0.89205  Biso   1.000  C
  C75      1.0000 0.36505  0.01867  0.75015  Biso   1.000  C
  C76      1.0000 0.36505  0.01875  0.75015  Biso   1.000  C
  C77      1.0000 0.99024  0.84881  0.68083  Biso   1.000  C
  H104     1.0000 0.11774  0.97273  0.66437  Biso   1.000  H
  H105     1.0000 0.18641  0.85846  0.68491  Biso   1.000  H
  H106     1.0000 0.18652  0.85846  0.68498  Biso   1.000  H
  H107     1.0000 0.18641  0.85855  0.68491  Biso   1.000  H
  H108     1.0000 0.18652  0.85855  0.68498  Biso   1.000  H
  H109     1.0000 0.18642  0.85846  0.68498  Biso   1.000  H
  H110     1.0000 0.18642  0.85855  0.68498  Biso   1.000  H
  H111     1.0000 0.12686  0.62352  0.96075  Biso   1.000  H
  H112     1.0000 0.96612  0.90902  0.89694  Biso   1.000  H
  H113     1.0000 0.96602  0.90902  0.89694  Biso   1.000  H
  H114     1.0000 0.26528  0.72951  0.86681  Biso   1.000  H
  H115     1.0000 0.26529  0.72951  0.86688  Biso   1.000  H
  H116     1.0000 0.26518  0.72951  0.86681  Biso   1.000  H
  H117     1.0000 0.26520  0.72951  0.86688  Biso   1.000  H
  H118     1.0000 0.36322  0.89028  0.93932  Biso   1.000  H
  C78      1.0000 0.52285  0.95350  0.89885  Biso   1.000  C
  H119     1.0000 0.36322  0.89036  0.93932  Biso   1.000  H
  C79      1.0000 0.49481  0.03969  0.76321  Biso   1.000  C
  H120     1.0000 0.31272  0.04317  0.69641  Biso   1.000  H
  C80      1.0000 0.49482  0.03969  0.76328  Biso   1.000  C
  H121     1.0000 0.31274  0.04317  0.69648  Biso   1.000  H
  H122     1.0000 0.31272  0.04326  0.69641  Biso   1.000  H
  H123     1.0000 0.31274  0.04326  0.69648  Biso   1.000  H
  H124     1.0000 0.98726  0.79159  0.72811  Biso   1.000  H
  C81      1.0000 0.98391  0.79111  0.58866  Biso   1.000  C
  C82      1.0000 0.87593  0.92209  0.68233  Biso   1.000  C
  H125     1.0000 0.98728  0.79159  0.72818  Biso   1.000  H
  C83      1.0000 0.98382  0.79111  0.58866  Biso   1.000  C
  H126     1.0000 0.57758  0.93021  0.95191  Biso   1.000  H
  H127     1.0000 0.57760  0.93021  0.95198  Biso   1.000  H
  H128     1.0000 0.57749  0.93021  0.95191  Biso   1.000  H
  H129     1.0000 0.57750  0.93021  0.95198  Biso   1.000  H
  N16      1.0000 0.57463  0.00706  0.83633  Biso   1.000  N
  N17      1.0000 0.57463  0.00714  0.83633  Biso   1.000  N
  H130     1.0000 0.52874  0.07937  0.71763  Biso   1.000  H
  H131     1.0000 0.52874  0.07945  0.71763  Biso   1.000  H
  H132     1.0000 0.98194  0.84483  0.53893  Biso   1.000  H
  H133     1.0000 0.90675  0.74493  0.57907  Biso   1.000  H
  C84      1.0000 0.97959  0.86804  0.50547  Biso   1.000  C
  H134     1.0000 0.05868  0.74266  0.59104  Biso   1.000  H
  H135     1.0000 0.05868  0.74274  0.59104  Biso   1.000  H
  H136     1.0000 0.05858  0.74266  0.59104  Biso   1.000  H
  H137     1.0000 0.05858  0.74274  0.59104  Biso   1.000  H
  H138     1.0000 0.88754  0.96486  0.73933  Biso   1.000  H
  H139     1.0000 0.86893  0.97346  0.63063  Biso   1.000  H
  C85      1.0000 0.75695  0.85619  0.67655  Biso   1.000  C
  H140     1.0000 0.88754  0.96494  0.73933  Biso   1.000  H
  H141     1.0000 0.86893  0.97354  0.63063  Biso   1.000  H
  H142     1.0000 0.79758  0.87786  0.67818  Biso   1.000  H
  H143     1.0000 0.91104  0.92112  0.50574  Biso   1.000  H
  H144     1.0000 0.96398  0.82543  0.44914  Biso   1.000  H
  H145     1.0000 0.06126  0.90610  0.50887  Biso   1.000  H
  H146     1.0000 0.73627  0.82527  0.61546  Biso   1.000  H
  H147     1.0000 0.68678  0.90269  0.68906  Biso   1.000  H
  H148     1.0000 0.76984  0.79752  0.72144  Biso   1.000  H
  H149     1.0000 0.73627  0.82535  0.61546  Biso   1.000  H
  N18      1.0000 0.97745  0.14454  0.09530  Biso   1.000  N
  C86      1.0000 0.86762  0.14640  0.13408  Biso   1.000  C
  C87      1.0000 0.86763  0.14640  0.13414  Biso   1.000  C
  H150     1.0000 0.03396  0.09098  0.10299  Biso   1.000  H
  H151     1.0000 0.03396  0.09106  0.10299  Biso   1.000  H
  C88      1.0000 0.99162  0.24152  0.05197  Biso   1.000  C
  C89      1.0000 0.99164  0.24152  0.05204  Biso   1.000  C
  C90      1.0000 0.99153  0.24152  0.05197  Biso   1.000  C
  C91      1.0000 0.99154  0.24152  0.05204  Biso   1.000  C
  C92      1.0000 0.83494  0.05730  0.19611  Biso   1.000  C
  C93      1.0000 0.83485  0.05730  0.19611  Biso   1.000  C
  C94      1.0000 0.81174  0.24590  0.11482  Biso   1.000  C
  N19      1.0000 0.97746  0.14454  0.09537  Biso   1.000  N
  C95      1.0000 0.81164  0.24590  0.11482  Biso   1.000  C
  N20      1.0000 0.97735  0.14454  0.09530  Biso   1.000  N
  N21      1.0000 0.97737  0.14454  0.09537  Biso   1.000  N
  C96      1.0000 0.88933  0.30531  0.06258  Biso   1.000  C
  C97      1.0000 0.88934  0.30531  0.06265  Biso   1.000  C
  C98      1.0000 0.88923  0.30531  0.06258  Biso   1.000  C
  C99      1.0000 0.88925  0.30531  0.06265  Biso   1.000  C
  C100     1.0000 0.10397  0.26392  0.00252  Biso   1.000  C
  C101     1.0000 0.87952  0.09284  0.29679  Biso   1.000  C
  C102     1.0000 0.88807  0.94790  0.17387  Biso   1.000  C
  C103     1.0000 0.88809  0.94790  0.17394  Biso   1.000  C
  C104     1.0000 0.68868  0.03847  0.18421  Biso   1.000  C
  C105     1.0000 0.68868  0.03855  0.18421  Biso   1.000  C
  H152     1.0000 0.73480  0.27049  0.13312  Biso   1.000  H
  H153     1.0000 0.87322  0.37648  0.03918  Biso   1.000  H
  H154     1.0000 0.87323  0.37648  0.03925  Biso   1.000  H
  H155     1.0000 0.87322  0.37656  0.03918  Biso   1.000  H
  H156     1.0000 0.87323  0.37656  0.03925  Biso   1.000  H
  H157     1.0000 0.87313  0.37648  0.03918  Biso   1.000  H
  H158     1.0000 0.87314  0.37648  0.03925  Biso   1.000  H
  H159     1.0000 0.87313  0.37656  0.03918  Biso   1.000  H
  H160     1.0000 0.87314  0.37656  0.03925  Biso   1.000  H
  C106     1.0000 0.22841  0.23973  0.06687  Biso   1.000  C
  C107     1.0000 0.22842  0.23973  0.06694  Biso   1.000  C
  C108     1.0000 0.22831  0.23973  0.06687  Biso   1.000  C
  C109     1.0000 0.22833  0.23973  0.06694  Biso   1.000  C
  C110     1.0000 0.09398  0.19810  0.91524  Biso   1.000  C
  C111     1.0000 0.10461  0.38460  0.97776  Biso   1.000  C
  C112     1.0000 0.10452  0.38460  0.97776  Biso   1.000  C
  C113     1.0000 0.00984  0.15119  0.31910  Biso   1.000  C
  C114     1.0000 0.00974  0.15119  0.31910  Biso   1.000  C
  H161     1.0000 0.88234  0.02727  0.33556  Biso   1.000  H
  H162     1.0000 0.81367  0.14154  0.31502  Biso   1.000  H
  H163     1.0000 0.88236  0.02727  0.33563  Biso   1.000  H
  H164     1.0000 0.88234  0.02735  0.33556  Biso   1.000  H
  H165     1.0000 0.88236  0.02735  0.33563  Biso   1.000  H
  H166     1.0000 0.88225  0.02727  0.33556  Biso   1.000  H
  H167     1.0000 0.81358  0.14154  0.31502  Biso   1.000  H
  H168     1.0000 0.88226  0.02727  0.33563  Biso   1.000  H
  H169     1.0000 0.88225  0.02735  0.33556  Biso   1.000  H
  H170     1.0000 0.88226  0.02735  0.33563  Biso   1.000  H
  C115     1.0000 0.93810  0.86479  0.22829  Biso   1.000  C
  N22      1.0000 0.86768  0.90911  0.08591  Biso   1.000  N
  C116     1.0000 0.63503  0.98133  0.24978  Biso   1.000  C
  C117     1.0000 0.60583  0.07093  0.10789  Biso   1.000  C
  C118     1.0000 0.60574  0.07093  0.10789  Biso   1.000  C
  H171     1.0000 0.22776  0.16418  0.08761  Biso   1.000  H
  H172     1.0000 0.23561  0.28843  0.11952  Biso   1.000  H
  H173     1.0000 0.30111  0.25110  0.03449  Biso   1.000  H
  H174     1.0000 0.22776  0.16426  0.08761  Biso   1.000  H
  H175     1.0000 0.30102  0.25110  0.03449  Biso   1.000  H
  H176     1.0000 0.23552  0.28843  0.11952  Biso   1.000  H
  C119     1.0000 0.04974  0.22651  0.82756  Biso   1.000  C
  N23      1.0000 0.13240  0.09089  0.91402  Biso   1.000  N
  N24      1.0000 0.13242  0.09089  0.91409  Biso   1.000  N
  N25      1.0000 0.13231  0.09089  0.91402  Biso   1.000  N
  N26      1.0000 0.13232  0.09089  0.91409  Biso   1.000  N
  H177     1.0000 0.10915  0.42834  0.03333  Biso   1.000  H
  H178     1.0000 0.10905  0.42834  0.03333  Biso   1.000  H
  H179     1.0000 0.17850  0.40034  0.94783  Biso   1.000  H
  H180     1.0000 0.02633  0.40229  0.93647  Biso   1.000  H
  H181     1.0000 0.02633  0.40237  0.93647  Biso   1.000  H
  H182     1.0000 0.17840  0.40034  0.94783  Biso   1.000  H
  H183     1.0000 0.02623  0.40229  0.93647  Biso   1.000  H
  H184     1.0000 0.02623  0.40237  0.93647  Biso   1.000  H
  C120     1.0000 0.12415  0.07791  0.31760  Biso   1.000  C
  C121     1.0000 0.12406  0.07791  0.31760  Biso   1.000  C
  H185     1.0000 0.01282  0.20841  0.27182  Biso   1.000  H
  C122     1.0000 0.01617  0.20889  0.41127  Biso   1.000  C
  C123     1.0000 0.01626  0.20889  0.41127  Biso   1.000  C
  H186     1.0000 0.96095  0.86747  0.29250  Biso   1.000  H
  C124     1.0000 0.95034  0.77349  0.17237  Biso   1.000  C
  C125     1.0000 0.95036  0.77349  0.17244  Biso   1.000  C
  H187     1.0000 0.96095  0.86755  0.29250  Biso   1.000  H
  H188     1.0000 0.96086  0.86747  0.29250  Biso   1.000  H
  C126     1.0000 0.95025  0.77349  0.17237  Biso   1.000  C
  C127     1.0000 0.95026  0.77349  0.17244  Biso   1.000  C
  H189     1.0000 0.96086  0.86755  0.29250  Biso   1.000  H
  C128     1.0000 0.90610  0.80190  0.08469  Biso   1.000  C
  H190     1.0000 0.84204  0.95098  0.03598  Biso   1.000  H
  H191     1.0000 0.84204  0.95106  0.03598  Biso   1.000  H
  H192     1.0000 0.84195  0.95098  0.03598  Biso   1.000  H
  H193     1.0000 0.84195  0.95106  0.03598  Biso   1.000  H
  C129     1.0000 0.50527  0.96031  0.23672  Biso   1.000  C
  H194     1.0000 0.68736  0.95683  0.30352  Biso   1.000  H
  C130     1.0000 0.50518  0.96031  0.23672  Biso   1.000  C
  H195     1.0000 0.68726  0.95683  0.30352  Biso   1.000  H
  H196     1.0000 0.63686  0.10972  0.06061  Biso   1.000  H
  C131     1.0000 0.47722  0.04650  0.10108  Biso   1.000  C
  H197     1.0000 0.63676  0.10972  0.06061  Biso   1.000  H
  C132     1.0000 0.06198  0.13521  0.77164  Biso   1.000  C
  H198     1.0000 0.01666  0.29541  0.80756  Biso   1.000  H
  C133     1.0000 0.06188  0.13521  0.77164  Biso   1.000  C
  C134     1.0000 0.11201  0.05210  0.82606  Biso   1.000  C
  H199     1.0000 0.15804  0.04902  0.96395  Biso   1.000  H
  C135     1.0000 0.11191  0.05210  0.82606  Biso   1.000  C
  C136     1.0000 0.24313  0.14381  0.32339  Biso   1.000  C
  H200     1.0000 0.11254  0.03514  0.26060  Biso   1.000  H
  H201     1.0000 0.13115  0.02654  0.36930  Biso   1.000  H
  H202     1.0000 0.11244  0.03514  0.26060  Biso   1.000  H
  H203     1.0000 0.13106  0.02654  0.36930  Biso   1.000  H
  C137     1.0000 0.24304  0.14381  0.32339  Biso   1.000  C
  H204     1.0000 0.20251  0.12222  0.32182  Biso   1.000  H
  H205     1.0000 0.01814  0.15517  0.46100  Biso   1.000  H
  H206     1.0000 0.01814  0.15525  0.46100  Biso   1.000  H
  H207     1.0000 0.09334  0.25507  0.42093  Biso   1.000  H
  H208     1.0000 0.09334  0.25515  0.42093  Biso   1.000  H
  H209     1.0000 0.94140  0.25734  0.40889  Biso   1.000  H
  H210     1.0000 0.09333  0.25507  0.42086  Biso   1.000  H
  H211     1.0000 0.09333  0.25515  0.42086  Biso   1.000  H
  H212     1.0000 0.01804  0.15517  0.46100  Biso   1.000  H
  H213     1.0000 0.09323  0.25507  0.42086  Biso   1.000  H
  H214     1.0000 0.01804  0.15525  0.46100  Biso   1.000  H
  H215     1.0000 0.09323  0.25515  0.42086  Biso   1.000  H
  C138     1.0000 0.02040  0.13204  0.49447  Biso   1.000  C
  H216     1.0000 0.98342  0.70459  0.19237  Biso   1.000  H
  H217     1.0000 0.98343  0.70459  0.19244  Biso   1.000  H
  H218     1.0000 0.98332  0.70459  0.19237  Biso   1.000  H
  C139     1.0000 0.89611  0.73608  0.99742  Biso   1.000  C
  C140     1.0000 0.89612  0.73608  0.99748  Biso   1.000  C
  C141     1.0000 0.89601  0.73608  0.99742  Biso   1.000  C
  C142     1.0000 0.89603  0.73608  0.99748  Biso   1.000  C
  H219     1.0000 0.47134  0.92063  0.28230  Biso   1.000  H
  N27      1.0000 0.42545  0.99294  0.16360  Biso   1.000  N
  N28      1.0000 0.42536  0.99294  0.16360  Biso   1.000  N
  H220     1.0000 0.42250  0.06979  0.04802  Biso   1.000  H
  H221     1.0000 0.03913  0.13253  0.70743  Biso   1.000  H
  C143     1.0000 0.16514  0.94270  0.80382  Biso   1.000  C
  C144     1.0000 0.16515  0.94270  0.80389  Biso   1.000  C
  H222     1.0000 0.23024  0.20248  0.27849  Biso   1.000  H
  H223     1.0000 0.26381  0.17473  0.38447  Biso   1.000  H
  H224     1.0000 0.31330  0.09731  0.31087  Biso   1.000  H
  H225     1.0000 0.26382  0.17473  0.38454  Biso   1.000  H
  H226     1.0000 0.31332  0.09731  0.31094  Biso   1.000  H
  H227     1.0000 0.23024  0.20256  0.27849  Biso   1.000  H
  H228     1.0000 0.23015  0.20248  0.27849  Biso   1.000  H
  H229     1.0000 0.23015  0.20256  0.27849  Biso   1.000  H
  H230     1.0000 0.93882  0.09390  0.49107  Biso   1.000  H
  H231     1.0000 0.08904  0.07888  0.49419  Biso   1.000  H
  H232     1.0000 0.03601  0.17457  0.55079  Biso   1.000  H
  C145     1.0000 0.77167  0.76027  0.93306  Biso   1.000  C
  C146     1.0000 0.77167  0.76035  0.93306  Biso   1.000  C
  C147     1.0000 0.89547  0.61540  0.02218  Biso   1.000  C
  C148     1.0000 0.89548  0.61540  0.02224  Biso   1.000  C
  C149     1.0000 0.00846  0.75848  0.94796  Biso   1.000  C
  C150     1.0000 0.13246  0.85360  0.86586  Biso   1.000  C
  C151     1.0000 0.31140  0.96153  0.81572  Biso   1.000  C
  C152     1.0000 0.12056  0.90716  0.70314  Biso   1.000  C
  C153     1.0000 0.12056  0.90724  0.70314  Biso   1.000  C
  C154     1.0000 0.31130  0.96153  0.81572  Biso   1.000  C
  H233     1.0000 0.77232  0.83582  0.91232  Biso   1.000  H
  H234     1.0000 0.76447  0.71157  0.88041  Biso   1.000  H
  H235     1.0000 0.69897  0.74890  0.96544  Biso   1.000  H
  H236     1.0000 0.77234  0.83582  0.91239  Biso   1.000  H
  H237     1.0000 0.76448  0.71157  0.88048  Biso   1.000  H
  H238     1.0000 0.76447  0.71165  0.88041  Biso   1.000  H
  H239     1.0000 0.76448  0.71165  0.88048  Biso   1.000  H
  H240     1.0000 0.77223  0.83582  0.91232  Biso   1.000  H
  H241     1.0000 0.77224  0.83582  0.91239  Biso   1.000  H
  H242     1.0000 0.89093  0.57166  0.96660  Biso   1.000  H
  H243     1.0000 0.89104  0.57166  0.96667  Biso   1.000  H
  H244     1.0000 0.89093  0.57174  0.96660  Biso   1.000  H
  H245     1.0000 0.89104  0.57174  0.96667  Biso   1.000  H
  H246     1.0000 0.89095  0.57166  0.96667  Biso   1.000  H
  H247     1.0000 0.89095  0.57174  0.96667  Biso   1.000  H
  H248     1.0000 0.82158  0.59966  0.05211  Biso   1.000  H
  H249     1.0000 0.97375  0.59771  0.06347  Biso   1.000  H
  H250     1.0000 0.97386  0.59771  0.06353  Biso   1.000  H
  H251     1.0000 0.82158  0.59974  0.05211  Biso   1.000  H
  H252     1.0000 0.97377  0.59771  0.06353  Biso   1.000  H
  C155     1.0000 0.11075  0.69469  0.93735  Biso   1.000  C
  N29      1.0000 0.02263  0.85546  0.90463  Biso   1.000  N
  N30      1.0000 0.02273  0.85546  0.90463  Biso   1.000  N
  N31      1.0000 0.02263  0.85554  0.90463  Biso   1.000  N
  N32      1.0000 0.02273  0.85554  0.90463  Biso   1.000  N
  C156     1.0000 0.18834  0.75410  0.88511  Biso   1.000  C
  C157     1.0000 0.18836  0.75410  0.88518  Biso   1.000  C
  C158     1.0000 0.39425  0.92907  0.89205  Biso   1.000  C
  C159     1.0000 0.39425  0.92915  0.89205  Biso   1.000  C
  C160     1.0000 0.36505  0.01867  0.75015  Biso   1.000  C
  C161     1.0000 0.36505  0.01875  0.75015  Biso   1.000  C
  C162     1.0000 0.99024  0.84881  0.68083  Biso   1.000  C
  H253     1.0000 0.11774  0.97273  0.66437  Biso   1.000  H
  H254     1.0000 0.18641  0.85846  0.68491  Biso   1.000  H
  H255     1.0000 0.18652  0.85846  0.68498  Biso   1.000  H
  H256     1.0000 0.18641  0.85855  0.68491  Biso   1.000  H
  H257     1.0000 0.18652  0.85855  0.68498  Biso   1.000  H
  H258     1.0000 0.18642  0.85846  0.68498  Biso   1.000  H
  H259     1.0000 0.18642  0.85855  0.68498  Biso   1.000  H
  H260     1.0000 0.12686  0.62352  0.96075  Biso   1.000  H
  H261     1.0000 0.96612  0.90902  0.89694  Biso   1.000  H
  H262     1.0000 0.96602  0.90902  0.89694  Biso   1.000  H
  H263     1.0000 0.26528  0.72951  0.86681  Biso   1.000  H
  H264     1.0000 0.26529  0.72951  0.86688  Biso   1.000  H
  H265     1.0000 0.26518  0.72951  0.86681  Biso   1.000  H
  H266     1.0000 0.26520  0.72951  0.86688  Biso   1.000  H
  H267     1.0000 0.36322  0.89028  0.93932  Biso   1.000  H
  C163     1.0000 0.52285  0.95350  0.89885  Biso   1.000  C
  H268     1.0000 0.36322  0.89036  0.93932  Biso   1.000  H
  C164     1.0000 0.49481  0.03969  0.76321  Biso   1.000  C
  H269     1.0000 0.31272  0.04317  0.69641  Biso   1.000  H
  C165     1.0000 0.49482  0.03969  0.76328  Biso   1.000  C
  H270     1.0000 0.31274  0.04317  0.69648  Biso   1.000  H
  H271     1.0000 0.31272  0.04326  0.69641  Biso   1.000  H
  H272     1.0000 0.31274  0.04326  0.69648  Biso   1.000  H
  H273     1.0000 0.98726  0.79159  0.72811  Biso   1.000  H
  C166     1.0000 0.98391  0.79111  0.58866  Biso   1.000  C
  C167     1.0000 0.87593  0.92209  0.68233  Biso   1.000  C
  H274     1.0000 0.98728  0.79159  0.72818  Biso   1.000  H
  C168     1.0000 0.98382  0.79111  0.58866  Biso   1.000  C
  H275     1.0000 0.57758  0.93021  0.95191  Biso   1.000  H
  H276     1.0000 0.57760  0.93021  0.95198  Biso   1.000  H
  H277     1.0000 0.57749  0.93021  0.95191  Biso   1.000  H
  H278     1.0000 0.57750  0.93021  0.95198  Biso   1.000  H
  N33      1.0000 0.57463  0.00706  0.83633  Biso   1.000  N
  N34      1.0000 0.57463  0.00714  0.83633  Biso   1.000  N
  H279     1.0000 0.52874  0.07937  0.71763  Biso   1.000  H
  H280     1.0000 0.52874  0.07945  0.71763  Biso   1.000  H
  H281     1.0000 0.98194  0.84483  0.53893  Biso   1.000  H
  H282     1.0000 0.90675  0.74493  0.57907  Biso   1.000  H
  C169     1.0000 0.97959  0.86804  0.50547  Biso   1.000  C
  H283     1.0000 0.05868  0.74266  0.59104  Biso   1.000  H
  H284     1.0000 0.05868  0.74274  0.59104  Biso   1.000  H
  H285     1.0000 0.05858  0.74266  0.59104  Biso   1.000  H
  H286     1.0000 0.05858  0.74274  0.59104  Biso   1.000  H
  H287     1.0000 0.88754  0.96486  0.73933  Biso   1.000  H
  H288     1.0000 0.86893  0.97346  0.63063  Biso   1.000  H
  C170     1.0000 0.75695  0.85619  0.67655  Biso   1.000  C
  H289     1.0000 0.88754  0.96494  0.73933  Biso   1.000  H
  H290     1.0000 0.86893  0.97354  0.63063  Biso   1.000  H
  H291     1.0000 0.79758  0.87786  0.67818  Biso   1.000  H
  H292     1.0000 0.91104  0.92112  0.50574  Biso   1.000  H
  H293     1.0000 0.96398  0.82543  0.44914  Biso   1.000  H
  H294     1.0000 0.06126  0.90610  0.50887  Biso   1.000  H
  H295     1.0000 0.73627  0.82527  0.61546  Biso   1.000  H
  H296     1.0000 0.68678  0.90269  0.68906  Biso   1.000  H
  H297     1.0000 0.76984  0.79752  0.72144  Biso   1.000  H
  H298     1.0000 0.73627  0.82535  0.61546  Biso   1.000  H
  N35      1.0000 0.97745  0.14454  0.09530  Biso   1.000  N
  C171     1.0000 0.86762  0.14640  0.13408  Biso   1.000  C
  C172     1.0000 0.86763  0.14640  0.13414  Biso   1.000  C
  H299     1.0000 0.03396  0.09098  0.10299  Biso   1.000  H
  H300     1.0000 0.03396  0.09106  0.10299  Biso   1.000  H
  C173     1.0000 0.99162  0.24152  0.05197  Biso   1.000  C
  C174     1.0000 0.99164  0.24152  0.05204  Biso   1.000  C
  C175     1.0000 0.99153  0.24152  0.05197  Biso   1.000  C
  C176     1.0000 0.99154  0.24152  0.05204  Biso   1.000  C
  C177     1.0000 0.83494  0.05730  0.19611  Biso   1.000  C
  C178     1.0000 0.83485  0.05730  0.19611  Biso   1.000  C
  C179     1.0000 0.81174  0.24590  0.11482  Biso   1.000  C
  N36      1.0000 0.97746  0.14454  0.09537  Biso   1.000  N
  C180     1.0000 0.81164  0.24590  0.11482  Biso   1.000  C
  N37      1.0000 0.97735  0.14454  0.09530  Biso   1.000  N
  N38      1.0000 0.97737  0.14454  0.09537  Biso   1.000  N
  C181     1.0000 0.88933  0.30531  0.06258  Biso   1.000  C
  C182     1.0000 0.88934  0.30531  0.06265  Biso   1.000  C
  C183     1.0000 0.88923  0.30531  0.06258  Biso   1.000  C
  C184     1.0000 0.88925  0.30531  0.06265  Biso   1.000  C
  C185     1.0000 0.10397  0.26392  0.00252  Biso   1.000  C
  C186     1.0000 0.87952  0.09284  0.29679  Biso   1.000  C
  C187     1.0000 0.88807  0.94790  0.17387  Biso   1.000  C
  C188     1.0000 0.88809  0.94790  0.17394  Biso   1.000  C
  C189     1.0000 0.68868  0.03847  0.18421  Biso   1.000  C
  C190     1.0000 0.68868  0.03855  0.18421  Biso   1.000  C
  H301     1.0000 0.73480  0.27049  0.13312  Biso   1.000  H
  H302     1.0000 0.87322  0.37648  0.03918  Biso   1.000  H
  H303     1.0000 0.87323  0.37648  0.03925  Biso   1.000  H
  H304     1.0000 0.87322  0.37656  0.03918  Biso   1.000  H
  H305     1.0000 0.87323  0.37656  0.03925  Biso   1.000  H
  H306     1.0000 0.87313  0.37648  0.03918  Biso   1.000  H
  H307     1.0000 0.87314  0.37648  0.03925  Biso   1.000  H
  H308     1.0000 0.87313  0.37656  0.03918  Biso   1.000  H
  H309     1.0000 0.87314  0.37656  0.03925  Biso   1.000  H
  C191     1.0000 0.09398  0.19810  0.91524  Biso   1.000  C
  C192     1.0000 0.10461  0.38460  0.97776  Biso   1.000  C
  C193     1.0000 0.10452  0.38460  0.97776  Biso   1.000  C
  C194     1.0000 0.22841  0.23973  0.06687  Biso   1.000  C
  C195     1.0000 0.22842  0.23973  0.06694  Biso   1.000  C
  C196     1.0000 0.22831  0.23973  0.06687  Biso   1.000  C
  C197     1.0000 0.22833  0.23973  0.06694  Biso   1.000  C
  C198     1.0000 0.00984  0.15119  0.31910  Biso   1.000  C
  C199     1.0000 0.00974  0.15119  0.31910  Biso   1.000  C
  H310     1.0000 0.88234  0.02727  0.33556  Biso   1.000  H
  H311     1.0000 0.81367  0.14154  0.31502  Biso   1.000  H
  H312     1.0000 0.88236  0.02727  0.33563  Biso   1.000  H
  H313     1.0000 0.88234  0.02735  0.33556  Biso   1.000  H
  H314     1.0000 0.88236  0.02735  0.33563  Biso   1.000  H
  H315     1.0000 0.88225  0.02727  0.33556  Biso   1.000  H
  H316     1.0000 0.81358  0.14154  0.31502  Biso   1.000  H
  H317     1.0000 0.88226  0.02727  0.33563  Biso   1.000  H
  H318     1.0000 0.88225  0.02735  0.33556  Biso   1.000  H
  H319     1.0000 0.88226  0.02735  0.33563  Biso   1.000  H
  C200     1.0000 0.93810  0.86479  0.22829  Biso   1.000  C
  N39      1.0000 0.86768  0.90911  0.08591  Biso   1.000  N
  C201     1.0000 0.63503  0.98133  0.24978  Biso   1.000  C
  C202     1.0000 0.60583  0.07093  0.10789  Biso   1.000  C
  C203     1.0000 0.60574  0.07093  0.10789  Biso   1.000  C
  C204     1.0000 0.04974  0.22651  0.82756  Biso   1.000  C
  N40      1.0000 0.13240  0.09089  0.91402  Biso   1.000  N
  N41      1.0000 0.13242  0.09089  0.91409  Biso   1.000  N
  N42      1.0000 0.13231  0.09089  0.91402  Biso   1.000  N
  N43      1.0000 0.13232  0.09089  0.91409  Biso   1.000  N
  H320     1.0000 0.10915  0.42834  0.03333  Biso   1.000  H
  H321     1.0000 0.10905  0.42834  0.03333  Biso   1.000  H
  H322     1.0000 0.17850  0.40034  0.94783  Biso   1.000  H
  H323     1.0000 0.02633  0.40229  0.93647  Biso   1.000  H
  H324     1.0000 0.02633  0.40237  0.93647  Biso   1.000  H
  H325     1.0000 0.17840  0.40034  0.94783  Biso   1.000  H
  H326     1.0000 0.02623  0.40229  0.93647  Biso   1.000  H
  H327     1.0000 0.02623  0.40237  0.93647  Biso   1.000  H
  H328     1.0000 0.23561  0.28843  0.11952  Biso   1.000  H
  H329     1.0000 0.30111  0.25110  0.03449  Biso   1.000  H
  H330     1.0000 0.22776  0.16418  0.08761  Biso   1.000  H
  H331     1.0000 0.22776  0.16426  0.08761  Biso   1.000  H
  H332     1.0000 0.30102  0.25110  0.03449  Biso   1.000  H
  H333     1.0000 0.23552  0.28843  0.11952  Biso   1.000  H
  C205     1.0000 0.12415  0.07791  0.31760  Biso   1.000  C
  C206     1.0000 0.12406  0.07791  0.31760  Biso   1.000  C
  H334     1.0000 0.01282  0.20841  0.27182  Biso   1.000  H
  C207     1.0000 0.01617  0.20889  0.41127  Biso   1.000  C
  C208     1.0000 0.01626  0.20889  0.41127  Biso   1.000  C
  H335     1.0000 0.96095  0.86747  0.29250  Biso   1.000  H
  C209     1.0000 0.95034  0.77349  0.17237  Biso   1.000  C
  C210     1.0000 0.95036  0.77349  0.17244  Biso   1.000  C
  H336     1.0000 0.96095  0.86755  0.29250  Biso   1.000  H
  H337     1.0000 0.96086  0.86747  0.29250  Biso   1.000  H
  C211     1.0000 0.95025  0.77349  0.17237  Biso   1.000  C
  C212     1.0000 0.95026  0.77349  0.17244  Biso   1.000  C
  H338     1.0000 0.96086  0.86755  0.29250  Biso   1.000  H
  C213     1.0000 0.90610  0.80190  0.08469  Biso   1.000  C
  H339     1.0000 0.84204  0.95098  0.03598  Biso   1.000  H
  H340     1.0000 0.84204  0.95106  0.03598  Biso   1.000  H
  H341     1.0000 0.84195  0.95098  0.03598  Biso   1.000  H
  H342     1.0000 0.84195  0.95106  0.03598  Biso   1.000  H
  C214     1.0000 0.50527  0.96031  0.23672  Biso   1.000  C
  H343     1.0000 0.68736  0.95683  0.30352  Biso   1.000  H
  C215     1.0000 0.50518  0.96031  0.23672  Biso   1.000  C
  H344     1.0000 0.68726  0.95683  0.30352  Biso   1.000  H
  H345     1.0000 0.63686  0.10972  0.06061  Biso   1.000  H
  C216     1.0000 0.47722  0.04650  0.10108  Biso   1.000  C
  H346     1.0000 0.63676  0.10972  0.06061  Biso   1.000  H
  C217     1.0000 0.06198  0.13521  0.77164  Biso   1.000  C
  H347     1.0000 0.01666  0.29541  0.80756  Biso   1.000  H
  C218     1.0000 0.06188  0.13521  0.77164  Biso   1.000  C
  C219     1.0000 0.11201  0.05210  0.82606  Biso   1.000  C
  H348     1.0000 0.15804  0.04902  0.96395  Biso   1.000  H
  C220     1.0000 0.11191  0.05210  0.82606  Biso   1.000  C
  C221     1.0000 0.24313  0.14381  0.32339  Biso   1.000  C
  H349     1.0000 0.11254  0.03514  0.26060  Biso   1.000  H
  H350     1.0000 0.13115  0.02654  0.36930  Biso   1.000  H
  H351     1.0000 0.11244  0.03514  0.26060  Biso   1.000  H
  H352     1.0000 0.13106  0.02654  0.36930  Biso   1.000  H
  C222     1.0000 0.24304  0.14381  0.32339  Biso   1.000  C
  H353     1.0000 0.20251  0.12222  0.32182  Biso   1.000  H
  H354     1.0000 0.01814  0.15517  0.46100  Biso   1.000  H
  H355     1.0000 0.01814  0.15525  0.46100  Biso   1.000  H
  H356     1.0000 0.94140  0.25734  0.40889  Biso   1.000  H
  H357     1.0000 0.09333  0.25507  0.42086  Biso   1.000  H
  H358     1.0000 0.09334  0.25507  0.42093  Biso   1.000  H
  H359     1.0000 0.09333  0.25515  0.42086  Biso   1.000  H
  H360     1.0000 0.09334  0.25515  0.42093  Biso   1.000  H
  H361     1.0000 0.01804  0.15517  0.46100  Biso   1.000  H
  H362     1.0000 0.09323  0.25507  0.42086  Biso   1.000  H
  H363     1.0000 0.01804  0.15525  0.46100  Biso   1.000  H
  H364     1.0000 0.09323  0.25515  0.42086  Biso   1.000  H
  C223     1.0000 0.02040  0.13204  0.49447  Biso   1.000  C
  H365     1.0000 0.98342  0.70459  0.19237  Biso   1.000  H
  H366     1.0000 0.98343  0.70459  0.19244  Biso   1.000  H
  H367     1.0000 0.98332  0.70459  0.19237  Biso   1.000  H
  C224     1.0000 0.89611  0.73608  0.99742  Biso   1.000  C
  C225     1.0000 0.89612  0.73608  0.99748  Biso   1.000  C
  C226     1.0000 0.89601  0.73608  0.99742  Biso   1.000  C
  C227     1.0000 0.89603  0.73608  0.99748  Biso   1.000  C
  H368     1.0000 0.47134  0.92063  0.28230  Biso   1.000  H
  N44      1.0000 0.42545  0.99294  0.16360  Biso   1.000  N
  N45      1.0000 0.42536  0.99294  0.16360  Biso   1.000  N
  H369     1.0000 0.42250  0.06979  0.04802  Biso   1.000  H
  H370     1.0000 0.03913  0.13253  0.70743  Biso   1.000  H
  C228     1.0000 0.16514  0.94270  0.80382  Biso   1.000  C
  C229     1.0000 0.16515  0.94270  0.80389  Biso   1.000  C
  H371     1.0000 0.26381  0.17473  0.38447  Biso   1.000  H
  H372     1.0000 0.31330  0.09731  0.31087  Biso   1.000  H
  H373     1.0000 0.26382  0.17473  0.38454  Biso   1.000  H
  H374     1.0000 0.31332  0.09731  0.31094  Biso   1.000  H
  H375     1.0000 0.23024  0.20248  0.27849  Biso   1.000  H
  H376     1.0000 0.23024  0.20256  0.27849  Biso   1.000  H
  H377     1.0000 0.23015  0.20248  0.27849  Biso   1.000  H
  H378     1.0000 0.23015  0.20256  0.27849  Biso   1.000  H
  H379     1.0000 0.93882  0.09390  0.49107  Biso   1.000  H
  H380     1.0000 0.08904  0.07888  0.49419  Biso   1.000  H
  H381     1.0000 0.03601  0.17457  0.55079  Biso   1.000  H
  C230     1.0000 0.77167  0.76027  0.93306  Biso   1.000  C
  C231     1.0000 0.77167  0.76035  0.93306  Biso   1.000  C
  C232     1.0000 0.89547  0.61540  0.02218  Biso   1.000  C
  C233     1.0000 0.89548  0.61540  0.02224  Biso   1.000  C
  C234     1.0000 0.00846  0.75848  0.94796  Biso   1.000  C
  C235     1.0000 0.13246  0.85360  0.86586  Biso   1.000  C
  C236     1.0000 0.31140  0.96153  0.81572  Biso   1.000  C
  C237     1.0000 0.12056  0.90716  0.70314  Biso   1.000  C
  C238     1.0000 0.12056  0.90724  0.70314  Biso   1.000  C
  C239     1.0000 0.31130  0.96153  0.81572  Biso   1.000  C
  H382     1.0000 0.77232  0.83582  0.91232  Biso   1.000  H
  H383     1.0000 0.76447  0.71157  0.88041  Biso   1.000  H
  H384     1.0000 0.69897  0.74890  0.96544  Biso   1.000  H
  H385     1.0000 0.77234  0.83582  0.91239  Biso   1.000  H
  H386     1.0000 0.76448  0.71157  0.88048  Biso   1.000  H
  H387     1.0000 0.76447  0.71165  0.88041  Biso   1.000  H
  H388     1.0000 0.76448  0.71165  0.88048  Biso   1.000  H
  H389     1.0000 0.77223  0.83582  0.91232  Biso   1.000  H
  H390     1.0000 0.77224  0.83582  0.91239  Biso   1.000  H
  H391     1.0000 0.89093  0.57166  0.96660  Biso   1.000  H
  H392     1.0000 0.89104  0.57166  0.96667  Biso   1.000  H
  H393     1.0000 0.89093  0.57174  0.96660  Biso   1.000  H
  H394     1.0000 0.89104  0.57174  0.96667  Biso   1.000  H
  H395     1.0000 0.89095  0.57166  0.96667  Biso   1.000  H
  H396     1.0000 0.89095  0.57174  0.96667  Biso   1.000  H
  H397     1.0000 0.82158  0.59966  0.05211  Biso   1.000  H
  H398     1.0000 0.97375  0.59771  0.06347  Biso   1.000  H
  H399     1.0000 0.97386  0.59771  0.06353  Biso   1.000  H
  H400     1.0000 0.82158  0.59974  0.05211  Biso   1.000  H
  H401     1.0000 0.97377  0.59771  0.06353  Biso   1.000  H
  C240     1.0000 0.11075  0.69469  0.93735  Biso   1.000  C
  N46      1.0000 0.02263  0.85546  0.90463  Biso   1.000  N
  N47      1.0000 0.02273  0.85546  0.90463  Biso   1.000  N
  N48      1.0000 0.02263  0.85554  0.90463  Biso   1.000  N
  N49      1.0000 0.02273  0.85554  0.90463  Biso   1.000  N
  C241     1.0000 0.18834  0.75410  0.88511  Biso   1.000  C
  C242     1.0000 0.18836  0.75410  0.88518  Biso   1.000  C
  C243     1.0000 0.39425  0.92907  0.89205  Biso   1.000  C
  C244     1.0000 0.39425  0.92915  0.89205  Biso   1.000  C
  C245     1.0000 0.36505  0.01867  0.75015  Biso   1.000  C
  C246     1.0000 0.36505  0.01875  0.75015  Biso   1.000  C
  C247     1.0000 0.99024  0.84881  0.68083  Biso   1.000  C
  H402     1.0000 0.11774  0.97273  0.66437  Biso   1.000  H
  H403     1.0000 0.18641  0.85846  0.68491  Biso   1.000  H
  H404     1.0000 0.18652  0.85846  0.68498  Biso   1.000  H
  H405     1.0000 0.18641  0.85855  0.68491  Biso   1.000  H
  H406     1.0000 0.18652  0.85855  0.68498  Biso   1.000  H
  H407     1.0000 0.18642  0.85846  0.68498  Biso   1.000  H
  H408     1.0000 0.18642  0.85855  0.68498  Biso   1.000  H
  H409     1.0000 0.12686  0.62352  0.96075  Biso   1.000  H
  H410     1.0000 0.96612  0.90902  0.89694  Biso   1.000  H
  H411     1.0000 0.96602  0.90902  0.89694  Biso   1.000  H
  H412     1.0000 0.26528  0.72951  0.86681  Biso   1.000  H
  H413     1.0000 0.26529  0.72951  0.86688  Biso   1.000  H
  H414     1.0000 0.26518  0.72951  0.86681  Biso   1.000  H
  H415     1.0000 0.26520  0.72951  0.86688  Biso   1.000  H
  H416     1.0000 0.36322  0.89028  0.93932  Biso   1.000  H
  C248     1.0000 0.52285  0.95350  0.89885  Biso   1.000  C
  H417     1.0000 0.36322  0.89036  0.93932  Biso   1.000  H
  C249     1.0000 0.49481  0.03969  0.76321  Biso   1.000  C
  H418     1.0000 0.31272  0.04317  0.69641  Biso   1.000  H
  C250     1.0000 0.49482  0.03969  0.76328  Biso   1.000  C
  H419     1.0000 0.31274  0.04317  0.69648  Biso   1.000  H
  H420     1.0000 0.31272  0.04326  0.69641  Biso   1.000  H
  H421     1.0000 0.31274  0.04326  0.69648  Biso   1.000  H
  H422     1.0000 0.98726  0.79159  0.72811  Biso   1.000  H
  C251     1.0000 0.98391  0.79111  0.58866  Biso   1.000  C
  C252     1.0000 0.87593  0.92209  0.68233  Biso   1.000  C
  H423     1.0000 0.98728  0.79159  0.72818  Biso   1.000  H
  C253     1.0000 0.98382  0.79111  0.58866  Biso   1.000  C
  H424     1.0000 0.57758  0.93021  0.95191  Biso   1.000  H
  H425     1.0000 0.57760  0.93021  0.95198  Biso   1.000  H
  H426     1.0000 0.57749  0.93021  0.95191  Biso   1.000  H
  H427     1.0000 0.57750  0.93021  0.95198  Biso   1.000  H
  N50      1.0000 0.57463  0.00706  0.83633  Biso   1.000  N
  N51      1.0000 0.57463  0.00714  0.83633  Biso   1.000  N
  H428     1.0000 0.52874  0.07937  0.71763  Biso   1.000  H
  H429     1.0000 0.52874  0.07945  0.71763  Biso   1.000  H
  H430     1.0000 0.98194  0.84483  0.53893  Biso   1.000  H
  H431     1.0000 0.90675  0.74493  0.57907  Biso   1.000  H
  C254     1.0000 0.97959  0.86804  0.50547  Biso   1.000  C
  H432     1.0000 0.05868  0.74266  0.59104  Biso   1.000  H
  H433     1.0000 0.05868  0.74274  0.59104  Biso   1.000  H
  H434     1.0000 0.05858  0.74266  0.59104  Biso   1.000  H
  H435     1.0000 0.05858  0.74274  0.59104  Biso   1.000  H
  H436     1.0000 0.88754  0.96486  0.73933  Biso   1.000  H
  H437     1.0000 0.86893  0.97346  0.63063  Biso   1.000  H
  C255     1.0000 0.75695  0.85619  0.67655  Biso   1.000  C
  H438     1.0000 0.88754  0.96494  0.73933  Biso   1.000  H
  H439     1.0000 0.86893  0.97354  0.63063  Biso   1.000  H
  H440     1.0000 0.79758  0.87786  0.67818  Biso   1.000  H
  H441     1.0000 0.91104  0.92112  0.50574  Biso   1.000  H
  H442     1.0000 0.96398  0.82543  0.44914  Biso   1.000  H
  H443     1.0000 0.06126  0.90610  0.50887  Biso   1.000  H
  H444     1.0000 0.73627  0.82527  0.61546  Biso   1.000  H
  H445     1.0000 0.68678  0.90269  0.68906  Biso   1.000  H
  H446     1.0000 0.76984  0.79752  0.72144  Biso   1.000  H
  H447     1.0000 0.73627  0.82535  0.61546  Biso   1.000  H
  N52      1.0000 0.97745  0.14454  0.09530  Biso   1.000  N
  C256     1.0000 0.86762  0.14640  0.13408  Biso   1.000  C
  C257     1.0000 0.86763  0.14640  0.13414  Biso   1.000  C
  H448     1.0000 0.03396  0.09098  0.10299  Biso   1.000  H
  H449     1.0000 0.03396  0.09106  0.10299  Biso   1.000  H
  C258     1.0000 0.99162  0.24152  0.05197  Biso   1.000  C
  C259     1.0000 0.99164  0.24152  0.05204  Biso   1.000  C
  C260     1.0000 0.99153  0.24152  0.05197  Biso   1.000  C
  C261     1.0000 0.99154  0.24152  0.05204  Biso   1.000  C
  C262     1.0000 0.83494  0.05730  0.19611  Biso   1.000  C
  C263     1.0000 0.83485  0.05730  0.19611  Biso   1.000  C
  C264     1.0000 0.81174  0.24590  0.11482  Biso   1.000  C
  N53      1.0000 0.97746  0.14454  0.09537  Biso   1.000  N
  C265     1.0000 0.81164  0.24590  0.11482  Biso   1.000  C
  N54      1.0000 0.97735  0.14454  0.09530  Biso   1.000  N
  N55      1.0000 0.97737  0.14454  0.09537  Biso   1.000  N
  C266     1.0000 0.88933  0.30531  0.06258  Biso   1.000  C
  C267     1.0000 0.88934  0.30531  0.06265  Biso   1.000  C
  C268     1.0000 0.88923  0.30531  0.06258  Biso   1.000  C
  C269     1.0000 0.88925  0.30531  0.06265  Biso   1.000  C
  C270     1.0000 0.10397  0.26392  0.00252  Biso   1.000  C
  C271     1.0000 0.87952  0.09284  0.29679  Biso   1.000  C
  C272     1.0000 0.88807  0.94790  0.17387  Biso   1.000  C
  C273     1.0000 0.88809  0.94790  0.17394  Biso   1.000  C
  C274     1.0000 0.68868  0.03847  0.18421  Biso   1.000  C
  C275     1.0000 0.68868  0.03855  0.18421  Biso   1.000  C
  H450     1.0000 0.73480  0.27049  0.13312  Biso   1.000  H
  H451     1.0000 0.87322  0.37648  0.03918  Biso   1.000  H
  H452     1.0000 0.87323  0.37648  0.03925  Biso   1.000  H
  H453     1.0000 0.87322  0.37656  0.03918  Biso   1.000  H
  H454     1.0000 0.87323  0.37656  0.03925  Biso   1.000  H
  H455     1.0000 0.87313  0.37648  0.03918  Biso   1.000  H
  H456     1.0000 0.87314  0.37648  0.03925  Biso   1.000  H
  H457     1.0000 0.87313  0.37656  0.03918  Biso   1.000  H
  H458     1.0000 0.87314  0.37656  0.03925  Biso   1.000  H
  C276     1.0000 0.09398  0.19810  0.91524  Biso   1.000  C
  C277     1.0000 0.10461  0.38460  0.97776  Biso   1.000  C
  C278     1.0000 0.10452  0.38460  0.97776  Biso   1.000  C
  C279     1.0000 0.22841  0.23973  0.06687  Biso   1.000  C
  C280     1.0000 0.22842  0.23973  0.06694  Biso   1.000  C
  C281     1.0000 0.22831  0.23973  0.06687  Biso   1.000  C
  C282     1.0000 0.22833  0.23973  0.06694  Biso   1.000  C
  C283     1.0000 0.00984  0.15119  0.31910  Biso   1.000  C
  C284     1.0000 0.00974  0.15119  0.31910  Biso   1.000  C
  H459     1.0000 0.88234  0.02727  0.33556  Biso   1.000  H
  H460     1.0000 0.81367  0.14154  0.31502  Biso   1.000  H
  H461     1.0000 0.88236  0.02727  0.33563  Biso   1.000  H
  H462     1.0000 0.88234  0.02735  0.33556  Biso   1.000  H
  H463     1.0000 0.88236  0.02735  0.33563  Biso   1.000  H
  H464     1.0000 0.88225  0.02727  0.33556  Biso   1.000  H
  H465     1.0000 0.81358  0.14154  0.31502  Biso   1.000  H
  H466     1.0000 0.88226  0.02727  0.33563  Biso   1.000  H
  H467     1.0000 0.88225  0.02735  0.33556  Biso   1.000  H
  H468     1.0000 0.88226  0.02735  0.33563  Biso   1.000  H
  C285     1.0000 0.93810  0.86479  0.22829  Biso   1.000  C
  N56      1.0000 0.86768  0.90911  0.08591  Biso   1.000  N
  C286     1.0000 0.63503  0.98133  0.24978  Biso   1.000  C
  C287     1.0000 0.60583  0.07093  0.10789  Biso   1.000  C
  C288     1.0000 0.60574  0.07093  0.10789  Biso   1.000  C
  C289     1.0000 0.04974  0.22651  0.82756  Biso   1.000  C
  N57      1.0000 0.13240  0.09089  0.91402  Biso   1.000  N
  N58      1.0000 0.13242  0.09089  0.91409  Biso   1.000  N
  N59      1.0000 0.13231  0.09089  0.91402  Biso   1.000  N
  N60      1.0000 0.13232  0.09089  0.91409  Biso   1.000  N
  H469     1.0000 0.10915  0.42834  0.03333  Biso   1.000  H
  H470     1.0000 0.10905  0.42834  0.03333  Biso   1.000  H
  H471     1.0000 0.17850  0.40034  0.94783  Biso   1.000  H
  H472     1.0000 0.02633  0.40229  0.93647  Biso   1.000  H
  H473     1.0000 0.02633  0.40237  0.93647  Biso   1.000  H
  H474     1.0000 0.17840  0.40034  0.94783  Biso   1.000  H
  H475     1.0000 0.02623  0.40229  0.93647  Biso   1.000  H
  H476     1.0000 0.02623  0.40237  0.93647  Biso   1.000  H
  H477     1.0000 0.23561  0.28843  0.11952  Biso   1.000  H
  H478     1.0000 0.30111  0.25110  0.03449  Biso   1.000  H
  H479     1.0000 0.22776  0.16418  0.08761  Biso   1.000  H
  H480     1.0000 0.22776  0.16426  0.08761  Biso   1.000  H
  H481     1.0000 0.30102  0.25110  0.03449  Biso   1.000  H
  H482     1.0000 0.23552  0.28843  0.11952  Biso   1.000  H
  C290     1.0000 0.12415  0.07791  0.31760  Biso   1.000  C
  C291     1.0000 0.12406  0.07791  0.31760  Biso   1.000  C
  H483     1.0000 0.01282  0.20841  0.27182  Biso   1.000  H
  C292     1.0000 0.01617  0.20889  0.41127  Biso   1.000  C
  C293     1.0000 0.01626  0.20889  0.41127  Biso   1.000  C
  H484     1.0000 0.96095  0.86747  0.29250  Biso   1.000  H
  C294     1.0000 0.95034  0.77349  0.17237  Biso   1.000  C
  C295     1.0000 0.95036  0.77349  0.17244  Biso   1.000  C
  H485     1.0000 0.96095  0.86755  0.29250  Biso   1.000  H
  H486     1.0000 0.96086  0.86747  0.29250  Biso   1.000  H
  C296     1.0000 0.95025  0.77349  0.17237  Biso   1.000  C
  C297     1.0000 0.95026  0.77349  0.17244  Biso   1.000  C
  H487     1.0000 0.96086  0.86755  0.29250  Biso   1.000  H
  C298     1.0000 0.90610  0.80190  0.08469  Biso   1.000  C
  H488     1.0000 0.84204  0.95098  0.03598  Biso   1.000  H
  H489     1.0000 0.84204  0.95106  0.03598  Biso   1.000  H
  H490     1.0000 0.84195  0.95098  0.03598  Biso   1.000  H
  H491     1.0000 0.84195  0.95106  0.03598  Biso   1.000  H
  C299     1.0000 0.50527  0.96031  0.23672  Biso   1.000  C
  H492     1.0000 0.68736  0.95683  0.30352  Biso   1.000  H
  C300     1.0000 0.50518  0.96031  0.23672  Biso   1.000  C
  H493     1.0000 0.68726  0.95683  0.30352  Biso   1.000  H
  H494     1.0000 0.63686  0.10972  0.06061  Biso   1.000  H
  C301     1.0000 0.47722  0.04650  0.10108  Biso   1.000  C
  H495     1.0000 0.63676  0.10972  0.06061  Biso   1.000  H
  C302     1.0000 0.06198  0.13521  0.77164  Biso   1.000  C
  H496     1.0000 0.01666  0.29541  0.80756  Biso   1.000  H
  C303     1.0000 0.06188  0.13521  0.77164  Biso   1.000  C
  C304     1.0000 0.11201  0.05210  0.82606  Biso   1.000  C
  H497     1.0000 0.15804  0.04902  0.96395  Biso   1.000  H
  C305     1.0000 0.11191  0.05210  0.82606  Biso   1.000  C
  C306     1.0000 0.24313  0.14381  0.32339  Biso   1.000  C
  H498     1.0000 0.11254  0.03514  0.26060  Biso   1.000  H
  H499     1.0000 0.13115  0.02654  0.36930  Biso   1.000  H
  H500     1.0000 0.11244  0.03514  0.26060  Biso   1.000  H
  H501     1.0000 0.13106  0.02654  0.36930  Biso   1.000  H
  C307     1.0000 0.24304  0.14381  0.32339  Biso   1.000  C
  H502     1.0000 0.20251  0.12222  0.32182  Biso   1.000  H
  H503     1.0000 0.94140  0.25734  0.40889  Biso   1.000  H
  H504     1.0000 0.01814  0.15517  0.46100  Biso   1.000  H
  H505     1.0000 0.09333  0.25507  0.42086  Biso   1.000  H
  H506     1.0000 0.09334  0.25507  0.42093  Biso   1.000  H
  H507     1.0000 0.01814  0.15525  0.46100  Biso   1.000  H
  H508     1.0000 0.09333  0.25515  0.42086  Biso   1.000  H
  H509     1.0000 0.09334  0.25515  0.42093  Biso   1.000  H
  H510     1.0000 0.01804  0.15517  0.46100  Biso   1.000  H
  H511     1.0000 0.09323  0.25507  0.42086  Biso   1.000  H
  H512     1.0000 0.01804  0.15525  0.46100  Biso   1.000  H
  H513     1.0000 0.09323  0.25515  0.42086  Biso   1.000  H
  C308     1.0000 0.02040  0.13204  0.49447  Biso   1.000  C
  H514     1.0000 0.98342  0.70459  0.19237  Biso   1.000  H
  H515     1.0000 0.98343  0.70459  0.19244  Biso   1.000  H
  H516     1.0000 0.98332  0.70459  0.19237  Biso   1.000  H
  C309     1.0000 0.89611  0.73608  0.99742  Biso   1.000  C
  C310     1.0000 0.89612  0.73608  0.99748  Biso   1.000  C
  C311     1.0000 0.89601  0.73608  0.99742  Biso   1.000  C
  C312     1.0000 0.89603  0.73608  0.99748  Biso   1.000  C
  H517     1.0000 0.47134  0.92063  0.28230  Biso   1.000  H
  N61      1.0000 0.42545  0.99294  0.16360  Biso   1.000  N
  N62      1.0000 0.42536  0.99294  0.16360  Biso   1.000  N
  H518     1.0000 0.42250  0.06979  0.04802  Biso   1.000  H
  H519     1.0000 0.03913  0.13253  0.70743  Biso   1.000  H
  C313     1.0000 0.16514  0.94270  0.80382  Biso   1.000  C
  C314     1.0000 0.16515  0.94270  0.80389  Biso   1.000  C
  H520     1.0000 0.26381  0.17473  0.38447  Biso   1.000  H
  H521     1.0000 0.31330  0.09731  0.31087  Biso   1.000  H
  H522     1.0000 0.26382  0.17473  0.38454  Biso   1.000  H
  H523     1.0000 0.31332  0.09731  0.31094  Biso   1.000  H
  H524     1.0000 0.23024  0.20248  0.27849  Biso   1.000  H
  H525     1.0000 0.23024  0.20256  0.27849  Biso   1.000  H
  H526     1.0000 0.23015  0.20248  0.27849  Biso   1.000  H
  H527     1.0000 0.23015  0.20256  0.27849  Biso   1.000  H
  H528     1.0000 0.93882  0.09390  0.49107  Biso   1.000  H
  H529     1.0000 0.08904  0.07888  0.49419  Biso   1.000  H
  H530     1.0000 0.03601  0.17457  0.55079  Biso   1.000  H
  C315     1.0000 0.77167  0.76027  0.93306  Biso   1.000  C
  C316     1.0000 0.77167  0.76035  0.93306  Biso   1.000  C
  C317     1.0000 0.89547  0.61540  0.02218  Biso   1.000  C
  C318     1.0000 0.89548  0.61540  0.02224  Biso   1.000  C
  C319     1.0000 0.00846  0.75848  0.94796  Biso   1.000  C
  C320     1.0000 0.13246  0.85360  0.86586  Biso   1.000  C
  C321     1.0000 0.31140  0.96153  0.81572  Biso   1.000  C
  C322     1.0000 0.12056  0.90716  0.70314  Biso   1.000  C
  C323     1.0000 0.12056  0.90724  0.70314  Biso   1.000  C
  C324     1.0000 0.31130  0.96153  0.81572  Biso   1.000  C
  H531     1.0000 0.77232  0.83582  0.91232  Biso   1.000  H
  H532     1.0000 0.76447  0.71157  0.88041  Biso   1.000  H
  H533     1.0000 0.69897  0.74890  0.96544  Biso   1.000  H
  H534     1.0000 0.77234  0.83582  0.91239  Biso   1.000  H
  H535     1.0000 0.76448  0.71157  0.88048  Biso   1.000  H
  H536     1.0000 0.76447  0.71165  0.88041  Biso   1.000  H
  H537     1.0000 0.76448  0.71165  0.88048  Biso   1.000  H
  H538     1.0000 0.77223  0.83582  0.91232  Biso   1.000  H
  H539     1.0000 0.77224  0.83582  0.91239  Biso   1.000  H
  H540     1.0000 0.89093  0.57166  0.96660  Biso   1.000  H
  H541     1.0000 0.89104  0.57166  0.96667  Biso   1.000  H
  H542     1.0000 0.89093  0.57174  0.96660  Biso   1.000  H
  H543     1.0000 0.89104  0.57174  0.96667  Biso   1.000  H
  H544     1.0000 0.89095  0.57166  0.96667  Biso   1.000  H
  H545     1.0000 0.89095  0.57174  0.96667  Biso   1.000  H
  H546     1.0000 0.82158  0.59966  0.05211  Biso   1.000  H
  H547     1.0000 0.97375  0.59771  0.06347  Biso   1.000  H
  H548     1.0000 0.97386  0.59771  0.06353  Biso   1.000  H
  H549     1.0000 0.82158  0.59974  0.05211  Biso   1.000  H
  H550     1.0000 0.97377  0.59771  0.06353  Biso   1.000  H
  C325     1.0000 0.11075  0.69469  0.93735  Biso   1.000  C
  N63      1.0000 0.02263  0.85546  0.90463  Biso   1.000  N
  N64      1.0000 0.02273  0.85546  0.90463  Biso   1.000  N
  N65      1.0000 0.02263  0.85554  0.90463  Biso   1.000  N
  N66      1.0000 0.02273  0.85554  0.90463  Biso   1.000  N
  C326     1.0000 0.18834  0.75410  0.88511  Biso   1.000  C
  C327     1.0000 0.18836  0.75410  0.88518  Biso   1.000  C
  C328     1.0000 0.39425  0.92907  0.89205  Biso   1.000  C
  C329     1.0000 0.39425  0.92915  0.89205  Biso   1.000  C
  C330     1.0000 0.36505  0.01867  0.75015  Biso   1.000  C
  C331     1.0000 0.36505  0.01875  0.75015  Biso   1.000  C
  C332     1.0000 0.99024  0.84881  0.68083  Biso   1.000  C
  H551     1.0000 0.11774  0.97273  0.66437  Biso   1.000  H
  H552     1.0000 0.18641  0.85846  0.68491  Biso   1.000  H
  H553     1.0000 0.18652  0.85846  0.68498  Biso   1.000  H
  H554     1.0000 0.18641  0.85855  0.68491  Biso   1.000  H
  H555     1.0000 0.18652  0.85855  0.68498  Biso   1.000  H
  H556     1.0000 0.18642  0.85846  0.68498  Biso   1.000  H
  H557     1.0000 0.18642  0.85855  0.68498  Biso   1.000  H
  H558     1.0000 0.12686  0.62352  0.96075  Biso   1.000  H
  H559     1.0000 0.96612  0.90902  0.89694  Biso   1.000  H
  H560     1.0000 0.96602  0.90902  0.89694  Biso   1.000  H
  H561     1.0000 0.26528  0.72951  0.86681  Biso   1.000  H
  H562     1.0000 0.26529  0.72951  0.86688  Biso   1.000  H
  H563     1.0000 0.26518  0.72951  0.86681  Biso   1.000  H
  H564     1.0000 0.26520  0.72951  0.86688  Biso   1.000  H
  H565     1.0000 0.36322  0.89028  0.93932  Biso   1.000  H
  C333     1.0000 0.52285  0.95350  0.89885  Biso   1.000  C
  H566     1.0000 0.36322  0.89036  0.93932  Biso   1.000  H
  C334     1.0000 0.49481  0.03969  0.76321  Biso   1.000  C
  H567     1.0000 0.31272  0.04317  0.69641  Biso   1.000  H
  C335     1.0000 0.49482  0.03969  0.76328  Biso   1.000  C
  H568     1.0000 0.31274  0.04317  0.69648  Biso   1.000  H
  H569     1.0000 0.31272  0.04326  0.69641  Biso   1.000  H
  H570     1.0000 0.31274  0.04326  0.69648  Biso   1.000  H
  H571     1.0000 0.98726  0.79159  0.72811  Biso   1.000  H
  C336     1.0000 0.98391  0.79111  0.58866  Biso   1.000  C
  C337     1.0000 0.87593  0.92209  0.68233  Biso   1.000  C
  H572     1.0000 0.98728  0.79159  0.72818  Biso   1.000  H
  C338     1.0000 0.98382  0.79111  0.58866  Biso   1.000  C
  H573     1.0000 0.57758  0.93021  0.95191  Biso   1.000  H
  H574     1.0000 0.57760  0.93021  0.95198  Biso   1.000  H
  H575     1.0000 0.57749  0.93021  0.95191  Biso   1.000  H
  H576     1.0000 0.57750  0.93021  0.95198  Biso   1.000  H
  N67      1.0000 0.57463  0.00706  0.83633  Biso   1.000  N
  N68      1.0000 0.57463  0.00714  0.83633  Biso   1.000  N
  H577     1.0000 0.52874  0.07937  0.71763  Biso   1.000  H
  H578     1.0000 0.52874  0.07945  0.71763  Biso   1.000  H
  H579     1.0000 0.98194  0.84483  0.53893  Biso   1.000  H
  H580     1.0000 0.90675  0.74493  0.57907  Biso   1.000  H
  C339     1.0000 0.97959  0.86804  0.50547  Biso   1.000  C
  H581     1.0000 0.05868  0.74266  0.59104  Biso   1.000  H
  H582     1.0000 0.05868  0.74274  0.59104  Biso   1.000  H
  H583     1.0000 0.05858  0.74266  0.59104  Biso   1.000  H
  H584     1.0000 0.05858  0.74274  0.59104  Biso   1.000  H
  H585     1.0000 0.88754  0.96486  0.73933  Biso   1.000  H
  H586     1.0000 0.86893  0.97346  0.63063  Biso   1.000  H
  C340     1.0000 0.75695  0.85619  0.67655  Biso   1.000  C
  H587     1.0000 0.88754  0.96494  0.73933  Biso   1.000  H
  H588     1.0000 0.86893  0.97354  0.63063  Biso   1.000  H
  H589     1.0000 0.79758  0.87786  0.67818  Biso   1.000  H
  H590     1.0000 0.91104  0.92112  0.50574  Biso   1.000  H
  H591     1.0000 0.96398  0.82543  0.44914  Biso   1.000  H
  H592     1.0000 0.06126  0.90610  0.50887  Biso   1.000  H
  H593     1.0000 0.73627  0.82527  0.61546  Biso   1.000  H
  H594     1.0000 0.68678  0.90269  0.68906  Biso   1.000  H
  H595     1.0000 0.76984  0.79752  0.72144  Biso   1.000  H
  H596     1.0000 0.73627  0.82535  0.61546  Biso   1.000  H
  N69      1.0000 0.97745  0.14454  0.09530  Biso   1.000  N
  C341     1.0000 0.99162  0.24152  0.05197  Biso   1.000  C
  C342     1.0000 0.99164  0.24152  0.05204  Biso   1.000  C
  C343     1.0000 0.99153  0.24152  0.05197  Biso   1.000  C
  C344     1.0000 0.99154  0.24152  0.05204  Biso   1.000  C
  C345     1.0000 0.86762  0.14640  0.13408  Biso   1.000  C
  C346     1.0000 0.86763  0.14640  0.13414  Biso   1.000  C
  H597     1.0000 0.03396  0.09098  0.10299  Biso   1.000  H
  H598     1.0000 0.03396  0.09106  0.10299  Biso   1.000  H
  C347     1.0000 0.10397  0.26392  0.00252  Biso   1.000  C
  C348     1.0000 0.88933  0.30531  0.06258  Biso   1.000  C
  C349     1.0000 0.88934  0.30531  0.06265  Biso   1.000  C
  N70      1.0000 0.97746  0.14454  0.09537  Biso   1.000  N
  C350     1.0000 0.88923  0.30531  0.06258  Biso   1.000  C
  N71      1.0000 0.97735  0.14454  0.09530  Biso   1.000  N
  C351     1.0000 0.88925  0.30531  0.06265  Biso   1.000  C
  N72      1.0000 0.97737  0.14454  0.09537  Biso   1.000  N
  C352     1.0000 0.81174  0.24590  0.11482  Biso   1.000  C
  C353     1.0000 0.81164  0.24590  0.11482  Biso   1.000  C
  C354     1.0000 0.83494  0.05730  0.19611  Biso   1.000  C
  C355     1.0000 0.83485  0.05730  0.19611  Biso   1.000  C
  C356     1.0000 0.09398  0.19810  0.91524  Biso   1.000  C
  C357     1.0000 0.10461  0.38460  0.97776  Biso   1.000  C
  C358     1.0000 0.10452  0.38460  0.97776  Biso   1.000  C
  C359     1.0000 0.22841  0.23973  0.06687  Biso   1.000  C
  C360     1.0000 0.22842  0.23973  0.06694  Biso   1.000  C
  C361     1.0000 0.22831  0.23973  0.06687  Biso   1.000  C
  C362     1.0000 0.22833  0.23973  0.06694  Biso   1.000  C
  H599     1.0000 0.87322  0.37648  0.03918  Biso   1.000  H
  H600     1.0000 0.87323  0.37648  0.03925  Biso   1.000  H
  H601     1.0000 0.87322  0.37656  0.03918  Biso   1.000  H
  H602     1.0000 0.87323  0.37656  0.03925  Biso   1.000  H
  H603     1.0000 0.87313  0.37648  0.03918  Biso   1.000  H
  H604     1.0000 0.87314  0.37648  0.03925  Biso   1.000  H
  H605     1.0000 0.87313  0.37656  0.03918  Biso   1.000  H
  H606     1.0000 0.87314  0.37656  0.03925  Biso   1.000  H
  H607     1.0000 0.73480  0.27049  0.13312  Biso   1.000  H
  C363     1.0000 0.88807  0.94790  0.17387  Biso   1.000  C
  C364     1.0000 0.88809  0.94790  0.17394  Biso   1.000  C
  C365     1.0000 0.68868  0.03847  0.18421  Biso   1.000  C
  C366     1.0000 0.87952  0.09284  0.29679  Biso   1.000  C
  C367     1.0000 0.68868  0.03855  0.18421  Biso   1.000  C
  C368     1.0000 0.04974  0.22651  0.82756  Biso   1.000  C
  N73      1.0000 0.13240  0.09089  0.91402  Biso   1.000  N
  N74      1.0000 0.13242  0.09089  0.91409  Biso   1.000  N
  N75      1.0000 0.13231  0.09089  0.91402  Biso   1.000  N
  N76      1.0000 0.13232  0.09089  0.91409  Biso   1.000  N
  H608     1.0000 0.17850  0.40034  0.94783  Biso   1.000  H
  H609     1.0000 0.02633  0.40229  0.93647  Biso   1.000  H
  H610     1.0000 0.02633  0.40237  0.93647  Biso   1.000  H
  H611     1.0000 0.17840  0.40034  0.94783  Biso   1.000  H
  H612     1.0000 0.02623  0.40229  0.93647  Biso   1.000  H
  H613     1.0000 0.02623  0.40237  0.93647  Biso   1.000  H
  H614     1.0000 0.10915  0.42834  0.03333  Biso   1.000  H
  H615     1.0000 0.10905  0.42834  0.03333  Biso   1.000  H
  H616     1.0000 0.23561  0.28843  0.11952  Biso   1.000  H
  H617     1.0000 0.22776  0.16418  0.08761  Biso   1.000  H
  H618     1.0000 0.30111  0.25110  0.03449  Biso   1.000  H
  H619     1.0000 0.22776  0.16426  0.08761  Biso   1.000  H
  H620     1.0000 0.23552  0.28843  0.11952  Biso   1.000  H
  H621     1.0000 0.30102  0.25110  0.03449  Biso   1.000  H
  C369     1.0000 0.93810  0.86479  0.22829  Biso   1.000  C
  N77      1.0000 0.86768  0.90911  0.08591  Biso   1.000  N
  C370     1.0000 0.63503  0.98133  0.24978  Biso   1.000  C
  C371     1.0000 0.60583  0.07093  0.10789  Biso   1.000  C
  C372     1.0000 0.60574  0.07093  0.10789  Biso   1.000  C
  H622     1.0000 0.88234  0.02727  0.33556  Biso   1.000  H
  H623     1.0000 0.81367  0.14154  0.31502  Biso   1.000  H
  H624     1.0000 0.88236  0.02727  0.33563  Biso   1.000  H
  H625     1.0000 0.88234  0.02735  0.33556  Biso   1.000  H
  H626     1.0000 0.88236  0.02735  0.33563  Biso   1.000  H
  H627     1.0000 0.88225  0.02727  0.33556  Biso   1.000  H
  H628     1.0000 0.81358  0.14154  0.31502  Biso   1.000  H
  H629     1.0000 0.88226  0.02727  0.33563  Biso   1.000  H
  H630     1.0000 0.88225  0.02735  0.33556  Biso   1.000  H
  H631     1.0000 0.88226  0.02735  0.33563  Biso   1.000  H
  C373     1.0000 0.00984  0.15119  0.31910  Biso   1.000  C
  C374     1.0000 0.00974  0.15119  0.31910  Biso   1.000  C
  C375     1.0000 0.06198  0.13521  0.77164  Biso   1.000  C
  H632     1.0000 0.01666  0.29541  0.80756  Biso   1.000  H
  C376     1.0000 0.06188  0.13521  0.77164  Biso   1.000  C
  C377     1.0000 0.11201  0.05210  0.82606  Biso   1.000  C
  H633     1.0000 0.15804  0.04902  0.96395  Biso   1.000  H
  C378     1.0000 0.11191  0.05210  0.82606  Biso   1.000  C
  H634     1.0000 0.96095  0.86747  0.29250  Biso   1.000  H
  C379     1.0000 0.95034  0.77349  0.17237  Biso   1.000  C
  C380     1.0000 0.95036  0.77349  0.17244  Biso   1.000  C
  H635     1.0000 0.96095  0.86755  0.29250  Biso   1.000  H
  H636     1.0000 0.96086  0.86747  0.29250  Biso   1.000  H
  C381     1.0000 0.95025  0.77349  0.17237  Biso   1.000  C
  C382     1.0000 0.95026  0.77349  0.17244  Biso   1.000  C
  H637     1.0000 0.96086  0.86755  0.29250  Biso   1.000  H
  C383     1.0000 0.90610  0.80190  0.08469  Biso   1.000  C
  H638     1.0000 0.84204  0.95098  0.03598  Biso   1.000  H
  H639     1.0000 0.84204  0.95106  0.03598  Biso   1.000  H
  H640     1.0000 0.84195  0.95098  0.03598  Biso   1.000  H
  H641     1.0000 0.84195  0.95106  0.03598  Biso   1.000  H
  C384     1.0000 0.50527  0.96031  0.23672  Biso   1.000  C
  H642     1.0000 0.68736  0.95683  0.30352  Biso   1.000  H
  C385     1.0000 0.50518  0.96031  0.23672  Biso   1.000  C
  H643     1.0000 0.68726  0.95683  0.30352  Biso   1.000  H
  H644     1.0000 0.63686  0.10972  0.06061  Biso   1.000  H
  C386     1.0000 0.47722  0.04650  0.10108  Biso   1.000  C
  H645     1.0000 0.63676  0.10972  0.06061  Biso   1.000  H
  H646     1.0000 0.01282  0.20841  0.27182  Biso   1.000  H
  C387     1.0000 0.01617  0.20889  0.41127  Biso   1.000  C
  C388     1.0000 0.12415  0.07791  0.31760  Biso   1.000  C
  C389     1.0000 0.01626  0.20889  0.41127  Biso   1.000  C
  C390     1.0000 0.12406  0.07791  0.31760  Biso   1.000  C
  H647     1.0000 0.03913  0.13253  0.70743  Biso   1.000  H
  C391     1.0000 0.16514  0.94270  0.80382  Biso   1.000  C
  C392     1.0000 0.16515  0.94270  0.80389  Biso   1.000  C
  H648     1.0000 0.98342  0.70459  0.19237  Biso   1.000  H
  H649     1.0000 0.98343  0.70459  0.19244  Biso   1.000  H
  H650     1.0000 0.98332  0.70459  0.19237  Biso   1.000  H
  C393     1.0000 0.89611  0.73608  0.99742  Biso   1.000  C
  C394     1.0000 0.89612  0.73608  0.99748  Biso   1.000  C
  C395     1.0000 0.89601  0.73608  0.99742  Biso   1.000  C
  C396     1.0000 0.89603  0.73608  0.99748  Biso   1.000  C
  H651     1.0000 0.47134  0.92063  0.28230  Biso   1.000  H
  N78      1.0000 0.42545  0.99294  0.16360  Biso   1.000  N
  N79      1.0000 0.42536  0.99294  0.16360  Biso   1.000  N
  H652     1.0000 0.42250  0.06979  0.04802  Biso   1.000  H
  H653     1.0000 0.94140  0.25734  0.40889  Biso   1.000  H
  H654     1.0000 0.01814  0.15517  0.46100  Biso   1.000  H
  H655     1.0000 0.09333  0.25507  0.42086  Biso   1.000  H
  H656     1.0000 0.09334  0.25507  0.42093  Biso   1.000  H
  H657     1.0000 0.01814  0.15525  0.46100  Biso   1.000  H
  H658     1.0000 0.09333  0.25515  0.42086  Biso   1.000  H
  H659     1.0000 0.09334  0.25515  0.42093  Biso   1.000  H
  H660     1.0000 0.01804  0.15517  0.46100  Biso   1.000  H
  H661     1.0000 0.09323  0.25507  0.42086  Biso   1.000  H
  H662     1.0000 0.01804  0.15525  0.46100  Biso   1.000  H
  H663     1.0000 0.09323  0.25515  0.42086  Biso   1.000  H
  C397     1.0000 0.02040  0.13204  0.49447  Biso   1.000  C
  H664     1.0000 0.11254  0.03514  0.26060  Biso   1.000  H
  H665     1.0000 0.13115  0.02654  0.36930  Biso   1.000  H
  C398     1.0000 0.24313  0.14381  0.32339  Biso   1.000  C
  H666     1.0000 0.11244  0.03514  0.26060  Biso   1.000  H
  H667     1.0000 0.13106  0.02654  0.36930  Biso   1.000  H
  C399     1.0000 0.24304  0.14381  0.32339  Biso   1.000  C
  H668     1.0000 0.20251  0.12222  0.32182  Biso   1.000  H
  C400     1.0000 0.13246  0.85360  0.86586  Biso   1.000  C
  C401     1.0000 0.31140  0.96153  0.81572  Biso   1.000  C
  C402     1.0000 0.12056  0.90716  0.70314  Biso   1.000  C
  C403     1.0000 0.12056  0.90724  0.70314  Biso   1.000  C
  C404     1.0000 0.31130  0.96153  0.81572  Biso   1.000  C
  C405     1.0000 0.00846  0.75848  0.94796  Biso   1.000  C
  C406     1.0000 0.77167  0.76027  0.93306  Biso   1.000  C
  C407     1.0000 0.77167  0.76035  0.93306  Biso   1.000  C
  C408     1.0000 0.89547  0.61540  0.02218  Biso   1.000  C
  C409     1.0000 0.89548  0.61540  0.02224  Biso   1.000  C
  H669     1.0000 0.93882  0.09390  0.49107  Biso   1.000  H
  H670     1.0000 0.08904  0.07888  0.49419  Biso   1.000  H
  H671     1.0000 0.03601  0.17457  0.55079  Biso   1.000  H
  H672     1.0000 0.26381  0.17473  0.38447  Biso   1.000  H
  H673     1.0000 0.31330  0.09731  0.31087  Biso   1.000  H
  H674     1.0000 0.23024  0.20248  0.27849  Biso   1.000  H
  H675     1.0000 0.26382  0.17473  0.38454  Biso   1.000  H
  H676     1.0000 0.31332  0.09731  0.31094  Biso   1.000  H
  H677     1.0000 0.23024  0.20256  0.27849  Biso   1.000  H
  H678     1.0000 0.23015  0.20248  0.27849  Biso   1.000  H
  H679     1.0000 0.23015  0.20256  0.27849  Biso   1.000  H
  C410     1.0000 0.18834  0.75410  0.88511  Biso   1.000  C
  N80      1.0000 0.02263  0.85546  0.90463  Biso   1.000  N
  C411     1.0000 0.18836  0.75410  0.88518  Biso   1.000  C
  N81      1.0000 0.02273  0.85546  0.90463  Biso   1.000  N
  N82      1.0000 0.02263  0.85554  0.90463  Biso   1.000  N
  N83      1.0000 0.02273  0.85554  0.90463  Biso   1.000  N
  C412     1.0000 0.39425  0.92907  0.89205  Biso   1.000  C
  C413     1.0000 0.39425  0.92915  0.89205  Biso   1.000  C
  C414     1.0000 0.36505  0.01867  0.75015  Biso   1.000  C
  C415     1.0000 0.36505  0.01875  0.75015  Biso   1.000  C
  C416     1.0000 0.99024  0.84881  0.68083  Biso   1.000  C
  H680     1.0000 0.11774  0.97273  0.66437  Biso   1.000  H
  H681     1.0000 0.18641  0.85846  0.68491  Biso   1.000  H
  H682     1.0000 0.18652  0.85846  0.68498  Biso   1.000  H
  H683     1.0000 0.18641  0.85855  0.68491  Biso   1.000  H
  H684     1.0000 0.18652  0.85855  0.68498  Biso   1.000  H
  H685     1.0000 0.18642  0.85846  0.68498  Biso   1.000  H
  H686     1.0000 0.18642  0.85855  0.68498  Biso   1.000  H
  C417     1.0000 0.11075  0.69469  0.93735  Biso   1.000  C
  H687     1.0000 0.77232  0.83582  0.91232  Biso   1.000  H
  H688     1.0000 0.76447  0.71157  0.88041  Biso   1.000  H
  H689     1.0000 0.69897  0.74890  0.96544  Biso   1.000  H
  H690     1.0000 0.77234  0.83582  0.91239  Biso   1.000  H
  H691     1.0000 0.76448  0.71157  0.88048  Biso   1.000  H
  H692     1.0000 0.76447  0.71165  0.88041  Biso   1.000  H
  H693     1.0000 0.76448  0.71165  0.88048  Biso   1.000  H
  H694     1.0000 0.77223  0.83582  0.91232  Biso   1.000  H
  H695     1.0000 0.77224  0.83582  0.91239  Biso   1.000  H
  H696     1.0000 0.89093  0.57166  0.96660  Biso   1.000  H
  H697     1.0000 0.89104  0.57166  0.96667  Biso   1.000  H
  H698     1.0000 0.89093  0.57174  0.96660  Biso   1.000  H
  H699     1.0000 0.89104  0.57174  0.96667  Biso   1.000  H
  H700     1.0000 0.89095  0.57166  0.96667  Biso   1.000  H
  H701     1.0000 0.89095  0.57174  0.96667  Biso   1.000  H
  H702     1.0000 0.82158  0.59966  0.05211  Biso   1.000  H
  H703     1.0000 0.97375  0.59771  0.06347  Biso   1.000  H
  H704     1.0000 0.97386  0.59771  0.06353  Biso   1.000  H
  H705     1.0000 0.82158  0.59974  0.05211  Biso   1.000  H
  H706     1.0000 0.97377  0.59771  0.06353  Biso   1.000  H
  H707     1.0000 0.26528  0.72951  0.86681  Biso   1.000  H
  H708     1.0000 0.26529  0.72951  0.86688  Biso   1.000  H
  H709     1.0000 0.26518  0.72951  0.86681  Biso   1.000  H
  H710     1.0000 0.26520  0.72951  0.86688  Biso   1.000  H
  H711     1.0000 0.96612  0.90902  0.89694  Biso   1.000  H
  H712     1.0000 0.96602  0.90902  0.89694  Biso   1.000  H
  H713     1.0000 0.36322  0.89028  0.93932  Biso   1.000  H
  C418     1.0000 0.52285  0.95350  0.89885  Biso   1.000  C
  H714     1.0000 0.36322  0.89036  0.93932  Biso   1.000  H
  C419     1.0000 0.49481  0.03969  0.76321  Biso   1.000  C
  H715     1.0000 0.31272  0.04317  0.69641  Biso   1.000  H
  C420     1.0000 0.49482  0.03969  0.76328  Biso   1.000  C
  H716     1.0000 0.31274  0.04317  0.69648  Biso   1.000  H
  H717     1.0000 0.31272  0.04326  0.69641  Biso   1.000  H
  H718     1.0000 0.31274  0.04326  0.69648  Biso   1.000  H
  H719     1.0000 0.98726  0.79159  0.72811  Biso   1.000  H
  C421     1.0000 0.98391  0.79111  0.58866  Biso   1.000  C
  C422     1.0000 0.87593  0.92209  0.68233  Biso   1.000  C
  H720     1.0000 0.98728  0.79159  0.72818  Biso   1.000  H
  C423     1.0000 0.98382  0.79111  0.58866  Biso   1.000  C
  H721     1.0000 0.12686  0.62352  0.96075  Biso   1.000  H
  H722     1.0000 0.57758  0.93021  0.95191  Biso   1.000  H
  H723     1.0000 0.57760  0.93021  0.95198  Biso   1.000  H
  H724     1.0000 0.57749  0.93021  0.95191  Biso   1.000  H
  H725     1.0000 0.57750  0.93021  0.95198  Biso   1.000  H
  N84      1.0000 0.57463  0.00706  0.83633  Biso   1.000  N
  N85      1.0000 0.57463  0.00714  0.83633  Biso   1.000  N
  H726     1.0000 0.52874  0.07937  0.71763  Biso   1.000  H
  H727     1.0000 0.52874  0.07945  0.71763  Biso   1.000  H
  H728     1.0000 0.98194  0.84483  0.53893  Biso   1.000  H
  H729     1.0000 0.90675  0.74493  0.57907  Biso   1.000  H
  C424     1.0000 0.97959  0.86804  0.50547  Biso   1.000  C
  H730     1.0000 0.05868  0.74266  0.59104  Biso   1.000  H
  H731     1.0000 0.05868  0.74274  0.59104  Biso   1.000  H
  H732     1.0000 0.05858  0.74266  0.59104  Biso   1.000  H
  H733     1.0000 0.05858  0.74274  0.59104  Biso   1.000  H
  H734     1.0000 0.88754  0.96486  0.73933  Biso   1.000  H
  H735     1.0000 0.86893  0.97346  0.63063  Biso   1.000  H
  C425     1.0000 0.75695  0.85619  0.67655  Biso   1.000  C
  H736     1.0000 0.88754  0.96494  0.73933  Biso   1.000  H
  H737     1.0000 0.86893  0.97354  0.63063  Biso   1.000  H
  H738     1.0000 0.79758  0.87786  0.67818  Biso   1.000  H
  H739     1.0000 0.91104  0.92112  0.50574  Biso   1.000  H
  H740     1.0000 0.96398  0.82543  0.44914  Biso   1.000  H
  H741     1.0000 0.06126  0.90610  0.50887  Biso   1.000  H
  H742     1.0000 0.73627  0.82527  0.61546  Biso   1.000  H
  H743     1.0000 0.68678  0.90269  0.68906  Biso   1.000  H
  H744     1.0000 0.76984  0.79752  0.72144  Biso   1.000  H
  H745     1.0000 0.73627  0.82535  0.61546  Biso   1.000  H
  N86      1.0000 0.97745  0.14454  0.09530  Biso   1.000  N
  C426     1.0000 0.99162  0.24152  0.05197  Biso   1.000  C
  C427     1.0000 0.99164  0.24152  0.05204  Biso   1.000  C
  C428     1.0000 0.99153  0.24152  0.05197  Biso   1.000  C
  C429     1.0000 0.99154  0.24152  0.05204  Biso   1.000  C
  C430     1.0000 0.86762  0.14640  0.13408  Biso   1.000  C
  C431     1.0000 0.86763  0.14640  0.13414  Biso   1.000  C
  H746     1.0000 0.03396  0.09098  0.10299  Biso   1.000  H
  H747     1.0000 0.03396  0.09106  0.10299  Biso   1.000  H
  C432     1.0000 0.10397  0.26392  0.00252  Biso   1.000  C
  C433     1.0000 0.88933  0.30531  0.06258  Biso   1.000  C
  C434     1.0000 0.88934  0.30531  0.06265  Biso   1.000  C
  N87      1.0000 0.97746  0.14454  0.09537  Biso   1.000  N
  C435     1.0000 0.88923  0.30531  0.06258  Biso   1.000  C
  N88      1.0000 0.97735  0.14454  0.09530  Biso   1.000  N
  C436     1.0000 0.88925  0.30531  0.06265  Biso   1.000  C
  N89      1.0000 0.97737  0.14454  0.09537  Biso   1.000  N
  C437     1.0000 0.81174  0.24590  0.11482  Biso   1.000  C
  C438     1.0000 0.81164  0.24590  0.11482  Biso   1.000  C
  C439     1.0000 0.83494  0.05730  0.19611  Biso   1.000  C
  C440     1.0000 0.83485  0.05730  0.19611  Biso   1.000  C
  C441     1.0000 0.09398  0.19810  0.91524  Biso   1.000  C
  C442     1.0000 0.10461  0.38460  0.97776  Biso   1.000  C
  C443     1.0000 0.10452  0.38460  0.97776  Biso   1.000  C
  C444     1.0000 0.22841  0.23973  0.06687  Biso   1.000  C
  C445     1.0000 0.22842  0.23973  0.06694  Biso   1.000  C
  C446     1.0000 0.22831  0.23973  0.06687  Biso   1.000  C
  C447     1.0000 0.22833  0.23973  0.06694  Biso   1.000  C
  H748     1.0000 0.87322  0.37648  0.03918  Biso   1.000  H
  H749     1.0000 0.87323  0.37648  0.03925  Biso   1.000  H
  H750     1.0000 0.87322  0.37656  0.03918  Biso   1.000  H
  H751     1.0000 0.87323  0.37656  0.03925  Biso   1.000  H
  H752     1.0000 0.87313  0.37648  0.03918  Biso   1.000  H
  H753     1.0000 0.87314  0.37648  0.03925  Biso   1.000  H
  H754     1.0000 0.87313  0.37656  0.03918  Biso   1.000  H
  H755     1.0000 0.87314  0.37656  0.03925  Biso   1.000  H
  H756     1.0000 0.73480  0.27049  0.13312  Biso   1.000  H
  C448     1.0000 0.88807  0.94790  0.17387  Biso   1.000  C
  C449     1.0000 0.88809  0.94790  0.17394  Biso   1.000  C
  C450     1.0000 0.68868  0.03847  0.18421  Biso   1.000  C
  C451     1.0000 0.87952  0.09284  0.29679  Biso   1.000  C
  C452     1.0000 0.68868  0.03855  0.18421  Biso   1.000  C
  C453     1.0000 0.04974  0.22651  0.82756  Biso   1.000  C
  N90      1.0000 0.13240  0.09089  0.91402  Biso   1.000  N
  N91      1.0000 0.13242  0.09089  0.91409  Biso   1.000  N
  N92      1.0000 0.13231  0.09089  0.91402  Biso   1.000  N
  N93      1.0000 0.13232  0.09089  0.91409  Biso   1.000  N
  H757     1.0000 0.17850  0.40034  0.94783  Biso   1.000  H
  H758     1.0000 0.02633  0.40229  0.93647  Biso   1.000  H
  H759     1.0000 0.02633  0.40237  0.93647  Biso   1.000  H
  H760     1.0000 0.17840  0.40034  0.94783  Biso   1.000  H
  H761     1.0000 0.02623  0.40229  0.93647  Biso   1.000  H
  H762     1.0000 0.02623  0.40237  0.93647  Biso   1.000  H
  H763     1.0000 0.10915  0.42834  0.03333  Biso   1.000  H
  H764     1.0000 0.10905  0.42834  0.03333  Biso   1.000  H
  H765     1.0000 0.23561  0.28843  0.11952  Biso   1.000  H
  H766     1.0000 0.22776  0.16418  0.08761  Biso   1.000  H
  H767     1.0000 0.30111  0.25110  0.03449  Biso   1.000  H
  H768     1.0000 0.22776  0.16426  0.08761  Biso   1.000  H
  H769     1.0000 0.23552  0.28843  0.11952  Biso   1.000  H
  H770     1.0000 0.30102  0.25110  0.03449  Biso   1.000  H
  C454     1.0000 0.93810  0.86479  0.22829  Biso   1.000  C
  N94      1.0000 0.86768  0.90911  0.08591  Biso   1.000  N
  C455     1.0000 0.63503  0.98133  0.24978  Biso   1.000  C
  C456     1.0000 0.60583  0.07093  0.10789  Biso   1.000  C
  C457     1.0000 0.60574  0.07093  0.10789  Biso   1.000  C
  H771     1.0000 0.88234  0.02727  0.33556  Biso   1.000  H
  H772     1.0000 0.81367  0.14154  0.31502  Biso   1.000  H
  H773     1.0000 0.88236  0.02727  0.33563  Biso   1.000  H
  H774     1.0000 0.88234  0.02735  0.33556  Biso   1.000  H
  H775     1.0000 0.88236  0.02735  0.33563  Biso   1.000  H
  H776     1.0000 0.88225  0.02727  0.33556  Biso   1.000  H
  H777     1.0000 0.81358  0.14154  0.31502  Biso   1.000  H
  H778     1.0000 0.88226  0.02727  0.33563  Biso   1.000  H
  H779     1.0000 0.88225  0.02735  0.33556  Biso   1.000  H
  H780     1.0000 0.88226  0.02735  0.33563  Biso   1.000  H
  C458     1.0000 0.00984  0.15119  0.31910  Biso   1.000  C
  C459     1.0000 0.00974  0.15119  0.31910  Biso   1.000  C
  C460     1.0000 0.06198  0.13521  0.77164  Biso   1.000  C
  H781     1.0000 0.01666  0.29541  0.80756  Biso   1.000  H
  C461     1.0000 0.06188  0.13521  0.77164  Biso   1.000  C
  C462     1.0000 0.11201  0.05210  0.82606  Biso   1.000  C
  H782     1.0000 0.15804  0.04902  0.96395  Biso   1.000  H
  C463     1.0000 0.11191  0.05210  0.82606  Biso   1.000  C
  H783     1.0000 0.96095  0.86747  0.29250  Biso   1.000  H
  C464     1.0000 0.95034  0.77349  0.17237  Biso   1.000  C
  C465     1.0000 0.95036  0.77349  0.17244  Biso   1.000  C
  H784     1.0000 0.96095  0.86755  0.29250  Biso   1.000  H
  H785     1.0000 0.96086  0.86747  0.29250  Biso   1.000  H
  C466     1.0000 0.95025  0.77349  0.17237  Biso   1.000  C
  C467     1.0000 0.95026  0.77349  0.17244  Biso   1.000  C
  H786     1.0000 0.96086  0.86755  0.29250  Biso   1.000  H
  C468     1.0000 0.90610  0.80190  0.08469  Biso   1.000  C
  H787     1.0000 0.84204  0.95098  0.03598  Biso   1.000  H
  H788     1.0000 0.84204  0.95106  0.03598  Biso   1.000  H
  H789     1.0000 0.84195  0.95098  0.03598  Biso   1.000  H
  H790     1.0000 0.84195  0.95106  0.03598  Biso   1.000  H
  C469     1.0000 0.50527  0.96031  0.23672  Biso   1.000  C
  H791     1.0000 0.68736  0.95683  0.30352  Biso   1.000  H
  C470     1.0000 0.50518  0.96031  0.23672  Biso   1.000  C
  H792     1.0000 0.68726  0.95683  0.30352  Biso   1.000  H
  H793     1.0000 0.63686  0.10972  0.06061  Biso   1.000  H
  C471     1.0000 0.47722  0.04650  0.10108  Biso   1.000  C
  H794     1.0000 0.63676  0.10972  0.06061  Biso   1.000  H
  H795     1.0000 0.01282  0.20841  0.27182  Biso   1.000  H
  C472     1.0000 0.01617  0.20889  0.41127  Biso   1.000  C
  C473     1.0000 0.12415  0.07791  0.31760  Biso   1.000  C
  C474     1.0000 0.01626  0.20889  0.41127  Biso   1.000  C
  C475     1.0000 0.12406  0.07791  0.31760  Biso   1.000  C
  H796     1.0000 0.03913  0.13253  0.70743  Biso   1.000  H
  C476     1.0000 0.16514  0.94270  0.80382  Biso   1.000  C
  C477     1.0000 0.16515  0.94270  0.80389  Biso   1.000  C
  H797     1.0000 0.98342  0.70459  0.19237  Biso   1.000  H
  H798     1.0000 0.98343  0.70459  0.19244  Biso   1.000  H
  H799     1.0000 0.98332  0.70459  0.19237  Biso   1.000  H
  C478     1.0000 0.89611  0.73608  0.99742  Biso   1.000  C
  C479     1.0000 0.89612  0.73608  0.99748  Biso   1.000  C
  C480     1.0000 0.89601  0.73608  0.99742  Biso   1.000  C
  C481     1.0000 0.89603  0.73608  0.99748  Biso   1.000  C
  H800     1.0000 0.47134  0.92063  0.28230  Biso   1.000  H
  N95      1.0000 0.42545  0.99294  0.16360  Biso   1.000  N
  N96      1.0000 0.42536  0.99294  0.16360  Biso   1.000  N
  H801     1.0000 0.42250  0.06979  0.04802  Biso   1.000  H
  H802     1.0000 0.94140  0.25734  0.40889  Biso   1.000  H
  H803     1.0000 0.01814  0.15517  0.46100  Biso   1.000  H
  H804     1.0000 0.09333  0.25507  0.42086  Biso   1.000  H
  H805     1.0000 0.09334  0.25507  0.42093  Biso   1.000  H
  H806     1.0000 0.01814  0.15525  0.46100  Biso   1.000  H
  H807     1.0000 0.09333  0.25515  0.42086  Biso   1.000  H
  H808     1.0000 0.09334  0.25515  0.42093  Biso   1.000  H
  H809     1.0000 0.01804  0.15517  0.46100  Biso   1.000  H
  H810     1.0000 0.09323  0.25507  0.42086  Biso   1.000  H
  H811     1.0000 0.01804  0.15525  0.46100  Biso   1.000  H
  H812     1.0000 0.09323  0.25515  0.42086  Biso   1.000  H
  C482     1.0000 0.02040  0.13204  0.49447  Biso   1.000  C
  H813     1.0000 0.11254  0.03514  0.26060  Biso   1.000  H
  H814     1.0000 0.13115  0.02654  0.36930  Biso   1.000  H
  C483     1.0000 0.24313  0.14381  0.32339  Biso   1.000  C
  H815     1.0000 0.11244  0.03514  0.26060  Biso   1.000  H
  H816     1.0000 0.13106  0.02654  0.36930  Biso   1.000  H
  C484     1.0000 0.24304  0.14381  0.32339  Biso   1.000  C
  H817     1.0000 0.20251  0.12222  0.32182  Biso   1.000  H
  C485     1.0000 0.13246  0.85360  0.86586  Biso   1.000  C
  C486     1.0000 0.31140  0.96153  0.81572  Biso   1.000  C
  C487     1.0000 0.12056  0.90716  0.70314  Biso   1.000  C
  C488     1.0000 0.12056  0.90724  0.70314  Biso   1.000  C
  C489     1.0000 0.31130  0.96153  0.81572  Biso   1.000  C
  C490     1.0000 0.00846  0.75848  0.94796  Biso   1.000  C
  C491     1.0000 0.77167  0.76027  0.93306  Biso   1.000  C
  C492     1.0000 0.77167  0.76035  0.93306  Biso   1.000  C
  C493     1.0000 0.89547  0.61540  0.02218  Biso   1.000  C
  C494     1.0000 0.89548  0.61540  0.02224  Biso   1.000  C
  H818     1.0000 0.93882  0.09390  0.49107  Biso   1.000  H
  H819     1.0000 0.08904  0.07888  0.49419  Biso   1.000  H
  H820     1.0000 0.03601  0.17457  0.55079  Biso   1.000  H
  H821     1.0000 0.26381  0.17473  0.38447  Biso   1.000  H
  H822     1.0000 0.31330  0.09731  0.31087  Biso   1.000  H
  H823     1.0000 0.23024  0.20248  0.27849  Biso   1.000  H
  H824     1.0000 0.26382  0.17473  0.38454  Biso   1.000  H
  H825     1.0000 0.31332  0.09731  0.31094  Biso   1.000  H
  H826     1.0000 0.23024  0.20256  0.27849  Biso   1.000  H
  H827     1.0000 0.23015  0.20248  0.27849  Biso   1.000  H
  H828     1.0000 0.23015  0.20256  0.27849  Biso   1.000  H
  C495     1.0000 0.18834  0.75410  0.88511  Biso   1.000  C
  N97      1.0000 0.02263  0.85546  0.90463  Biso   1.000  N
  C496     1.0000 0.18836  0.75410  0.88518  Biso   1.000  C
  N98      1.0000 0.02273  0.85546  0.90463  Biso   1.000  N
  N99      1.0000 0.02263  0.85554  0.90463  Biso   1.000  N
  N100     1.0000 0.02273  0.85554  0.90463  Biso   1.000  N
  C497     1.0000 0.39425  0.92907  0.89205  Biso   1.000  C
  C498     1.0000 0.39425  0.92915  0.89205  Biso   1.000  C
  C499     1.0000 0.36505  0.01867  0.75015  Biso   1.000  C
  C500     1.0000 0.36505  0.01875  0.75015  Biso   1.000  C
  C501     1.0000 0.99024  0.84881  0.68083  Biso   1.000  C
  H829     1.0000 0.11774  0.97273  0.66437  Biso   1.000  H
  H830     1.0000 0.18641  0.85846  0.68491  Biso   1.000  H
  H831     1.0000 0.18652  0.85846  0.68498  Biso   1.000  H
  H832     1.0000 0.18641  0.85855  0.68491  Biso   1.000  H
  H833     1.0000 0.18652  0.85855  0.68498  Biso   1.000  H
  H834     1.0000 0.18642  0.85846  0.68498  Biso   1.000  H
  H835     1.0000 0.18642  0.85855  0.68498  Biso   1.000  H
  C502     1.0000 0.11075  0.69469  0.93735  Biso   1.000  C
  H836     1.0000 0.77232  0.83582  0.91232  Biso   1.000  H
  H837     1.0000 0.76447  0.71157  0.88041  Biso   1.000  H
  H838     1.0000 0.69897  0.74890  0.96544  Biso   1.000  H
  H839     1.0000 0.77234  0.83582  0.91239  Biso   1.000  H
  H840     1.0000 0.76448  0.71157  0.88048  Biso   1.000  H
  H841     1.0000 0.76447  0.71165  0.88041  Biso   1.000  H
  H842     1.0000 0.76448  0.71165  0.88048  Biso   1.000  H
  H843     1.0000 0.77223  0.83582  0.91232  Biso   1.000  H
  H844     1.0000 0.77224  0.83582  0.91239  Biso   1.000  H
  H845     1.0000 0.89093  0.57166  0.96660  Biso   1.000  H
  H846     1.0000 0.89104  0.57166  0.96667  Biso   1.000  H
  H847     1.0000 0.89093  0.57174  0.96660  Biso   1.000  H
  H848     1.0000 0.89104  0.57174  0.96667  Biso   1.000  H
  H849     1.0000 0.89095  0.57166  0.96667  Biso   1.000  H
  H850     1.0000 0.89095  0.57174  0.96667  Biso   1.000  H
  H851     1.0000 0.82158  0.59966  0.05211  Biso   1.000  H
  H852     1.0000 0.97375  0.59771  0.06347  Biso   1.000  H
  H853     1.0000 0.97386  0.59771  0.06353  Biso   1.000  H
  H854     1.0000 0.82158  0.59974  0.05211  Biso   1.000  H
  H855     1.0000 0.97377  0.59771  0.06353  Biso   1.000  H
  H856     1.0000 0.26528  0.72951  0.86681  Biso   1.000  H
  H857     1.0000 0.26529  0.72951  0.86688  Biso   1.000  H
  H858     1.0000 0.26518  0.72951  0.86681  Biso   1.000  H
  H859     1.0000 0.26520  0.72951  0.86688  Biso   1.000  H
  H860     1.0000 0.96612  0.90902  0.89694  Biso   1.000  H
  H861     1.0000 0.96602  0.90902  0.89694  Biso   1.000  H
  H862     1.0000 0.36322  0.89028  0.93932  Biso   1.000  H
  C503     1.0000 0.52285  0.95350  0.89885  Biso   1.000  C
  H863     1.0000 0.36322  0.89036  0.93932  Biso   1.000  H
  C504     1.0000 0.49481  0.03969  0.76321  Biso   1.000  C
  H864     1.0000 0.31272  0.04317  0.69641  Biso   1.000  H
  C505     1.0000 0.49482  0.03969  0.76328  Biso   1.000  C
  H865     1.0000 0.31274  0.04317  0.69648  Biso   1.000  H
  H866     1.0000 0.31272  0.04326  0.69641  Biso   1.000  H
  H867     1.0000 0.31274  0.04326  0.69648  Biso   1.000  H
  H868     1.0000 0.98726  0.79159  0.72811  Biso   1.000  H
  C506     1.0000 0.98391  0.79111  0.58866  Biso   1.000  C
  C507     1.0000 0.87593  0.92209  0.68233  Biso   1.000  C
  H869     1.0000 0.98728  0.79159  0.72818  Biso   1.000  H
  C508     1.0000 0.98382  0.79111  0.58866  Biso   1.000  C
  H870     1.0000 0.12686  0.62352  0.96075  Biso   1.000  H
  H871     1.0000 0.57758  0.93021  0.95191  Biso   1.000  H
  H872     1.0000 0.57760  0.93021  0.95198  Biso   1.000  H
  H873     1.0000 0.57749  0.93021  0.95191  Biso   1.000  H
  H874     1.0000 0.57750  0.93021  0.95198  Biso   1.000  H
  N101     1.0000 0.57463  0.00706  0.83633  Biso   1.000  N
  N102     1.0000 0.57463  0.00714  0.83633  Biso   1.000  N
  H875     1.0000 0.52874  0.07937  0.71763  Biso   1.000  H
  H876     1.0000 0.52874  0.07945  0.71763  Biso   1.000  H
  H877     1.0000 0.98194  0.84483  0.53893  Biso   1.000  H
  H878     1.0000 0.90675  0.74493  0.57907  Biso   1.000  H
  C509     1.0000 0.97959  0.86804  0.50547  Biso   1.000  C
  H879     1.0000 0.05868  0.74266  0.59104  Biso   1.000  H
  H880     1.0000 0.05868  0.74274  0.59104  Biso   1.000  H
  H881     1.0000 0.05858  0.74266  0.59104  Biso   1.000  H
  H882     1.0000 0.05858  0.74274  0.59104  Biso   1.000  H
  H883     1.0000 0.88754  0.96486  0.73933  Biso   1.000  H
  H884     1.0000 0.86893  0.97346  0.63063  Biso   1.000  H
  C510     1.0000 0.75695  0.85619  0.67655  Biso   1.000  C
  H885     1.0000 0.88754  0.96494  0.73933  Biso   1.000  H
  H886     1.0000 0.86893  0.97354  0.63063  Biso   1.000  H
  H887     1.0000 0.79758  0.87786  0.67818  Biso   1.000  H
  H888     1.0000 0.91104  0.92112  0.50574  Biso   1.000  H
  H889     1.0000 0.96398  0.82543  0.44914  Biso   1.000  H
  H890     1.0000 0.06126  0.90610  0.50887  Biso   1.000  H
  H891     1.0000 0.73627  0.82527  0.61546  Biso   1.000  H
  H892     1.0000 0.68678  0.90269  0.68906  Biso   1.000  H
  H893     1.0000 0.76984  0.79752  0.72144  Biso   1.000  H
  H894     1.0000 0.73627  0.82535  0.61546  Biso   1.000  H
  N103     1.0000 0.97745  0.14454  0.09530  Biso   1.000  N
  C511     1.0000 0.99162  0.24152  0.05197  Biso   1.000  C
  C512     1.0000 0.99164  0.24152  0.05204  Biso   1.000  C
  C513     1.0000 0.99153  0.24152  0.05197  Biso   1.000  C
  C514     1.0000 0.99154  0.24152  0.05204  Biso   1.000  C
  C515     1.0000 0.86762  0.14640  0.13408  Biso   1.000  C
  C516     1.0000 0.86763  0.14640  0.13414  Biso   1.000  C
  H895     1.0000 0.03396  0.09098  0.10299  Biso   1.000  H
  H896     1.0000 0.03396  0.09106  0.10299  Biso   1.000  H
  C517     1.0000 0.10397  0.26392  0.00252  Biso   1.000  C
  C518     1.0000 0.88933  0.30531  0.06258  Biso   1.000  C
  C519     1.0000 0.88934  0.30531  0.06265  Biso   1.000  C
  N104     1.0000 0.97746  0.14454  0.09537  Biso   1.000  N
  C520     1.0000 0.88923  0.30531  0.06258  Biso   1.000  C
  N105     1.0000 0.97735  0.14454  0.09530  Biso   1.000  N
  C521     1.0000 0.88925  0.30531  0.06265  Biso   1.000  C
  N106     1.0000 0.97737  0.14454  0.09537  Biso   1.000  N
  C522     1.0000 0.81174  0.24590  0.11482  Biso   1.000  C
  C523     1.0000 0.81164  0.24590  0.11482  Biso   1.000  C
  C524     1.0000 0.83494  0.05730  0.19611  Biso   1.000  C
  C525     1.0000 0.83485  0.05730  0.19611  Biso   1.000  C
  C526     1.0000 0.09398  0.19810  0.91524  Biso   1.000  C
  C527     1.0000 0.10461  0.38460  0.97776  Biso   1.000  C
  C528     1.0000 0.10452  0.38460  0.97776  Biso   1.000  C
  C529     1.0000 0.22841  0.23973  0.06687  Biso   1.000  C
  C530     1.0000 0.22842  0.23973  0.06694  Biso   1.000  C
  C531     1.0000 0.22831  0.23973  0.06687  Biso   1.000  C
  C532     1.0000 0.22833  0.23973  0.06694  Biso   1.000  C
  H897     1.0000 0.87322  0.37648  0.03918  Biso   1.000  H
  H898     1.0000 0.87323  0.37648  0.03925  Biso   1.000  H
  H899     1.0000 0.87322  0.37656  0.03918  Biso   1.000  H
  H900     1.0000 0.87323  0.37656  0.03925  Biso   1.000  H
  H901     1.0000 0.87313  0.37648  0.03918  Biso   1.000  H
  H902     1.0000 0.87314  0.37648  0.03925  Biso   1.000  H
  H903     1.0000 0.87313  0.37656  0.03918  Biso   1.000  H
  H904     1.0000 0.87314  0.37656  0.03925  Biso   1.000  H
  H905     1.0000 0.73480  0.27049  0.13312  Biso   1.000  H
  C533     1.0000 0.88807  0.94790  0.17387  Biso   1.000  C
  C534     1.0000 0.88809  0.94790  0.17394  Biso   1.000  C
  C535     1.0000 0.68868  0.03847  0.18421  Biso   1.000  C
  C536     1.0000 0.87952  0.09284  0.29679  Biso   1.000  C
  C537     1.0000 0.68868  0.03855  0.18421  Biso   1.000  C
  C538     1.0000 0.04974  0.22651  0.82756  Biso   1.000  C
  N107     1.0000 0.13240  0.09089  0.91402  Biso   1.000  N
  N108     1.0000 0.13242  0.09089  0.91409  Biso   1.000  N
  N109     1.0000 0.13231  0.09089  0.91402  Biso   1.000  N
  N110     1.0000 0.13232  0.09089  0.91409  Biso   1.000  N
  H906     1.0000 0.17850  0.40034  0.94783  Biso   1.000  H
  H907     1.0000 0.02633  0.40229  0.93647  Biso   1.000  H
  H908     1.0000 0.02633  0.40237  0.93647  Biso   1.000  H
  H909     1.0000 0.17840  0.40034  0.94783  Biso   1.000  H
  H910     1.0000 0.02623  0.40229  0.93647  Biso   1.000  H
  H911     1.0000 0.02623  0.40237  0.93647  Biso   1.000  H
  H912     1.0000 0.10915  0.42834  0.03333  Biso   1.000  H
  H913     1.0000 0.10905  0.42834  0.03333  Biso   1.000  H
  H914     1.0000 0.22776  0.16418  0.08761  Biso   1.000  H
  H915     1.0000 0.23561  0.28843  0.11952  Biso   1.000  H
  H916     1.0000 0.30111  0.25110  0.03449  Biso   1.000  H
  H917     1.0000 0.22776  0.16426  0.08761  Biso   1.000  H
  H918     1.0000 0.23552  0.28843  0.11952  Biso   1.000  H
  H919     1.0000 0.30102  0.25110  0.03449  Biso   1.000  H
  C539     1.0000 0.93810  0.86479  0.22829  Biso   1.000  C
  N111     1.0000 0.86768  0.90911  0.08591  Biso   1.000  N
  C540     1.0000 0.63503  0.98133  0.24978  Biso   1.000  C
  C541     1.0000 0.60583  0.07093  0.10789  Biso   1.000  C
  C542     1.0000 0.60574  0.07093  0.10789  Biso   1.000  C
  H920     1.0000 0.88234  0.02727  0.33556  Biso   1.000  H
  H921     1.0000 0.81367  0.14154  0.31502  Biso   1.000  H
  H922     1.0000 0.88236  0.02727  0.33563  Biso   1.000  H
  H923     1.0000 0.88234  0.02735  0.33556  Biso   1.000  H
  H924     1.0000 0.88236  0.02735  0.33563  Biso   1.000  H
  H925     1.0000 0.88225  0.02727  0.33556  Biso   1.000  H
  H926     1.0000 0.81358  0.14154  0.31502  Biso   1.000  H
  H927     1.0000 0.88226  0.02727  0.33563  Biso   1.000  H
  H928     1.0000 0.88225  0.02735  0.33556  Biso   1.000  H
  H929     1.0000 0.88226  0.02735  0.33563  Biso   1.000  H
  C543     1.0000 0.00984  0.15119  0.31910  Biso   1.000  C
  C544     1.0000 0.00974  0.15119  0.31910  Biso   1.000  C
  C545     1.0000 0.06198  0.13521  0.77164  Biso   1.000  C
  H930     1.0000 0.01666  0.29541  0.80756  Biso   1.000  H
  C546     1.0000 0.06188  0.13521  0.77164  Biso   1.000  C
  C547     1.0000 0.11201  0.05210  0.82606  Biso   1.000  C
  H931     1.0000 0.15804  0.04902  0.96395  Biso   1.000  H
  C548     1.0000 0.11191  0.05210  0.82606  Biso   1.000  C
  H932     1.0000 0.96095  0.86747  0.29250  Biso   1.000  H
  C549     1.0000 0.95034  0.77349  0.17237  Biso   1.000  C
  C550     1.0000 0.95036  0.77349  0.17244  Biso   1.000  C
  H933     1.0000 0.96095  0.86755  0.29250  Biso   1.000  H
  H934     1.0000 0.96086  0.86747  0.29250  Biso   1.000  H
  C551     1.0000 0.95025  0.77349  0.17237  Biso   1.000  C
  C552     1.0000 0.95026  0.77349  0.17244  Biso   1.000  C
  H935     1.0000 0.96086  0.86755  0.29250  Biso   1.000  H
  C553     1.0000 0.90610  0.80190  0.08469  Biso   1.000  C
  H936     1.0000 0.84204  0.95098  0.03598  Biso   1.000  H
  H937     1.0000 0.84204  0.95106  0.03598  Biso   1.000  H
  H938     1.0000 0.84195  0.95098  0.03598  Biso   1.000  H
  H939     1.0000 0.84195  0.95106  0.03598  Biso   1.000  H
  C554     1.0000 0.50527  0.96031  0.23672  Biso   1.000  C
  H940     1.0000 0.68736  0.95683  0.30352  Biso   1.000  H
  C555     1.0000 0.50518  0.96031  0.23672  Biso   1.000  C
  H941     1.0000 0.68726  0.95683  0.30352  Biso   1.000  H
  H942     1.0000 0.63686  0.10972  0.06061  Biso   1.000  H
  C556     1.0000 0.47722  0.04650  0.10108  Biso   1.000  C
  H943     1.0000 0.63676  0.10972  0.06061  Biso   1.000  H
  H944     1.0000 0.01282  0.20841  0.27182  Biso   1.000  H
  C557     1.0000 0.01617  0.20889  0.41127  Biso   1.000  C
  C558     1.0000 0.12415  0.07791  0.31760  Biso   1.000  C
  C559     1.0000 0.01626  0.20889  0.41127  Biso   1.000  C
  C560     1.0000 0.12406  0.07791  0.31760  Biso   1.000  C
  H945     1.0000 0.03913  0.13253  0.70743  Biso   1.000  H
  C561     1.0000 0.16514  0.94270  0.80382  Biso   1.000  C
  C562     1.0000 0.16515  0.94270  0.80389  Biso   1.000  C
  H946     1.0000 0.98342  0.70459  0.19237  Biso   1.000  H
  H947     1.0000 0.98343  0.70459  0.19244  Biso   1.000  H
  H948     1.0000 0.98332  0.70459  0.19237  Biso   1.000  H
  C563     1.0000 0.89611  0.73608  0.99742  Biso   1.000  C
  C564     1.0000 0.89612  0.73608  0.99748  Biso   1.000  C
  C565     1.0000 0.89601  0.73608  0.99742  Biso   1.000  C
  C566     1.0000 0.89603  0.73608  0.99748  Biso   1.000  C
  H949     1.0000 0.47134  0.92063  0.28230  Biso   1.000  H
  N112     1.0000 0.42545  0.99294  0.16360  Biso   1.000  N
  N113     1.0000 0.42536  0.99294  0.16360  Biso   1.000  N
  H950     1.0000 0.42250  0.06979  0.04802  Biso   1.000  H
  H951     1.0000 0.94140  0.25734  0.40889  Biso   1.000  H
  H952     1.0000 0.01814  0.15517  0.46100  Biso   1.000  H
  H953     1.0000 0.09333  0.25507  0.42086  Biso   1.000  H
  H954     1.0000 0.09334  0.25507  0.42093  Biso   1.000  H
  H955     1.0000 0.01814  0.15525  0.46100  Biso   1.000  H
  H956     1.0000 0.09333  0.25515  0.42086  Biso   1.000  H
  H957     1.0000 0.09334  0.25515  0.42093  Biso   1.000  H
  H958     1.0000 0.01804  0.15517  0.46100  Biso   1.000  H
  H959     1.0000 0.09323  0.25507  0.42086  Biso   1.000  H
  H960     1.0000 0.01804  0.15525  0.46100  Biso   1.000  H
  H961     1.0000 0.09323  0.25515  0.42086  Biso   1.000  H
  C567     1.0000 0.02040  0.13204  0.49447  Biso   1.000  C
  H962     1.0000 0.11254  0.03514  0.26060  Biso   1.000  H
  H963     1.0000 0.13115  0.02654  0.36930  Biso   1.000  H
  C568     1.0000 0.24313  0.14381  0.32339  Biso   1.000  C
  H964     1.0000 0.11244  0.03514  0.26060  Biso   1.000  H
  H965     1.0000 0.13106  0.02654  0.36930  Biso   1.000  H
  C569     1.0000 0.24304  0.14381  0.32339  Biso   1.000  C
  H966     1.0000 0.20251  0.12222  0.32182  Biso   1.000  H
  C570     1.0000 0.13246  0.85360  0.86586  Biso   1.000  C
  C571     1.0000 0.31140  0.96153  0.81572  Biso   1.000  C
  C572     1.0000 0.12056  0.90716  0.70314  Biso   1.000  C
  C573     1.0000 0.12056  0.90724  0.70314  Biso   1.000  C
  C574     1.0000 0.31130  0.96153  0.81572  Biso   1.000  C
  C575     1.0000 0.00846  0.75848  0.94796  Biso   1.000  C
  C576     1.0000 0.77167  0.76027  0.93306  Biso   1.000  C
  C577     1.0000 0.77167  0.76035  0.93306  Biso   1.000  C
  C578     1.0000 0.89547  0.61540  0.02218  Biso   1.000  C
  C579     1.0000 0.89548  0.61540  0.02224  Biso   1.000  C
  H967     1.0000 0.93882  0.09390  0.49107  Biso   1.000  H
  H968     1.0000 0.08904  0.07888  0.49419  Biso   1.000  H
  H969     1.0000 0.03601  0.17457  0.55079  Biso   1.000  H
  H970     1.0000 0.26381  0.17473  0.38447  Biso   1.000  H
  H971     1.0000 0.31330  0.09731  0.31087  Biso   1.000  H
  H972     1.0000 0.23024  0.20248  0.27849  Biso   1.000  H
  H973     1.0000 0.26382  0.17473  0.38454  Biso   1.000  H
  H974     1.0000 0.31332  0.09731  0.31094  Biso   1.000  H
  H975     1.0000 0.23024  0.20256  0.27849  Biso   1.000  H
  H976     1.0000 0.23015  0.20248  0.27849  Biso   1.000  H
  H977     1.0000 0.23015  0.20256  0.27849  Biso   1.000  H
  C580     1.0000 0.18834  0.75410  0.88511  Biso   1.000  C
  N114     1.0000 0.02263  0.85546  0.90463  Biso   1.000  N
  C581     1.0000 0.18836  0.75410  0.88518  Biso   1.000  C
  N115     1.0000 0.02273  0.85546  0.90463  Biso   1.000  N
  N116     1.0000 0.02263  0.85554  0.90463  Biso   1.000  N
  N117     1.0000 0.02273  0.85554  0.90463  Biso   1.000  N
  C582     1.0000 0.39425  0.92907  0.89205  Biso   1.000  C
  C583     1.0000 0.39425  0.92915  0.89205  Biso   1.000  C
  C584     1.0000 0.36505  0.01867  0.75015  Biso   1.000  C
  C585     1.0000 0.36505  0.01875  0.75015  Biso   1.000  C
  C586     1.0000 0.99024  0.84881  0.68083  Biso   1.000  C
  H978     1.0000 0.11774  0.97273  0.66437  Biso   1.000  H
  H979     1.0000 0.18641  0.85846  0.68491  Biso   1.000  H
  H980     1.0000 0.18652  0.85846  0.68498  Biso   1.000  H
  H981     1.0000 0.18641  0.85855  0.68491  Biso   1.000  H
  H982     1.0000 0.18652  0.85855  0.68498  Biso   1.000  H
  H983     1.0000 0.18642  0.85846  0.68498  Biso   1.000  H
  H984     1.0000 0.18642  0.85855  0.68498  Biso   1.000  H
  C587     1.0000 0.11075  0.69469  0.93735  Biso   1.000  C
  H985     1.0000 0.77232  0.83582  0.91232  Biso   1.000  H
  H986     1.0000 0.76447  0.71157  0.88041  Biso   1.000  H
  H987     1.0000 0.69897  0.74890  0.96544  Biso   1.000  H
  H988     1.0000 0.77234  0.83582  0.91239  Biso   1.000  H
  H989     1.0000 0.76448  0.71157  0.88048  Biso   1.000  H
  H990     1.0000 0.76447  0.71165  0.88041  Biso   1.000  H
  H991     1.0000 0.76448  0.71165  0.88048  Biso   1.000  H
  H992     1.0000 0.77223  0.83582  0.91232  Biso   1.000  H
  H993     1.0000 0.77224  0.83582  0.91239  Biso   1.000  H
  H994     1.0000 0.89093  0.57166  0.96660  Biso   1.000  H
  H995     1.0000 0.89104  0.57166  0.96667  Biso   1.000  H
  H996     1.0000 0.89093  0.57174  0.96660  Biso   1.000  H
  H997     1.0000 0.89104  0.57174  0.96667  Biso   1.000  H
  H998     1.0000 0.89095  0.57166  0.96667  Biso   1.000  H
  H999     1.0000 0.89095  0.57174  0.96667  Biso   1.000  H
  H1000    1.0000 0.82158  0.59966  0.05211  Biso   1.000  H
  H1001    1.0000 0.97375  0.59771  0.06347  Biso   1.000  H
  H1002    1.0000 0.97386  0.59771  0.06353  Biso   1.000  H
  H1003    1.0000 0.82158  0.59974  0.05211  Biso   1.000  H
  H1004    1.0000 0.97377  0.59771  0.06353  Biso   1.000  H
  H1005    1.0000 0.26528  0.72951  0.86681  Biso   1.000  H
  H1006    1.0000 0.26529  0.72951  0.86688  Biso   1.000  H
  H1007    1.0000 0.26518  0.72951  0.86681  Biso   1.000  H
  H1008    1.0000 0.26520  0.72951  0.86688  Biso   1.000  H
  H1009    1.0000 0.96612  0.90902  0.89694  Biso   1.000  H
  H1010    1.0000 0.96602  0.90902  0.89694  Biso   1.000  H
  H1011    1.0000 0.36322  0.89028  0.93932  Biso   1.000  H
  C588     1.0000 0.52285  0.95350  0.89885  Biso   1.000  C
  H1012    1.0000 0.36322  0.89036  0.93932  Biso   1.000  H
  C589     1.0000 0.49481  0.03969  0.76321  Biso   1.000  C
  H1013    1.0000 0.31272  0.04317  0.69641  Biso   1.000  H
  C590     1.0000 0.49482  0.03969  0.76328  Biso   1.000  C
  H1014    1.0000 0.31274  0.04317  0.69648  Biso   1.000  H
  H1015    1.0000 0.31272  0.04326  0.69641  Biso   1.000  H
  H1016    1.0000 0.31274  0.04326  0.69648  Biso   1.000  H
  H1017    1.0000 0.98726  0.79159  0.72811  Biso   1.000  H
  C591     1.0000 0.98391  0.79111  0.58866  Biso   1.000  C
  C592     1.0000 0.87593  0.92209  0.68233  Biso   1.000  C
  H1018    1.0000 0.98728  0.79159  0.72818  Biso   1.000  H
  C593     1.0000 0.98382  0.79111  0.58866  Biso   1.000  C
  H1019    1.0000 0.12686  0.62352  0.96075  Biso   1.000  H
  H1020    1.0000 0.57758  0.93021  0.95191  Biso   1.000  H
  H1021    1.0000 0.57760  0.93021  0.95198  Biso   1.000  H
  H1022    1.0000 0.57749  0.93021  0.95191  Biso   1.000  H
  H1023    1.0000 0.57750  0.93021  0.95198  Biso   1.000  H
  N118     1.0000 0.57463  0.00706  0.83633  Biso   1.000  N
  N119     1.0000 0.57463  0.00714  0.83633  Biso   1.000  N
  H1024    1.0000 0.52874  0.07937  0.71763  Biso   1.000  H
  H1025    1.0000 0.52874  0.07945  0.71763  Biso   1.000  H
  H1026    1.0000 0.98194  0.84483  0.53893  Biso   1.000  H
  H1027    1.0000 0.90675  0.74493  0.57907  Biso   1.000  H
  C594     1.0000 0.97959  0.86804  0.50547  Biso   1.000  C
  H1028    1.0000 0.05868  0.74266  0.59104  Biso   1.000  H
  H1029    1.0000 0.05868  0.74274  0.59104  Biso   1.000  H
  H1030    1.0000 0.05858  0.74266  0.59104  Biso   1.000  H
  H1031    1.0000 0.05858  0.74274  0.59104  Biso   1.000  H
  H1032    1.0000 0.88754  0.96486  0.73933  Biso   1.000  H
  H1033    1.0000 0.86893  0.97346  0.63063  Biso   1.000  H
  C595     1.0000 0.75695  0.85619  0.67655  Biso   1.000  C
  H1034    1.0000 0.88754  0.96494  0.73933  Biso   1.000  H
  H1035    1.0000 0.86893  0.97354  0.63063  Biso   1.000  H
  H1036    1.0000 0.79758  0.87786  0.67818  Biso   1.000  H
  H1037    1.0000 0.91104  0.92112  0.50574  Biso   1.000  H
  H1038    1.0000 0.96398  0.82543  0.44914  Biso   1.000  H
  H1039    1.0000 0.06126  0.90610  0.50887  Biso   1.000  H
  H1040    1.0000 0.73627  0.82527  0.61546  Biso   1.000  H
  H1041    1.0000 0.68678  0.90269  0.68906  Biso   1.000  H
  H1042    1.0000 0.76984  0.79752  0.72144  Biso   1.000  H
  H1043    1.0000 0.73627  0.82535  0.61546  Biso   1.000  H
  N120     1.0000 0.97745  0.14454  0.09530  Biso   1.000  N
  C596     1.0000 0.99162  0.24152  0.05197  Biso   1.000  C
  C597     1.0000 0.99164  0.24152  0.05204  Biso   1.000  C
  C598     1.0000 0.99153  0.24152  0.05197  Biso   1.000  C
  C599     1.0000 0.99154  0.24152  0.05204  Biso   1.000  C
  C600     1.0000 0.86762  0.14640  0.13408  Biso   1.000  C
  C601     1.0000 0.86763  0.14640  0.13414  Biso   1.000  C
  H1044    1.0000 0.03396  0.09098  0.10299  Biso   1.000  H
  H1045    1.0000 0.03396  0.09106  0.10299  Biso   1.000  H
  C602     1.0000 0.10397  0.26392  0.00252  Biso   1.000  C
  C603     1.0000 0.88933  0.30531  0.06258  Biso   1.000  C
  C604     1.0000 0.88934  0.30531  0.06265  Biso   1.000  C
  N121     1.0000 0.97746  0.14454  0.09537  Biso   1.000  N
  C605     1.0000 0.88923  0.30531  0.06258  Biso   1.000  C
  N122     1.0000 0.97735  0.14454  0.09530  Biso   1.000  N
  C606     1.0000 0.88925  0.30531  0.06265  Biso   1.000  C
  N123     1.0000 0.97737  0.14454  0.09537  Biso   1.000  N
  C607     1.0000 0.81174  0.24590  0.11482  Biso   1.000  C
  C608     1.0000 0.81164  0.24590  0.11482  Biso   1.000  C
  C609     1.0000 0.83494  0.05730  0.19611  Biso   1.000  C
  C610     1.0000 0.83485  0.05730  0.19611  Biso   1.000  C
  C611     1.0000 0.09398  0.19810  0.91524  Biso   1.000  C
  C612     1.0000 0.10461  0.38460  0.97776  Biso   1.000  C
  C613     1.0000 0.10452  0.38460  0.97776  Biso   1.000  C
  C614     1.0000 0.22841  0.23973  0.06687  Biso   1.000  C
  C615     1.0000 0.22842  0.23973  0.06694  Biso   1.000  C
  C616     1.0000 0.22831  0.23973  0.06687  Biso   1.000  C
  C617     1.0000 0.22833  0.23973  0.06694  Biso   1.000  C
  H1046    1.0000 0.87322  0.37648  0.03918  Biso   1.000  H
  H1047    1.0000 0.87323  0.37648  0.03925  Biso   1.000  H
  H1048    1.0000 0.87322  0.37656  0.03918  Biso   1.000  H
  H1049    1.0000 0.87323  0.37656  0.03925  Biso   1.000  H
  H1050    1.0000 0.87313  0.37648  0.03918  Biso   1.000  H
  H1051    1.0000 0.87314  0.37648  0.03925  Biso   1.000  H
  H1052    1.0000 0.87313  0.37656  0.03918  Biso   1.000  H
  H1053    1.0000 0.87314  0.37656  0.03925  Biso   1.000  H
  H1054    1.0000 0.73480  0.27049  0.13312  Biso   1.000  H
  C618     1.0000 0.88807  0.94790  0.17387  Biso   1.000  C
  C619     1.0000 0.88809  0.94790  0.17394  Biso   1.000  C
  C620     1.0000 0.68868  0.03847  0.18421  Biso   1.000  C
  C621     1.0000 0.87952  0.09284  0.29679  Biso   1.000  C
  C622     1.0000 0.68868  0.03855  0.18421  Biso   1.000  C
  C623     1.0000 0.04974  0.22651  0.82756  Biso   1.000  C
  N124     1.0000 0.13240  0.09089  0.91402  Biso   1.000  N
  N125     1.0000 0.13242  0.09089  0.91409  Biso   1.000  N
  N126     1.0000 0.13231  0.09089  0.91402  Biso   1.000  N
  N127     1.0000 0.13232  0.09089  0.91409  Biso   1.000  N
  H1055    1.0000 0.17850  0.40034  0.94783  Biso   1.000  H
  H1056    1.0000 0.02633  0.40229  0.93647  Biso   1.000  H
  H1057    1.0000 0.02633  0.40237  0.93647  Biso   1.000  H
  H1058    1.0000 0.17840  0.40034  0.94783  Biso   1.000  H
  H1059    1.0000 0.02623  0.40229  0.93647  Biso   1.000  H
  H1060    1.0000 0.02623  0.40237  0.93647  Biso   1.000  H
  H1061    1.0000 0.10915  0.42834  0.03333  Biso   1.000  H
  H1062    1.0000 0.10905  0.42834  0.03333  Biso   1.000  H
  H1063    1.0000 0.22776  0.16418  0.08761  Biso   1.000  H
  H1064    1.0000 0.23561  0.28843  0.11952  Biso   1.000  H
  H1065    1.0000 0.30111  0.25110  0.03449  Biso   1.000  H
  H1066    1.0000 0.22776  0.16426  0.08761  Biso   1.000  H
  H1067    1.0000 0.23552  0.28843  0.11952  Biso   1.000  H
  H1068    1.0000 0.30102  0.25110  0.03449  Biso   1.000  H
  C624     1.0000 0.93810  0.86479  0.22829  Biso   1.000  C
  N128     1.0000 0.86768  0.90911  0.08591  Biso   1.000  N
  C625     1.0000 0.63503  0.98133  0.24978  Biso   1.000  C
  C626     1.0000 0.60583  0.07093  0.10789  Biso   1.000  C
  C627     1.0000 0.60574  0.07093  0.10789  Biso   1.000  C
  H1069    1.0000 0.88234  0.02727  0.33556  Biso   1.000  H
  H1070    1.0000 0.81367  0.14154  0.31502  Biso   1.000  H
  H1071    1.0000 0.88236  0.02727  0.33563  Biso   1.000  H
  H1072    1.0000 0.88234  0.02735  0.33556  Biso   1.000  H
  H1073    1.0000 0.88236  0.02735  0.33563  Biso   1.000  H
  H1074    1.0000 0.88225  0.02727  0.33556  Biso   1.000  H
  H1075    1.0000 0.81358  0.14154  0.31502  Biso   1.000  H
  H1076    1.0000 0.88226  0.02727  0.33563  Biso   1.000  H
  H1077    1.0000 0.88225  0.02735  0.33556  Biso   1.000  H
  H1078    1.0000 0.88226  0.02735  0.33563  Biso   1.000  H
  C628     1.0000 0.00984  0.15119  0.31910  Biso   1.000  C
  C629     1.0000 0.00974  0.15119  0.31910  Biso   1.000  C
  C630     1.0000 0.06198  0.13521  0.77164  Biso   1.000  C
  H1079    1.0000 0.01666  0.29541  0.80756  Biso   1.000  H
  C631     1.0000 0.06188  0.13521  0.77164  Biso   1.000  C
  C632     1.0000 0.11201  0.05210  0.82606  Biso   1.000  C
  H1080    1.0000 0.15804  0.04902  0.96395  Biso   1.000  H
  C633     1.0000 0.11191  0.05210  0.82606  Biso   1.000  C
  H1081    1.0000 0.96095  0.86747  0.29250  Biso   1.000  H
  C634     1.0000 0.95034  0.77349  0.17237  Biso   1.000  C
  C635     1.0000 0.95036  0.77349  0.17244  Biso   1.000  C
  H1082    1.0000 0.96095  0.86755  0.29250  Biso   1.000  H
  H1083    1.0000 0.96086  0.86747  0.29250  Biso   1.000  H
  C636     1.0000 0.95025  0.77349  0.17237  Biso   1.000  C
  C637     1.0000 0.95026  0.77349  0.17244  Biso   1.000  C
  H1084    1.0000 0.96086  0.86755  0.29250  Biso   1.000  H
  C638     1.0000 0.90610  0.80190  0.08469  Biso   1.000  C
  H1085    1.0000 0.84204  0.95098  0.03598  Biso   1.000  H
  H1086    1.0000 0.84204  0.95106  0.03598  Biso   1.000  H
  H1087    1.0000 0.84195  0.95098  0.03598  Biso   1.000  H
  H1088    1.0000 0.84195  0.95106  0.03598  Biso   1.000  H
  C639     1.0000 0.50527  0.96031  0.23672  Biso   1.000  C
  H1089    1.0000 0.68736  0.95683  0.30352  Biso   1.000  H
  C640     1.0000 0.50518  0.96031  0.23672  Biso   1.000  C
  H1090    1.0000 0.68726  0.95683  0.30352  Biso   1.000  H
  H1091    1.0000 0.63686  0.10972  0.06061  Biso   1.000  H
  C641     1.0000 0.47722  0.04650  0.10108  Biso   1.000  C
  H1092    1.0000 0.63676  0.10972  0.06061  Biso   1.000  H
  H1093    1.0000 0.01282  0.20841  0.27182  Biso   1.000  H
  C642     1.0000 0.01617  0.20889  0.41127  Biso   1.000  C
  C643     1.0000 0.12415  0.07791  0.31760  Biso   1.000  C
  C644     1.0000 0.01626  0.20889  0.41127  Biso   1.000  C
  C645     1.0000 0.12406  0.07791  0.31760  Biso   1.000  C
  H1094    1.0000 0.03913  0.13253  0.70743  Biso   1.000  H
  C646     1.0000 0.16514  0.94270  0.80382  Biso   1.000  C
  C647     1.0000 0.16515  0.94270  0.80389  Biso   1.000  C
  H1095    1.0000 0.98342  0.70459  0.19237  Biso   1.000  H
  H1096    1.0000 0.98343  0.70459  0.19244  Biso   1.000  H
  H1097    1.0000 0.98332  0.70459  0.19237  Biso   1.000  H
  C648     1.0000 0.89611  0.73608  0.99742  Biso   1.000  C
  C649     1.0000 0.89612  0.73608  0.99748  Biso   1.000  C
  C650     1.0000 0.89601  0.73608  0.99742  Biso   1.000  C
  C651     1.0000 0.89603  0.73608  0.99748  Biso   1.000  C
  H1098    1.0000 0.47134  0.92063  0.28230  Biso   1.000  H
  N129     1.0000 0.42545  0.99294  0.16360  Biso   1.000  N
  N130     1.0000 0.42536  0.99294  0.16360  Biso   1.000  N
  H1099    1.0000 0.42250  0.06979  0.04802  Biso   1.000  H
  H1100    1.0000 0.94140  0.25734  0.40889  Biso   1.000  H
  H1101    1.0000 0.01814  0.15517  0.46100  Biso   1.000  H
  H1102    1.0000 0.09333  0.25507  0.42086  Biso   1.000  H
  H1103    1.0000 0.09334  0.25507  0.42093  Biso   1.000  H
  H1104    1.0000 0.01814  0.15525  0.46100  Biso   1.000  H
  H1105    1.0000 0.09333  0.25515  0.42086  Biso   1.000  H
  H1106    1.0000 0.09334  0.25515  0.42093  Biso   1.000  H
  H1107    1.0000 0.01804  0.15517  0.46100  Biso   1.000  H
  H1108    1.0000 0.09323  0.25507  0.42086  Biso   1.000  H
  H1109    1.0000 0.01804  0.15525  0.46100  Biso   1.000  H
  H1110    1.0000 0.09323  0.25515  0.42086  Biso   1.000  H
  C652     1.0000 0.02040  0.13204  0.49447  Biso   1.000  C
  H1111    1.0000 0.11254  0.03514  0.26060  Biso   1.000  H
  H1112    1.0000 0.13115  0.02654  0.36930  Biso   1.000  H
  C653     1.0000 0.24313  0.14381  0.32339  Biso   1.000  C
  H1113    1.0000 0.11244  0.03514  0.26060  Biso   1.000  H
  H1114    1.0000 0.13106  0.02654  0.36930  Biso   1.000  H
  C654     1.0000 0.24304  0.14381  0.32339  Biso   1.000  C
  H1115    1.0000 0.20251  0.12222  0.32182  Biso   1.000  H
  C655     1.0000 0.13246  0.85360  0.86586  Biso   1.000  C
  C656     1.0000 0.31140  0.96153  0.81572  Biso   1.000  C
  C657     1.0000 0.12056  0.90716  0.70314  Biso   1.000  C
  C658     1.0000 0.12056  0.90724  0.70314  Biso   1.000  C
  C659     1.0000 0.31130  0.96153  0.81572  Biso   1.000  C
  C660     1.0000 0.00846  0.75848  0.94796  Biso   1.000  C
  C661     1.0000 0.77167  0.76027  0.93306  Biso   1.000  C
  C662     1.0000 0.77167  0.76035  0.93306  Biso   1.000  C
  C663     1.0000 0.89547  0.61540  0.02218  Biso   1.000  C
  C664     1.0000 0.89548  0.61540  0.02224  Biso   1.000  C
  H1116    1.0000 0.93882  0.09390  0.49107  Biso   1.000  H
  H1117    1.0000 0.08904  0.07888  0.49419  Biso   1.000  H
  H1118    1.0000 0.03601  0.17457  0.55079  Biso   1.000  H
  H1119    1.0000 0.26381  0.17473  0.38447  Biso   1.000  H
  H1120    1.0000 0.31330  0.09731  0.31087  Biso   1.000  H
  H1121    1.0000 0.23024  0.20248  0.27849  Biso   1.000  H
  H1122    1.0000 0.26382  0.17473  0.38454  Biso   1.000  H
  H1123    1.0000 0.31332  0.09731  0.31094  Biso   1.000  H
  H1124    1.0000 0.23024  0.20256  0.27849  Biso   1.000  H
  H1125    1.0000 0.23015  0.20248  0.27849  Biso   1.000  H
  H1126    1.0000 0.23015  0.20256  0.27849  Biso   1.000  H
  C665     1.0000 0.18834  0.75410  0.88511  Biso   1.000  C
  N131     1.0000 0.02263  0.85546  0.90463  Biso   1.000  N
  C666     1.0000 0.18836  0.75410  0.88518  Biso   1.000  C
  N132     1.0000 0.02273  0.85546  0.90463  Biso   1.000  N
  N133     1.0000 0.02263  0.85554  0.90463  Biso   1.000  N
  N134     1.0000 0.02273  0.85554  0.90463  Biso   1.000  N
  C667     1.0000 0.39425  0.92907  0.89205  Biso   1.000  C
  C668     1.0000 0.39425  0.92915  0.89205  Biso   1.000  C
  C669     1.0000 0.36505  0.01867  0.75015  Biso   1.000  C
  C670     1.0000 0.36505  0.01875  0.75015  Biso   1.000  C
  C671     1.0000 0.99024  0.84881  0.68083  Biso   1.000  C
  H1127    1.0000 0.11774  0.97273  0.66437  Biso   1.000  H
  H1128    1.0000 0.18641  0.85846  0.68491  Biso   1.000  H
  H1129    1.0000 0.18652  0.85846  0.68498  Biso   1.000  H
  H1130    1.0000 0.18641  0.85855  0.68491  Biso   1.000  H
  H1131    1.0000 0.18652  0.85855  0.68498  Biso   1.000  H
  H1132    1.0000 0.18642  0.85846  0.68498  Biso   1.000  H
  H1133    1.0000 0.18642  0.85855  0.68498  Biso   1.000  H
  C672     1.0000 0.11075  0.69469  0.93735  Biso   1.000  C
  H1134    1.0000 0.77232  0.83582  0.91232  Biso   1.000  H
  H1135    1.0000 0.76447  0.71157  0.88041  Biso   1.000  H
  H1136    1.0000 0.69897  0.74890  0.96544  Biso   1.000  H
  H1137    1.0000 0.77234  0.83582  0.91239  Biso   1.000  H
  H1138    1.0000 0.76448  0.71157  0.88048  Biso   1.000  H
  H1139    1.0000 0.76447  0.71165  0.88041  Biso   1.000  H
  H1140    1.0000 0.76448  0.71165  0.88048  Biso   1.000  H
  H1141    1.0000 0.77223  0.83582  0.91232  Biso   1.000  H
  H1142    1.0000 0.77224  0.83582  0.91239  Biso   1.000  H
  H1143    1.0000 0.89093  0.57166  0.96660  Biso   1.000  H
  H1144    1.0000 0.89104  0.57166  0.96667  Biso   1.000  H
  H1145    1.0000 0.89093  0.57174  0.96660  Biso   1.000  H
  H1146    1.0000 0.89104  0.57174  0.96667  Biso   1.000  H
  H1147    1.0000 0.89095  0.57166  0.96667  Biso   1.000  H
  H1148    1.0000 0.89095  0.57174  0.96667  Biso   1.000  H
  H1149    1.0000 0.82158  0.59966  0.05211  Biso   1.000  H
  H1150    1.0000 0.97375  0.59771  0.06347  Biso   1.000  H
  H1151    1.0000 0.97386  0.59771  0.06353  Biso   1.000  H
  H1152    1.0000 0.82158  0.59974  0.05211  Biso   1.000  H
  H1153    1.0000 0.97377  0.59771  0.06353  Biso   1.000  H
  H1154    1.0000 0.26528  0.72951  0.86681  Biso   1.000  H
  H1155    1.0000 0.26529  0.72951  0.86688  Biso   1.000  H
  H1156    1.0000 0.26518  0.72951  0.86681  Biso   1.000  H
  H1157    1.0000 0.26520  0.72951  0.86688  Biso   1.000  H
  H1158    1.0000 0.96612  0.90902  0.89694  Biso   1.000  H
  H1159    1.0000 0.96602  0.90902  0.89694  Biso   1.000  H
  H1160    1.0000 0.36322  0.89028  0.93932  Biso   1.000  H
  C673     1.0000 0.52285  0.95350  0.89885  Biso   1.000  C
  H1161    1.0000 0.36322  0.89036  0.93932  Biso   1.000  H
  C674     1.0000 0.49481  0.03969  0.76321  Biso   1.000  C
  H1162    1.0000 0.31272  0.04317  0.69641  Biso   1.000  H
  C675     1.0000 0.49482  0.03969  0.76328  Biso   1.000  C
  H1163    1.0000 0.31274  0.04317  0.69648  Biso   1.000  H
  H1164    1.0000 0.31272  0.04326  0.69641  Biso   1.000  H
  H1165    1.0000 0.31274  0.04326  0.69648  Biso   1.000  H
  H1166    1.0000 0.98726  0.79159  0.72811  Biso   1.000  H
  C676     1.0000 0.98391  0.79111  0.58866  Biso   1.000  C
  C677     1.0000 0.87593  0.92209  0.68233  Biso   1.000  C
  H1167    1.0000 0.98728  0.79159  0.72818  Biso   1.000  H
  C678     1.0000 0.98382  0.79111  0.58866  Biso   1.000  C
  H1168    1.0000 0.12686  0.62352  0.96075  Biso   1.000  H
  H1169    1.0000 0.57758  0.93021  0.95191  Biso   1.000  H
  H1170    1.0000 0.57760  0.93021  0.95198  Biso   1.000  H
  H1171    1.0000 0.57749  0.93021  0.95191  Biso   1.000  H
  H1172    1.0000 0.57750  0.93021  0.95198  Biso   1.000  H
  N135     1.0000 0.57463  0.00706  0.83633  Biso   1.000  N
  N136     1.0000 0.57463  0.00714  0.83633  Biso   1.000  N
  H1173    1.0000 0.52874  0.07937  0.71763  Biso   1.000  H
  H1174    1.0000 0.52874  0.07945  0.71763  Biso   1.000  H
  H1175    1.0000 0.98194  0.84483  0.53893  Biso   1.000  H
  H1176    1.0000 0.90675  0.74493  0.57907  Biso   1.000  H
  C679     1.0000 0.97959  0.86804  0.50547  Biso   1.000  C
  H1177    1.0000 0.05868  0.74266  0.59104  Biso   1.000  H
  H1178    1.0000 0.05868  0.74274  0.59104  Biso   1.000  H
  H1179    1.0000 0.05858  0.74266  0.59104  Biso   1.000  H
  H1180    1.0000 0.05858  0.74274  0.59104  Biso   1.000  H
  H1181    1.0000 0.88754  0.96486  0.73933  Biso   1.000  H
  H1182    1.0000 0.86893  0.97346  0.63063  Biso   1.000  H
  C680     1.0000 0.75695  0.85619  0.67655  Biso   1.000  C
  H1183    1.0000 0.88754  0.96494  0.73933  Biso   1.000  H
  H1184    1.0000 0.86893  0.97354  0.63063  Biso   1.000  H
  H1185    1.0000 0.79758  0.87786  0.67818  Biso   1.000  H
  H1186    1.0000 0.91104  0.92112  0.50574  Biso   1.000  H
  H1187    1.0000 0.96398  0.82543  0.44914  Biso   1.000  H
  H1188    1.0000 0.06126  0.90610  0.50887  Biso   1.000  H
  H1189    1.0000 0.73627  0.82527  0.61546  Biso   1.000  H
  H1190    1.0000 0.68678  0.90269  0.68906  Biso   1.000  H
  H1191    1.0000 0.76984  0.79752  0.72144  Biso   1.000  H
  H1192    1.0000 0.73627  0.82535  0.61546  Biso   1.000  H
  C681     1.0000 0.54973  0.27349  0.32760  Biso   1.000  C
  C682     1.0000 0.56187  0.36479  0.27169  Biso   1.000  C
  H1193    1.0000 0.51656  0.20459  0.30760  Biso   1.000  H
  C683     1.0000 0.59388  0.30190  0.41529  Biso   1.000  C
  C684     1.0000 0.61190  0.44790  0.32611  Biso   1.000  C
  H1194    1.0000 0.53911  0.36747  0.20747  Biso   1.000  H
  C685     1.0000 0.60404  0.23608  0.50249  Biso   1.000  C
  N137     1.0000 0.63230  0.40911  0.41406  Biso   1.000  N
  C686     1.0000 0.66512  0.55730  0.30386  Biso   1.000  C
  C687     1.0000 0.49161  0.25848  0.55201  Biso   1.000  C
  C688     1.0000 0.72839  0.26027  0.56691  Biso   1.000  C
  C689     1.0000 0.60450  0.11540  0.47780  Biso   1.000  C
  H1195    1.0000 0.65802  0.45098  0.46399  Biso   1.000  H
  C690     1.0000 0.63236  0.64640  0.36590  Biso   1.000  C
  C691     1.0000 0.81129  0.53855  0.31577  Biso   1.000  C
  C692     1.0000 0.62046  0.59284  0.20319  Biso   1.000  C
  C693     1.0000 0.38930  0.19469  0.56256  Biso   1.000  C
  N138     1.0000 0.47742  0.35554  0.59528  Biso   1.000  N
  H1196    1.0000 0.72783  0.33582  0.58759  Biso   1.000  H
  H1197    1.0000 0.73558  0.21157  0.61949  Biso   1.000  H
  H1198    1.0000 0.80108  0.24890  0.53446  Biso   1.000  H
  H1199    1.0000 0.67839  0.09974  0.44787  Biso   1.000  H
  H1200    1.0000 0.60912  0.07174  0.53331  Biso   1.000  H
  H1201    1.0000 0.52622  0.09771  0.43651  Biso   1.000  H
  C694     1.0000 0.68834  0.74590  0.38522  Biso   1.000  C
  N139     1.0000 0.52262  0.64454  0.40467  Biso   1.000  N
  C695     1.0000 0.89414  0.57093  0.39209  Biso   1.000  C
  C696     1.0000 0.86495  0.48133  0.25019  Biso   1.000  C
  H1202    1.0000 0.61772  0.52735  0.16441  Biso   1.000  H
  H1203    1.0000 0.68641  0.64154  0.18503  Biso   1.000  H
  C697     1.0000 0.49023  0.65119  0.18088  Biso   1.000  C
  H1204    1.0000 0.37319  0.12352  0.53916  Biso   1.000  H
  C698     1.0000 0.31171  0.25410  0.61480  Biso   1.000  C
  C699     1.0000 0.36759  0.35360  0.63405  Biso   1.000  C
  H1205    1.0000 0.53403  0.40902  0.60296  Biso   1.000  H
  C700     1.0000 0.61074  0.80531  0.43739  Biso   1.000  C
  H1206    1.0000 0.76519  0.77049  0.36692  Biso   1.000  H
  C701     1.0000 0.50844  0.74152  0.44801  Biso   1.000  C
  H1207    1.0000 0.46601  0.59098  0.39699  Biso   1.000  H
  H1208    1.0000 0.86321  0.60972  0.43937  Biso   1.000  H
  C702     1.0000 0.02275  0.54650  0.39889  Biso   1.000  C
  C703     1.0000 0.99481  0.46031  0.26332  Biso   1.000  C
  H1209    1.0000 0.81273  0.45683  0.19652  Biso   1.000  H
  H1210    1.0000 0.48717  0.70841  0.22822  Biso   1.000  H
  C704     1.0000 0.48380  0.70889  0.08870  Biso   1.000  C
  C705     1.0000 0.37591  0.57791  0.18237  Biso   1.000  C
  H1211    1.0000 0.23487  0.22951  0.63310  Biso   1.000  H
  C706     1.0000 0.33492  0.44270  0.69609  Biso   1.000  C
  H1212    1.0000 0.62685  0.87648  0.46079  Biso   1.000  H
  C707     1.0000 0.39600  0.76392  0.49746  Biso   1.000  C
  H1213    1.0000 0.07749  0.56979  0.45202  Biso   1.000  H
  N140     1.0000 0.07461  0.49294  0.33638  Biso   1.000  N
  H1214    1.0000 0.02863  0.42063  0.21768  Biso   1.000  H
  H1215    1.0000 0.48184  0.65525  0.03898  Biso   1.000  H
  H1216    1.0000 0.55857  0.75734  0.09108  Biso   1.000  H
  H1217    1.0000 0.40665  0.75515  0.07911  Biso   1.000  H
  C708     1.0000 0.47958  0.63204  0.00551  Biso   1.000  C
  H1218    1.0000 0.38753  0.53514  0.23938  Biso   1.000  H
  H1219    1.0000 0.36891  0.52654  0.13067  Biso   1.000  H
  C709     1.0000 0.25694  0.64381  0.17659  Biso   1.000  C
  H1220    1.0000 0.29747  0.62222  0.17822  Biso   1.000  H
  C710     1.0000 0.38815  0.55210  0.67391  Biso   1.000  C
  C711     1.0000 0.18875  0.46153  0.68419  Biso   1.000  C
  C712     1.0000 0.37949  0.40724  0.79677  Biso   1.000  C
  C713     1.0000 0.40607  0.69810  0.58467  Biso   1.000  C
  C714     1.0000 0.27166  0.73973  0.43311  Biso   1.000  C
  C715     1.0000 0.39554  0.88460  0.52215  Biso   1.000  C
  H1221    1.0000 0.41102  0.57888  0.00578  Biso   1.000  H
  H1222    1.0000 0.56115  0.59390  0.00891  Biso   1.000  H
  H1223    1.0000 0.46404  0.67465  0.94912  Biso   1.000  H
  H1224    1.0000 0.23617  0.67473  0.11550  Biso   1.000  H
  H1225    1.0000 0.18667  0.59731  0.18911  Biso   1.000  H
  H1226    1.0000 0.26983  0.70248  0.22149  Biso   1.000  H
  C716     1.0000 0.43808  0.63521  0.72827  Biso   1.000  C
  N141     1.0000 0.36774  0.59089  0.58589  Biso   1.000  N
  C717     1.0000 0.10580  0.42907  0.60786  Biso   1.000  C
  C718     1.0000 0.13500  0.51875  0.74976  Biso   1.000  C
  H1227    1.0000 0.38233  0.47273  0.83561  Biso   1.000  H
  H1228    1.0000 0.31364  0.35855  0.81500  Biso   1.000  H
  C719     1.0000 0.50981  0.34881  0.81908  Biso   1.000  C
  C720     1.0000 0.45031  0.72651  0.67235  Biso   1.000  C
  H1229    1.0000 0.27221  0.66418  0.41236  Biso   1.000  H
  H1230    1.0000 0.26436  0.78843  0.38046  Biso   1.000  H
  H1231    1.0000 0.19896  0.75110  0.46549  Biso   1.000  H
  H1232    1.0000 0.32165  0.90034  0.55208  Biso   1.000  H
  H1233    1.0000 0.39094  0.92834  0.46671  Biso   1.000  H
  H1234    1.0000 0.47383  0.90229  0.56351  Biso   1.000  H
  H1235    1.0000 0.46093  0.63253  0.79248  Biso   1.000  H
  H1236    1.0000 0.34202  0.54902  0.53596  Biso   1.000  H
  H1237    1.0000 0.13683  0.39028  0.56059  Biso   1.000  H
  C721     1.0000 0.97720  0.45350  0.60106  Biso   1.000  C
  C722     1.0000 0.00524  0.53969  0.73670  Biso   1.000  C
  H1238    1.0000 0.18733  0.54317  0.80350  Biso   1.000  H
  H1239    1.0000 0.51279  0.29159  0.77180  Biso   1.000  H
  C723     1.0000 0.51624  0.29111  0.91125  Biso   1.000  C
  C724     1.0000 0.62413  0.42209  0.81758  Biso   1.000  C
  H1240    1.0000 0.48339  0.79541  0.69235  Biso   1.000  H
  H1241    1.0000 0.92257  0.43021  0.54800  Biso   1.000  H
  N142     1.0000 0.92543  0.50714  0.66357  Biso   1.000  N
  H1242    1.0000 0.97131  0.57945  0.78228  Biso   1.000  H
  H1243    1.0000 0.51811  0.34483  0.96098  Biso   1.000  H
  H1244    1.0000 0.44147  0.24274  0.90887  Biso   1.000  H
  H1245    1.0000 0.59330  0.24493  0.92084  Biso   1.000  H
  C725     1.0000 0.52046  0.36804  0.99444  Biso   1.000  C
  H1246    1.0000 0.61251  0.46494  0.76058  Biso   1.000  H
  H1247    1.0000 0.63113  0.47354  0.86928  Biso   1.000  H
  C726     1.0000 0.74310  0.35619  0.82336  Biso   1.000  C
  H1248    1.0000 0.70249  0.37778  0.82180  Biso   1.000  H
  H1249    1.0000 0.58902  0.42112  0.99417  Biso   1.000  H
  H1250    1.0000 0.43879  0.40610  0.99104  Biso   1.000  H
  H1251    1.0000 0.53600  0.32543  0.05083  Biso   1.000  H
  H1252    1.0000 0.76378  0.32527  0.88445  Biso   1.000  H
  H1253    1.0000 0.81328  0.40269  0.81085  Biso   1.000  H
  H1254    1.0000 0.73022  0.29752  0.77847  Biso   1.000  H
