data_image0
_cell_length_a       13.694
_cell_length_b       22.254
_cell_length_c       25.793
_cell_angle_alpha    90
_cell_angle_beta     96.98
_cell_angle_gamma    90

_symmetry_space_group_name_H-M    "P 1"
_symmetry_int_tables_number       1

loop_
  _symmetry_equiv_pos_as_xyz
  'x, y, z'

loop_
  _atom_site_label
  _atom_site_occupancy
  _atom_site_fract_x
  _atom_site_fract_y
  _atom_site_fract_z
  _atom_site_thermal_displace_type
  _atom_site_B_iso_or_equiv
  _atom_site_type_symbol
  C1       1.0000 0.67875  0.51550  0.44817  Biso   1.000  C
  C2       1.0000 0.74055  0.56507  0.44860  Biso   1.000  C
  H1       1.0000 0.61975  0.51451  0.42458  Biso   1.000  H
  C3       1.0000 0.70194  0.46778  0.48153  Biso   1.000  C
  C4       1.0000 0.82826  0.56592  0.48340  Biso   1.000  C
  N1       1.0000 0.72102  0.61400  0.41462  Biso   1.000  N
  H2       1.0000 0.65895  0.43430  0.48098  Biso   1.000  H
  C5       1.0000 0.78764  0.46877  0.51555  Biso   1.000  C
  C6       1.0000 0.85066  0.51757  0.51586  Biso   1.000  C
  N2       1.0000 0.88460  0.61791  0.48645  Biso   1.000  N
  C7       1.0000 0.62388  0.62110  0.38614  Biso   1.000  C
  H3       1.0000 0.74897  0.64712  0.42700  Biso   1.000  H
  H4       1.0000 0.80346  0.43610  0.53871  Biso   1.000  H
  H5       1.0000 0.91034  0.51761  0.53891  Biso   1.000  H
  H6       1.0000 0.89793  0.63301  0.45469  Biso   1.000  H
  H7       1.0000 0.94291  0.61202  0.50699  Biso   1.000  H
  C8       1.0000 0.62357  0.67350  0.34908  Biso   1.000  C
  H8       1.0000 0.60495  0.58390  0.36630  Biso   1.000  H
  H9       1.0000 0.57523  0.62811  0.41099  Biso   1.000  H
  H10      1.0000 0.55934  0.67610  0.32689  Biso   1.000  H
  H11      1.0000 0.67595  0.66860  0.32619  Biso   1.000  H
  O1       1.0000 0.64040  0.72634  0.38017  Biso   1.000  O
  C9       1.0000 0.66008  0.77910  0.35513  Biso   1.000  C
  C10      1.0000 0.69023  0.82776  0.38732  Biso   1.000  C
  C11      1.0000 0.65295  0.78381  0.30099  Biso   1.000  C
  C12      1.0000 0.71516  0.88011  0.36224  Biso   1.000  C
  C13      1.0000 0.70517  0.81999  0.44622  Biso   1.000  C
  H12      1.0000 0.63005  0.75061  0.27978  Biso   1.000  H
  C14      1.0000 0.67900  0.83643  0.27795  Biso   1.000  C
  C15      1.0000 0.71223  0.88573  0.30861  Biso   1.000  C
  H13      1.0000 0.73522  0.91404  0.38318  Biso   1.000  H
  H14      1.0000 0.65950  0.78723  0.45438  Biso   1.000  H
  C16      1.0000 0.67923  0.87485  0.47708  Biso   1.000  C
  C17      1.0000 0.81066  0.79649  0.46235  Biso   1.000  C
  O2       1.0000 0.67740  0.84340  0.22502  Biso   1.000  O
  C18      1.0000 0.75327  0.94082  0.28338  Biso   1.000  C
  C19      1.0000 0.74785  0.91965  0.49231  Biso   1.000  C
  C20      1.0000 0.58665  0.88047  0.49438  Biso   1.000  C
  H15      1.0000 0.85786  0.82790  0.45450  Biso   1.000  H
  H16      1.0000 0.82141  0.76103  0.44071  Biso   1.000  H
  C21      1.0000 0.83316  0.77910  0.51949  Biso   1.000  C
  C22      1.0000 0.63371  0.79810  0.19206  Biso   1.000  C
  C23      1.0000 0.71314  0.99915  0.30267  Biso   1.000  C
  H17      1.0000 0.73097  0.93830  0.24498  Biso   1.000  H
  C24      1.0000 0.86615  0.93727  0.29033  Biso   1.000  C
  H18      1.0000 0.81085  0.91682  0.48071  Biso   1.000  H
  C25      1.0000 0.72936  0.96859  0.52379  Biso   1.000  C
  C26      1.0000 0.56401  0.92909  0.52469  Biso   1.000  C
  O3       1.0000 0.52038  0.83603  0.47891  Biso   1.000  O
  H19      1.0000 0.78162  0.75213  0.52910  Biso   1.000  H
  H20      1.0000 0.89695  0.75861  0.52508  Biso   1.000  H
  H21      1.0000 0.83521  0.81531  0.54121  Biso   1.000  H
  H22      1.0000 0.56594  0.79163  0.19940  Biso   1.000  H
  H23      1.0000 0.63352  0.81042  0.15550  Biso   1.000  H
  H24      1.0000 0.67129  0.76081  0.19831  Biso   1.000  H
  C27      1.0000 0.77028  0.04031  0.33345  Biso   1.000  C
  C28      1.0000 0.61456  0.01469  0.28803  Biso   1.000  C
  H25      1.0000 0.89013  0.94244  0.32779  Biso   1.000  H
  H26      1.0000 0.89207  0.97111  0.27119  Biso   1.000  H
  C29      1.0000 0.90783  0.87917  0.27146  Biso   1.000  C
  C30      1.0000 0.63535  0.97263  0.53898  Biso   1.000  C
  C31      1.0000 0.80823  0.01218  0.54617  Biso   1.000  C
  H27      1.0000 0.50040  0.93260  0.53551  Biso   1.000  H
  C32      1.0000 0.42585  0.83940  0.49660  Biso   1.000  C
  C33      1.0000 0.73482  0.09459  0.35052  Biso   1.000  C
  H28      1.0000 0.83755  0.03092  0.34341  Biso   1.000  H
  O4       1.0000 0.56177  0.97488  0.25518  Biso   1.000  O
  C34      1.0000 0.57508  0.06745  0.30599  Biso   1.000  C
  H29      1.0000 0.88226  0.87252  0.23471  Biso   1.000  H
  H30      1.0000 0.97975  0.88182  0.27490  Biso   1.000  H
  H31      1.0000 0.88850  0.84560  0.29260  Biso   1.000  H
  O5       1.0000 0.61910  0.02166  0.56914  Biso   1.000  O
  C35      1.0000 0.91236  0.98576  0.54934  Biso   1.000  C
  H32      1.0000 0.79592  0.01991  0.58301  Biso   1.000  H
  C36      1.0000 0.80485  0.07347  0.51926  Biso   1.000  C
  H33      1.0000 0.39283  0.87643  0.48348  Biso   1.000  H
  H34      1.0000 0.38636  0.80462  0.48360  Biso   1.000  H
  H35      1.0000 0.43344  0.83953  0.53488  Biso   1.000  H
  C37      1.0000 0.63528  0.10654  0.33709  Biso   1.000  C
  C38      1.0000 0.80161  0.14033  0.38103  Biso   1.000  C
  C39      1.0000 0.46847  0.99317  0.22881  Biso   1.000  C
  H36      1.0000 0.50737  0.07648  0.29701  Biso   1.000  H
  C40      1.0000 0.53888  0.02098  0.59992  Biso   1.000  C
  H37      1.0000 0.93030  0.98122  0.51348  Biso   1.000  H
  H38      1.0000 0.91241  0.94531  0.56519  Biso   1.000  H
  C41      1.0000 0.98862  0.02382  0.58070  Biso   1.000  C
  C42      1.0000 0.79633  0.07963  0.46544  Biso   1.000  C
  C43      1.0000 0.81870  0.12591  0.54914  Biso   1.000  C
  O6       1.0000 0.60169  0.15939  0.35622  Biso   1.000  O
  C44      1.0000 0.80462  0.13404  0.44009  Biso   1.000  C
  H39      1.0000 0.77285  0.18082  0.37181  Biso   1.000  H
  C45      1.0000 0.90674  0.14141  0.36622  Biso   1.000  C
  H40      1.0000 0.41855  0.99470  0.25350  Biso   1.000  H
  C46      1.0000 0.44059  0.94684  0.18710  Biso   1.000  C
  H41      1.0000 0.47354  0.03339  0.21299  Biso   1.000  H
  H42      1.0000 0.54083  0.98391  0.62121  Biso   1.000  H
  H43      1.0000 0.47543  0.02229  0.57699  Biso   1.000  H
  C47      1.0000 0.54961  0.07545  0.63468  Biso   1.000  C
  H44      1.0000 0.97290  0.02710  0.61667  Biso   1.000  H
  H45      1.0000 0.98935  0.06399  0.56508  Biso   1.000  H
  H46      1.0000 0.05348  0.00521  0.58078  Biso   1.000  H
  H47      1.0000 0.78406  0.04462  0.44469  Biso   1.000  H
  C48      1.0000 0.82813  0.18114  0.52559  Biso   1.000  C
  O7       1.0000 0.82235  0.11912  0.60211  Biso   1.000  O
  C49      1.0000 0.49973  0.17085  0.34818  Biso   1.000  C
  C50      1.0000 0.82237  0.18491  0.47168  Biso   1.000  C
  H48      1.0000 0.93665  0.10120  0.37279  Biso   1.000  H
  H49      1.0000 0.94635  0.17049  0.38900  Biso   1.000  H
  C51      1.0000 0.91149  0.15822  0.31009  Biso   1.000  C
  H50      1.0000 0.37285  0.95470  0.17030  Biso   1.000  H
  H51      1.0000 0.44177  0.90631  0.20311  Biso   1.000  H
  N3       1.0000 0.50847  0.94868  0.14804  Biso   1.000  N
  H52      1.0000 0.49347  0.07751  0.65550  Biso   1.000  H
  H53      1.0000 0.54874  0.11220  0.61300  Biso   1.000  H
  N4       1.0000 0.64192  0.07266  0.66980  Biso   1.000  N
  H54      1.0000 0.83859  0.21632  0.54641  Biso   1.000  H
  C52      1.0000 0.85750  0.16860  0.63413  Biso   1.000  C
  H55      1.0000 0.46474  0.13912  0.36470  Biso   1.000  H
  H56      1.0000 0.48618  0.20980  0.36361  Biso   1.000  H
  H57      1.0000 0.47748  0.17170  0.31060  Biso   1.000  H
  O8       1.0000 0.83333  0.23843  0.44555  Biso   1.000  O
  H58      1.0000 0.87983  0.19740  0.30291  Biso   1.000  H
  H59      1.0000 0.98040  0.16060  0.30361  Biso   1.000  H
  H60      1.0000 0.87726  0.12780  0.28721  Biso   1.000  H
  C53      1.0000 0.50848  0.90168  0.11171  Biso   1.000  C
  H61      1.0000 0.56960  0.95673  0.16179  Biso   1.000  H
  C54      1.0000 0.66153  0.11814  0.70761  Biso   1.000  C
  H62      1.0000 0.69232  0.06830  0.65261  Biso   1.000  H
  H63      1.0000 0.80951  0.20149  0.62960  Biso   1.000  H
  H64      1.0000 0.86647  0.15602  0.67077  Biso   1.000  H
  H65      1.0000 0.92054  0.18239  0.62398  Biso   1.000  H
  C55      1.0000 0.84381  0.29231  0.47540  Biso   1.000  C
  C56      1.0000 0.43485  0.85872  0.10429  Biso   1.000  C
  C57      1.0000 0.58671  0.89934  0.08085  Biso   1.000  C
  C58      1.0000 0.59773  0.16464  0.71409  Biso   1.000  C
  C59      1.0000 0.74936  0.11315  0.74233  Biso   1.000  C
  H66      1.0000 0.78680  0.29738  0.49528  Biso   1.000  H
  H67      1.0000 0.90442  0.29060  0.50059  Biso   1.000  H
  C60      1.0000 0.84925  0.34403  0.43856  Biso   1.000  C
  H68      1.0000 0.38099  0.86061  0.12421  Biso   1.000  H
  C61      1.0000 0.43891  0.81298  0.06808  Biso   1.000  C
  C62      1.0000 0.58899  0.85328  0.04457  Biso   1.000  C
  N5       1.0000 0.66391  0.94037  0.09015  Biso   1.000  N
  H69      1.0000 0.53803  0.16770  0.69128  Biso   1.000  H
  C63      1.0000 0.61892  0.20711  0.75338  Biso   1.000  C
  C64      1.0000 0.76996  0.15705  0.78030  Biso   1.000  C
  N6       1.0000 0.81392  0.06650  0.73565  Biso   1.000  N
  H70      1.0000 0.83692  0.38191  0.45680  Biso   1.000  H
  H71      1.0000 0.79687  0.33962  0.40880  Biso   1.000  H
  N7       1.0000 0.94362  0.34785  0.41888  Biso   1.000  N
  H72      1.0000 0.38832  0.78350  0.06371  Biso   1.000  H
  C65      1.0000 0.51532  0.81019  0.03886  Biso   1.000  C
  H73      1.0000 0.64137  0.85131  0.02359  Biso   1.000  H
  H74      1.0000 0.65099  0.97780  0.10550  Biso   1.000  H
  H75      1.0000 0.70097  0.94230  0.06128  Biso   1.000  H
  H76      1.0000 0.57366  0.23861  0.75760  Biso   1.000  H
  C66      1.0000 0.70526  0.20315  0.78604  Biso   1.000  C
  H77      1.0000 0.83011  0.15521  0.80287  Biso   1.000  H
  H78      1.0000 0.78090  0.03101  0.72600  Biso   1.000  H
  H79      1.0000 0.86086  0.06192  0.76299  Biso   1.000  H
  C67      1.0000 0.96505  0.39912  0.39032  Biso   1.000  C
  H80      1.0000 0.96196  0.31491  0.40138  Biso   1.000  H
  H81      1.0000 0.51798  0.77851  0.01441  Biso   1.000  H
  H82      1.0000 0.72070  0.23232  0.81268  Biso   1.000  H
  C68      1.0000 0.90138  0.44823  0.38302  Biso   1.000  C
  C69      1.0000 0.05711  0.40209  0.37169  Biso   1.000  C
  H83      1.0000 0.83917  0.44689  0.39579  Biso   1.000  H
  C70      1.0000 0.92898  0.49892  0.35716  Biso   1.000  C
  C71      1.0000 0.08106  0.45300  0.34490  Biso   1.000  C
  N8       1.0000 0.12306  0.35418  0.38005  Biso   1.000  N
  H84      1.0000 0.88643  0.53280  0.35341  Biso   1.000  H
  C72      1.0000 0.01685  0.50063  0.33712  Biso   1.000  C
  H85      1.0000 0.14281  0.45511  0.33169  Biso   1.000  H
  H86      1.0000 0.11791  0.34201  0.41399  Biso   1.000  H
  H87      1.0000 0.09492  0.32691  0.35568  Biso   1.000  H
  H88      1.0000 0.03345  0.53469  0.31779  Biso   1.000  H
  C73      1.0000 0.32114  0.48450  0.55184  Biso   1.000  C
  C74      1.0000 0.25934  0.43493  0.55141  Biso   1.000  C
  H89      1.0000 0.38013  0.48553  0.57539  Biso   1.000  H
  C75      1.0000 0.29795  0.53222  0.51848  Biso   1.000  C
  N9       1.0000 0.27880  0.38600  0.58539  Biso   1.000  N
  C76      1.0000 0.17162  0.43412  0.51656  Biso   1.000  C
  H90      1.0000 0.34093  0.56570  0.51899  Biso   1.000  H
  C77      1.0000 0.21225  0.53123  0.48446  Biso   1.000  C
  C78      1.0000 0.37601  0.37894  0.61386  Biso   1.000  C
  H91      1.0000 0.25092  0.35293  0.57301  Biso   1.000  H
  C79      1.0000 0.14922  0.48243  0.48411  Biso   1.000  C
  N10      1.0000 0.11520  0.38209  0.51352  Biso   1.000  N
  H92      1.0000 0.19643  0.56390  0.46129  Biso   1.000  H
  C80      1.0000 0.37631  0.32655  0.65089  Biso   1.000  C
  H93      1.0000 0.39494  0.41610  0.63370  Biso   1.000  H
  H94      1.0000 0.42457  0.37189  0.58898  Biso   1.000  H
  H95      1.0000 0.08955  0.48243  0.46110  Biso   1.000  H
  H96      1.0000 0.10188  0.36699  0.54527  Biso   1.000  H
  H97      1.0000 0.05691  0.38802  0.49301  Biso   1.000  H
  O9       1.0000 0.35948  0.27366  0.61980  Biso   1.000  O
  H98      1.0000 0.44046  0.32390  0.67308  Biso   1.000  H
  H99      1.0000 0.32386  0.33140  0.67378  Biso   1.000  H
  C81      1.0000 0.33981  0.22090  0.64488  Biso   1.000  C
  C82      1.0000 0.30958  0.17228  0.61269  Biso   1.000  C
  C83      1.0000 0.34687  0.21619  0.69901  Biso   1.000  C
  C84      1.0000 0.29471  0.18001  0.55379  Biso   1.000  C
  C85      1.0000 0.28473  0.11993  0.63777  Biso   1.000  C
  C86      1.0000 0.32089  0.16357  0.72206  Biso   1.000  C
  H100     1.0000 0.36975  0.24939  0.72018  Biso   1.000  H
  C87      1.0000 0.18923  0.20351  0.53766  Biso   1.000  C
  H101     1.0000 0.34030  0.21282  0.54559  Biso   1.000  H
  C88      1.0000 0.32059  0.12515  0.52293  Biso   1.000  C
  C89      1.0000 0.28757  0.11427  0.69136  Biso   1.000  C
  H102     1.0000 0.26459  0.08601  0.61679  Biso   1.000  H
  O10      1.0000 0.32241  0.15660  0.77498  Biso   1.000  O
  C90      1.0000 0.16672  0.22090  0.48047  Biso   1.000  C
  H103     1.0000 0.14202  0.17210  0.54551  Biso   1.000  H
  H104     1.0000 0.17841  0.23901  0.55930  Biso   1.000  H
  C91      1.0000 0.25202  0.08035  0.50766  Biso   1.000  C
  C92      1.0000 0.41323  0.11953  0.50559  Biso   1.000  C
  C93      1.0000 0.24662  0.05918  0.71663  Biso   1.000  C
  C94      1.0000 0.36617  0.20190  0.80791  Biso   1.000  C
  H105     1.0000 0.21820  0.24791  0.47090  Biso   1.000  H
  H106     1.0000 0.10293  0.24139  0.47489  Biso   1.000  H
  H107     1.0000 0.16460  0.18469  0.45880  Biso   1.000  H
  H108     1.0000 0.18904  0.08322  0.51930  Biso   1.000  H
  C95      1.0000 0.27052  0.03141  0.47618  Biso   1.000  C
  C96      1.0000 0.43580  0.07091  0.47532  Biso   1.000  C
  O11      1.0000 0.47950  0.16402  0.52106  Biso   1.000  O
  C97      1.0000 0.28667  0.00090  0.69729  Biso   1.000  C
  H109     1.0000 0.26891  0.06170  0.75498  Biso   1.000  H
  C98      1.0000 0.13367  0.06278  0.70968  Biso   1.000  C
  H110     1.0000 0.43387  0.20841  0.80061  Biso   1.000  H
  H111     1.0000 0.36636  0.18958  0.84447  Biso   1.000  H
  H112     1.0000 0.32860  0.23919  0.80170  Biso   1.000  H
  C99      1.0000 0.36453  0.02741  0.46098  Biso   1.000  C
  C100     1.0000 0.19165  0.98782  0.45380  Biso   1.000  C
  H113     1.0000 0.49941  0.06740  0.46450  Biso   1.000  H
  C101     1.0000 0.57404  0.16060  0.50340  Biso   1.000  C
  C102     1.0000 0.22961  0.95969  0.66655  Biso   1.000  C
  C103     1.0000 0.38532  0.98531  0.71194  Biso   1.000  C
  H114     1.0000 0.10968  0.05761  0.67218  Biso   1.000  H
  H115     1.0000 0.10781  0.02889  0.72878  Biso   1.000  H
  C104     1.0000 0.09198  0.12088  0.72854  Biso   1.000  C
  O12      1.0000 0.38078  0.97839  0.43083  Biso   1.000  O
  C105     1.0000 0.08753  0.01424  0.45067  Biso   1.000  C
  H116     1.0000 0.20396  0.98014  0.41700  Biso   1.000  H
  C106     1.0000 0.19503  0.92653  0.48071  Biso   1.000  C
  H117     1.0000 0.60705  0.12362  0.51649  Biso   1.000  H
  H118     1.0000 0.61353  0.19543  0.51641  Biso   1.000  H
  H119     1.0000 0.56644  0.16051  0.46508  Biso   1.000  H
  C107     1.0000 0.26498  0.90546  0.64945  Biso   1.000  C
  H120     1.0000 0.16226  0.96913  0.65659  Biso   1.000  H
  O13      1.0000 0.43811  0.02512  0.74479  Biso   1.000  O
  C108     1.0000 0.42480  0.93260  0.69397  Biso   1.000  C
  H121     1.0000 0.11755  0.12748  0.76530  Biso   1.000  H
  H122     1.0000 0.02007  0.11818  0.72510  Biso   1.000  H
  H123     1.0000 0.11138  0.15440  0.70737  Biso   1.000  H
  C109     1.0000 0.46093  0.97906  0.40005  Biso   1.000  C
  H124     1.0000 0.06951  0.01878  0.48649  Biso   1.000  H
  H125     1.0000 0.08740  0.05469  0.43481  Biso   1.000  H
  C110     1.0000 0.01126  0.97623  0.41927  Biso   1.000  C
  C111     1.0000 0.20349  0.92037  0.53457  Biso   1.000  C
  C112     1.0000 0.18112  0.87413  0.45087  Biso   1.000  C
  C113     1.0000 0.36459  0.89350  0.66288  Biso   1.000  C
  C114     1.0000 0.19820  0.85967  0.61898  Biso   1.000  C
  C115     1.0000 0.53142  0.00688  0.77119  Biso   1.000  C
  H126     1.0000 0.49251  0.92352  0.70300  Biso   1.000  H
  H127     1.0000 0.45906  0.01609  0.37880  Biso   1.000  H
  H128     1.0000 0.52445  0.97771  0.42298  Biso   1.000  H
  C116     1.0000 0.45027  0.92455  0.36529  Biso   1.000  C
  H129     1.0000 0.94632  0.99483  0.41919  Biso   1.000  H
  H130     1.0000 0.02690  0.97290  0.38329  Biso   1.000  H
  H131     1.0000 0.01053  0.93601  0.43489  Biso   1.000  H
  H132     1.0000 0.21582  0.95542  0.55527  Biso   1.000  H
  C117     1.0000 0.19519  0.86596  0.55988  Biso   1.000  C
  C118     1.0000 0.17175  0.81886  0.47438  Biso   1.000  C
  O14      1.0000 0.17746  0.88092  0.39790  Biso   1.000  O
  O15      1.0000 0.39812  0.84061  0.64378  Biso   1.000  O
  H133     1.0000 0.22704  0.81922  0.62820  Biso   1.000  H
  C119     1.0000 0.09307  0.85863  0.63378  Biso   1.000  C
  H134     1.0000 0.58126  0.00530  0.74647  Biso   1.000  H
  C120     1.0000 0.55930  0.05320  0.81291  Biso   1.000  C
  H135     1.0000 0.52627  0.96661  0.78697  Biso   1.000  H
  H136     1.0000 0.50634  0.92253  0.34451  Biso   1.000  H
  H137     1.0000 0.45115  0.88780  0.38700  Biso   1.000  H
  N11      1.0000 0.35797  0.92734  0.33021  Biso   1.000  N
  C121     1.0000 0.17752  0.81509  0.52832  Biso   1.000  C
  H138     1.0000 0.16122  0.78372  0.45360  Biso   1.000  H
  C122     1.0000 0.14231  0.83140  0.36587  Biso   1.000  C
  C123     1.0000 0.50008  0.82915  0.65183  Biso   1.000  C
  H139     1.0000 0.06323  0.89880  0.62718  Biso   1.000  H
  H140     1.0000 0.05353  0.82951  0.61097  Biso   1.000  H
  C124     1.0000 0.08839  0.84183  0.68987  Biso   1.000  C
  H141     1.0000 0.62697  0.04530  0.82971  Biso   1.000  H
  H142     1.0000 0.55811  0.09369  0.79690  Biso   1.000  H
  N12      1.0000 0.49142  0.05132  0.85197  Biso   1.000  N
  C125     1.0000 0.33835  0.88186  0.29236  Biso   1.000  C
  H143     1.0000 0.30757  0.93170  0.34740  Biso   1.000  H
  O16      1.0000 0.16648  0.76162  0.55441  Biso   1.000  O
  H144     1.0000 0.19038  0.79851  0.37040  Biso   1.000  H
  H145     1.0000 0.13333  0.84403  0.32920  Biso   1.000  H
  H146     1.0000 0.07934  0.81761  0.37599  Biso   1.000  H
  H147     1.0000 0.53508  0.86092  0.63531  Biso   1.000  H
  H148     1.0000 0.51371  0.79020  0.63640  Biso   1.000  H
  H149     1.0000 0.52241  0.82830  0.68940  Biso   1.000  H
  H150     1.0000 0.11998  0.80260  0.69710  Biso   1.000  H
  H151     1.0000 0.01948  0.83940  0.69640  Biso   1.000  H
  H152     1.0000 0.12255  0.87220  0.71280  Biso   1.000  H
  C126     1.0000 0.49133  0.09832  0.88830  Biso   1.000  C
  H153     1.0000 0.43028  0.04332  0.83818  Biso   1.000  H
  C127     1.0000 0.40215  0.83536  0.28588  Biso   1.000  C
  C128     1.0000 0.25045  0.88690  0.25768  Biso   1.000  C
  C129     1.0000 0.15600  0.70769  0.52457  Biso   1.000  C
  C130     1.0000 0.56495  0.14132  0.89568  Biso   1.000  C
  C131     1.0000 0.41317  0.10070  0.91911  Biso   1.000  C
  H154     1.0000 0.46185  0.83230  0.30869  Biso   1.000  H
  C132     1.0000 0.38097  0.79294  0.24662  Biso   1.000  C
  C133     1.0000 0.22985  0.84295  0.21967  Biso   1.000  C
  N13      1.0000 0.18596  0.93350  0.26432  Biso   1.000  N
  H155     1.0000 0.21301  0.70262  0.50469  Biso   1.000  H
  H156     1.0000 0.09539  0.70940  0.49938  Biso   1.000  H
  C134     1.0000 0.15064  0.65597  0.56144  Biso   1.000  C
  H157     1.0000 0.61889  0.13939  0.87580  Biso   1.000  H
  C135     1.0000 0.56097  0.18702  0.93189  Biso   1.000  C
  C136     1.0000 0.41081  0.14676  0.95540  Biso   1.000  C
  N14      1.0000 0.33597  0.05963  0.90982  Biso   1.000  N
  H158     1.0000 0.42616  0.76144  0.24240  Biso   1.000  H
  C137     1.0000 0.29456  0.79689  0.21397  Biso   1.000  C
  H159     1.0000 0.16977  0.84484  0.19710  Biso   1.000  H
  H160     1.0000 0.21899  0.96904  0.27400  Biso   1.000  H
  H161     1.0000 0.13896  0.93812  0.23701  Biso   1.000  H
  H162     1.0000 0.16289  0.61809  0.54320  Biso   1.000  H
  H163     1.0000 0.20302  0.66042  0.59121  Biso   1.000  H
  N15      1.0000 0.05618  0.65220  0.58109  Biso   1.000  N
  H164     1.0000 0.61157  0.21650  0.93630  Biso   1.000  H
  C138     1.0000 0.48456  0.18985  0.96110  Biso   1.000  C
  H165     1.0000 0.35843  0.14869  0.97638  Biso   1.000  H
  H166     1.0000 0.34890  0.02220  0.89451  Biso   1.000  H
  H167     1.0000 0.29883  0.05770  0.93868  Biso   1.000  H
  H168     1.0000 0.27918  0.76773  0.18729  Biso   1.000  H
  C139     1.0000 0.03483  0.60088  0.60968  Biso   1.000  C
  H169     1.0000 0.03792  0.68509  0.59859  Biso   1.000  H
  H170     1.0000 0.48184  0.22149  0.98559  Biso   1.000  H
  C140     1.0000 0.94270  0.59796  0.62828  Biso   1.000  C
  C141     1.0000 0.09849  0.55181  0.61695  Biso   1.000  C
  C142     1.0000 0.91882  0.54700  0.65507  Biso   1.000  C
  N16      1.0000 0.87681  0.64582  0.61992  Biso   1.000  N
  H171     1.0000 0.16071  0.55311  0.60418  Biso   1.000  H
  C143     1.0000 0.07089  0.50108  0.64281  Biso   1.000  C
  C144     1.0000 0.98304  0.49942  0.66288  Biso   1.000  C
  H172     1.0000 0.85699  0.54489  0.66827  Biso   1.000  H
  H173     1.0000 0.88190  0.65799  0.58597  Biso   1.000  H
  H174     1.0000 0.90488  0.67309  0.64429  Biso   1.000  H
  H175     1.0000 0.11339  0.46720  0.64659  Biso   1.000  H
  H176     1.0000 0.96643  0.46531  0.68218  Biso   1.000  H
  C145     1.0000 0.58658  0.60070  0.58086  Biso   1.000  C
  N17      1.0000 0.66378  0.55967  0.59015  Biso   1.000  N
  C146     1.0000 0.50842  0.59832  0.61167  Biso   1.000  C
  C147     1.0000 0.58894  0.64676  0.54457  Biso   1.000  C
  H177     1.0000 0.65094  0.52220  0.60550  Biso   1.000  H
  H178     1.0000 0.70091  0.55770  0.56129  Biso   1.000  H
  C148     1.0000 0.43480  0.64132  0.60429  Biso   1.000  C
  N18      1.0000 0.50841  0.55132  0.64800  Biso   1.000  N
  C149     1.0000 0.51519  0.68985  0.53887  Biso   1.000  C
  H179     1.0000 0.64132  0.64869  0.52360  Biso   1.000  H
  H180     1.0000 0.38093  0.63939  0.62417  Biso   1.000  H
  C150     1.0000 0.43878  0.68702  0.56808  Biso   1.000  C
  C151     1.0000 0.44052  0.55320  0.68706  Biso   1.000  C
  H181     1.0000 0.56947  0.54332  0.66179  Biso   1.000  H
  H182     1.0000 0.51791  0.72153  0.51438  Biso   1.000  H
  H183     1.0000 0.38819  0.71650  0.56371  Biso   1.000  H
  C152     1.0000 0.46841  0.50688  0.72881  Biso   1.000  C
  H184     1.0000 0.37279  0.54530  0.67030  Biso   1.000  H
  H185     1.0000 0.44171  0.59369  0.70307  Biso   1.000  H
  H186     1.0000 0.41849  0.50530  0.75350  Biso   1.000  H
  H187     1.0000 0.47348  0.46661  0.71300  Biso   1.000  H
  O17      1.0000 0.56164  0.52512  0.75518  Biso   1.000  O
  C153     1.0000 0.61450  0.48531  0.78803  Biso   1.000  C
  C154     1.0000 0.71308  0.50090  0.80268  Biso   1.000  C
  C155     1.0000 0.57495  0.43260  0.80600  Biso   1.000  C
  C156     1.0000 0.77014  0.45969  0.83342  Biso   1.000  C
  C157     1.0000 0.75320  0.55923  0.78334  Biso   1.000  C
  H188     1.0000 0.50731  0.42352  0.79697  Biso   1.000  H
  C158     1.0000 0.63515  0.39350  0.83709  Biso   1.000  C
  C159     1.0000 0.73477  0.40546  0.85052  Biso   1.000  C
  H189     1.0000 0.83748  0.46913  0.84338  Biso   1.000  H
  H190     1.0000 0.73091  0.56170  0.74499  Biso   1.000  H
  C160     1.0000 0.71218  0.61432  0.80861  Biso   1.000  C
  C161     1.0000 0.86609  0.56278  0.79033  Biso   1.000  C
  O18      1.0000 0.60163  0.34061  0.85619  Biso   1.000  O
  C162     1.0000 0.80156  0.35967  0.88103  Biso   1.000  C
  C163     1.0000 0.71510  0.61993  0.86224  Biso   1.000  C
  C164     1.0000 0.67887  0.66361  0.77795  Biso   1.000  C
  H191     1.0000 0.89007  0.55761  0.82779  Biso   1.000  H
  H192     1.0000 0.89202  0.52889  0.77119  Biso   1.000  H
  C165     1.0000 0.90778  0.62088  0.77147  Biso   1.000  C
  C166     1.0000 0.49967  0.32915  0.84814  Biso   1.000  C
  C167     1.0000 0.80456  0.36596  0.94009  Biso   1.000  C
  H193     1.0000 0.77279  0.31922  0.87177  Biso   1.000  H
  C168     1.0000 0.90668  0.35863  0.86619  Biso   1.000  C
  H194     1.0000 0.73516  0.58601  0.88318  Biso   1.000  H
  C169     1.0000 0.69017  0.67228  0.88728  Biso   1.000  C
  C170     1.0000 0.65288  0.71623  0.80096  Biso   1.000  C
  O19      1.0000 0.67734  0.65660  0.72499  Biso   1.000  O
  H195     1.0000 0.88220  0.62753  0.73467  Biso   1.000  H
  H196     1.0000 0.97969  0.61823  0.77491  Biso   1.000  H
  H197     1.0000 0.88837  0.65440  0.79260  Biso   1.000  H
  H198     1.0000 0.46468  0.36092  0.86470  Biso   1.000  H
  H199     1.0000 0.48604  0.29020  0.86357  Biso   1.000  H
  H200     1.0000 0.47735  0.32830  0.81061  Biso   1.000  H
  C171     1.0000 0.79626  0.42037  0.96540  Biso   1.000  C
  C172     1.0000 0.82224  0.31509  0.97169  Biso   1.000  C
  H201     1.0000 0.93659  0.39880  0.87279  Biso   1.000  H
  H202     1.0000 0.94629  0.32951  0.88900  Biso   1.000  H
  C173     1.0000 0.91136  0.34183  0.81010  Biso   1.000  C
  C174     1.0000 0.65995  0.72095  0.85513  Biso   1.000  C
  C175     1.0000 0.70504  0.68001  0.94618  Biso   1.000  C
  H203     1.0000 0.63000  0.74939  0.77979  Biso   1.000  H
  C176     1.0000 0.63358  0.70190  0.69206  Biso   1.000  C
  H204     1.0000 0.78393  0.45542  0.94470  Biso   1.000  H
  C177     1.0000 0.80494  0.42653  0.01926  Biso   1.000  C
  O20      1.0000 0.83327  0.26157  0.94556  Biso   1.000  O
  C178     1.0000 0.82823  0.31886  0.02563  Biso   1.000  C
  H205     1.0000 0.87977  0.30260  0.80287  Biso   1.000  H
  H206     1.0000 0.98027  0.33940  0.80358  Biso   1.000  H
  H207     1.0000 0.87720  0.37220  0.78717  Biso   1.000  H
  O21      1.0000 0.64027  0.77366  0.88017  Biso   1.000  O
  H208     1.0000 0.65945  0.71282  0.95438  Biso   1.000  H
  C179     1.0000 0.67916  0.62519  0.97704  Biso   1.000  C
  C180     1.0000 0.81053  0.70351  0.96235  Biso   1.000  C
  H209     1.0000 0.56589  0.70841  0.69940  Biso   1.000  H
  H210     1.0000 0.63339  0.68963  0.65550  Biso   1.000  H
  H211     1.0000 0.67123  0.73919  0.69831  Biso   1.000  H
  C181     1.0000 0.80832  0.48782  0.04617  Biso   1.000  C
  C182     1.0000 0.81886  0.37409  0.04914  Biso   1.000  C
  C183     1.0000 0.84375  0.20769  0.97540  Biso   1.000  C
  H212     1.0000 0.83875  0.28372  0.04641  Biso   1.000  H
  C184     1.0000 0.62344  0.82655  0.84908  Biso   1.000  C
  C185     1.0000 0.74772  0.58035  0.99231  Biso   1.000  C
  C186     1.0000 0.58652  0.61953  0.99438  Biso   1.000  C
  H213     1.0000 0.85774  0.67210  0.95450  Biso   1.000  H
  H214     1.0000 0.82134  0.73901  0.94067  Biso   1.000  H
  C187     1.0000 0.83325  0.72090  0.01950  Biso   1.000  C
  C188     1.0000 0.72945  0.53141  0.02383  Biso   1.000  C
  H215     1.0000 0.79601  0.48009  0.08301  Biso   1.000  H
  C189     1.0000 0.91245  0.51424  0.04934  Biso   1.000  C
  O22      1.0000 0.82251  0.38088  0.10211  Biso   1.000  O
  H216     1.0000 0.78674  0.20262  0.99528  Biso   1.000  H
  C190     1.0000 0.84920  0.15597  0.93857  Biso   1.000  C
  H217     1.0000 0.90458  0.20940  0.00059  Biso   1.000  H
  H218     1.0000 0.55928  0.82390  0.82689  Biso   1.000  H
  H219     1.0000 0.67589  0.83140  0.82619  Biso   1.000  H
  C191     1.0000 0.62374  0.87894  0.88611  Biso   1.000  C
  H220     1.0000 0.81078  0.58322  0.98067  Biso   1.000  H
  O23      1.0000 0.52025  0.66402  0.97891  Biso   1.000  O
  C192     1.0000 0.56410  0.57091  0.02469  Biso   1.000  C
  H221     1.0000 0.78171  0.74791  0.02911  Biso   1.000  H
  H222     1.0000 0.89705  0.74139  0.02512  Biso   1.000  H
  H223     1.0000 0.83537  0.68473  0.04121  Biso   1.000  H
  C193     1.0000 0.63543  0.52741  0.03899  Biso   1.000  C
  H224     1.0000 0.93047  0.51883  0.01352  Biso   1.000  H
  H225     1.0000 0.91250  0.55473  0.06520  Biso   1.000  H
  C194     1.0000 0.98871  0.47618  0.08070  Biso   1.000  C
  C195     1.0000 0.85759  0.33140  0.13414  Biso   1.000  C
  H226     1.0000 0.83686  0.11809  0.95677  Biso   1.000  H
  H227     1.0000 0.79674  0.16042  0.90880  Biso   1.000  H
  N19      1.0000 0.94356  0.15220  0.91888  Biso   1.000  N
  H228     1.0000 0.60489  0.91610  0.86630  Biso   1.000  H
  H229     1.0000 0.57517  0.87193  0.91099  Biso   1.000  H
  N20      1.0000 0.72095  0.88604  0.91458  Biso   1.000  N
  C196     1.0000 0.42572  0.66060  0.99661  Biso   1.000  C
  H230     1.0000 0.50057  0.56740  0.03551  Biso   1.000  H
  O24      1.0000 0.61920  0.47834  0.06918  Biso   1.000  O
  H231     1.0000 0.97300  0.47290  0.11672  Biso   1.000  H
  H232     1.0000 0.98945  0.43601  0.06512  Biso   1.000  H
  H233     1.0000 0.05366  0.49479  0.08082  Biso   1.000  H
  H234     1.0000 0.80960  0.29851  0.12961  Biso   1.000  H
  H235     1.0000 0.86665  0.34403  0.17081  Biso   1.000  H
  H236     1.0000 0.92063  0.31761  0.12402  Biso   1.000  H
  C197     1.0000 0.96500  0.10088  0.89033  Biso   1.000  C
  H237     1.0000 0.96183  0.18509  0.90138  Biso   1.000  H
  C198     1.0000 0.74049  0.93498  0.94856  Biso   1.000  C
  H238     1.0000 0.74884  0.85293  0.92700  Biso   1.000  H
  H239     1.0000 0.39278  0.62362  0.98348  Biso   1.000  H
  H240     1.0000 0.38623  0.69543  0.98360  Biso   1.000  H
  H241     1.0000 0.43353  0.66051  0.03489  Biso   1.000  H
  C199     1.0000 0.53904  0.47906  0.09992  Biso   1.000  C
  C200     1.0000 0.90125  0.05181  0.88302  Biso   1.000  C
  C201     1.0000 0.05705  0.09791  0.87170  Biso   1.000  C
  C202     1.0000 0.67868  0.98450  0.94814  Biso   1.000  C
  C203     1.0000 0.82813  0.93412  0.98341  Biso   1.000  C
  H242     1.0000 0.47552  0.47771  0.07699  Biso   1.000  H
  H243     1.0000 0.54092  0.51609  0.12121  Biso   1.000  H
  C204     1.0000 0.54971  0.42455  0.13472  Biso   1.000  C
  H244     1.0000 0.83904  0.05311  0.89580  Biso   1.000  H
  C205     1.0000 0.92885  0.00108  0.85717  Biso   1.000  C
  C206     1.0000 0.08093  0.04700  0.84490  Biso   1.000  C
  N21      1.0000 0.12294  0.14582  0.88005  Biso   1.000  N
  H245     1.0000 0.61969  0.98553  0.92458  Biso   1.000  H
  C207     1.0000 0.70188  0.03222  0.98153  Biso   1.000  C
  N22      1.0000 0.88455  0.88209  0.98645  Biso   1.000  N
  C208     1.0000 0.85075  0.98243  0.01586  Biso   1.000  C
  H246     1.0000 0.49364  0.42249  0.15550  Biso   1.000  H
  H247     1.0000 0.54883  0.38780  0.11301  Biso   1.000  H
  N23      1.0000 0.64201  0.42734  0.16980  Biso   1.000  N
  H248     1.0000 0.88636  0.96720  0.85338  Biso   1.000  H
  C209     1.0000 0.01678  0.99942  0.83709  Biso   1.000  C
  H249     1.0000 0.14276  0.04489  0.83170  Biso   1.000  H
  H250     1.0000 0.11785  0.15799  0.91400  Biso   1.000  H
  H251     1.0000 0.09486  0.17309  0.85568  Biso   1.000  H
  H252     1.0000 0.65882  0.06570  0.98098  Biso   1.000  H
  C210     1.0000 0.78773  0.03123  0.01555  Biso   1.000  C
  H253     1.0000 0.89787  0.86704  0.95470  Biso   1.000  H
  H254     1.0000 0.94307  0.88802  0.00700  Biso   1.000  H
  H255     1.0000 0.91043  0.98243  0.03891  Biso   1.000  H
  C211     1.0000 0.66163  0.38186  0.20765  Biso   1.000  C
  H256     1.0000 0.69241  0.43170  0.15261  Biso   1.000  H
  H257     1.0000 0.03340  0.96531  0.81779  Biso   1.000  H
  H258     1.0000 0.80355  0.06390  0.03871  Biso   1.000  H
  C212     1.0000 0.59782  0.33536  0.21409  Biso   1.000  C
  C213     1.0000 0.74953  0.38690  0.24233  Biso   1.000  C
  H259     1.0000 0.53813  0.33230  0.19132  Biso   1.000  H
  C214     1.0000 0.61901  0.29289  0.25339  Biso   1.000  C
  C215     1.0000 0.77013  0.34295  0.28034  Biso   1.000  C
  N24      1.0000 0.81401  0.43350  0.23565  Biso   1.000  N
  H260     1.0000 0.57382  0.26139  0.25760  Biso   1.000  H
  C216     1.0000 0.70542  0.29685  0.28604  Biso   1.000  C
  H261     1.0000 0.83021  0.34479  0.30291  Biso   1.000  H
  H262     1.0000 0.78099  0.46899  0.22601  Biso   1.000  H
  H263     1.0000 0.86102  0.43812  0.26300  Biso   1.000  H
  H264     1.0000 0.72080  0.26773  0.31272  Biso   1.000  H
  C217     1.0000 0.41323  0.39934  0.41915  Biso   1.000  C
  C218     1.0000 0.49146  0.40168  0.38829  Biso   1.000  C
  C219     1.0000 0.41095  0.35324  0.45544  Biso   1.000  C
  N25      1.0000 0.33603  0.44037  0.40981  Biso   1.000  N
  N26      1.0000 0.49147  0.44868  0.35197  Biso   1.000  N
  C220     1.0000 0.56502  0.35872  0.39571  Biso   1.000  C
  C221     1.0000 0.48461  0.31015  0.46110  Biso   1.000  C
  H265     1.0000 0.35850  0.35131  0.47641  Biso   1.000  H
  H266     1.0000 0.34895  0.47780  0.39450  Biso   1.000  H
  H267     1.0000 0.29896  0.44230  0.43868  Biso   1.000  H
  C222     1.0000 0.55935  0.44680  0.31291  Biso   1.000  C
  H268     1.0000 0.43033  0.45673  0.33818  Biso   1.000  H
  H269     1.0000 0.61895  0.36061  0.37579  Biso   1.000  H
  C223     1.0000 0.56103  0.31298  0.43188  Biso   1.000  C
  H270     1.0000 0.48189  0.27851  0.48559  Biso   1.000  H
  C224     1.0000 0.53148  0.49317  0.27119  Biso   1.000  C
  H271     1.0000 0.62702  0.45470  0.32970  Biso   1.000  H
  H272     1.0000 0.55817  0.40631  0.29689  Biso   1.000  H
  H273     1.0000 0.61162  0.28350  0.43630  Biso   1.000  H
  O25      1.0000 0.43817  0.47488  0.24479  Biso   1.000  O
  H274     1.0000 0.58140  0.49470  0.24651  Biso   1.000  H
  H275     1.0000 0.52633  0.53339  0.28701  Biso   1.000  H
  C225     1.0000 0.38537  0.51474  0.21194  Biso   1.000  C
  C226     1.0000 0.28680  0.49915  0.19729  Biso   1.000  C
  C227     1.0000 0.42486  0.56745  0.19397  Biso   1.000  C
  C228     1.0000 0.24668  0.44082  0.21663  Biso   1.000  C
  C229     1.0000 0.22967  0.54031  0.16655  Biso   1.000  C
  C230     1.0000 0.36465  0.60654  0.16288  Biso   1.000  C
  H276     1.0000 0.49257  0.57653  0.20299  Biso   1.000  H
  C231     1.0000 0.28770  0.38573  0.19135  Biso   1.000  C
  H277     1.0000 0.26897  0.43830  0.25498  Biso   1.000  H
  C232     1.0000 0.13380  0.43727  0.20967  Biso   1.000  C
  C233     1.0000 0.26512  0.59459  0.14948  Biso   1.000  C
  H278     1.0000 0.16239  0.53092  0.15659  Biso   1.000  H
  O26      1.0000 0.39825  0.65943  0.14378  Biso   1.000  O
  C234     1.0000 0.32094  0.33643  0.22205  Biso   1.000  C
  C235     1.0000 0.28478  0.38011  0.13776  Biso   1.000  C
  H279     1.0000 0.10974  0.44239  0.17221  Biso   1.000  H
  H280     1.0000 0.10787  0.47111  0.22881  Biso   1.000  H
  C236     1.0000 0.09204  0.37917  0.22854  Biso   1.000  C
  C237     1.0000 0.19826  0.64033  0.11898  Biso   1.000  C
  C238     1.0000 0.50021  0.67089  0.15183  Biso   1.000  C
  C239     1.0000 0.34700  0.28381  0.19901  Biso   1.000  C
  O27      1.0000 0.32254  0.34340  0.27498  Biso   1.000  O
  C240     1.0000 0.30971  0.32776  0.11269  Biso   1.000  C
  H281     1.0000 0.26465  0.41399  0.11679  Biso   1.000  H
  H282     1.0000 0.11768  0.37252  0.26529  Biso   1.000  H
  H283     1.0000 0.02020  0.38182  0.22510  Biso   1.000  H
  H284     1.0000 0.11144  0.34560  0.20741  Biso   1.000  H
  C241     1.0000 0.19533  0.63404  0.05992  Biso   1.000  C
  H285     1.0000 0.22709  0.68082  0.12819  Biso   1.000  H
  C242     1.0000 0.09320  0.64141  0.13378  Biso   1.000  C
  H286     1.0000 0.53521  0.63912  0.13530  Biso   1.000  H
  H287     1.0000 0.51377  0.70980  0.13640  Biso   1.000  H
  H288     1.0000 0.52247  0.67170  0.18940  Biso   1.000  H
  C243     1.0000 0.33986  0.27910  0.14487  Biso   1.000  C
  H289     1.0000 0.36988  0.25061  0.22018  Biso   1.000  H
  C244     1.0000 0.36624  0.29810  0.30795  Biso   1.000  C
  C245     1.0000 0.29477  0.31999  0.05379  Biso   1.000  C
  C246     1.0000 0.20362  0.57967  0.03457  Biso   1.000  C
  C247     1.0000 0.17758  0.68491  0.02832  Biso   1.000  C
  H290     1.0000 0.06329  0.60120  0.12722  Biso   1.000  H
  H291     1.0000 0.05360  0.67053  0.11101  Biso   1.000  H
  C248     1.0000 0.08845  0.65822  0.18991  Biso   1.000  C
  O28      1.0000 0.35954  0.22634  0.11980  Biso   1.000  O
  H292     1.0000 0.43393  0.29159  0.30060  Biso   1.000  H
  H293     1.0000 0.36643  0.31042  0.34451  Biso   1.000  H
  H294     1.0000 0.32866  0.26081  0.30170  Biso   1.000  H
  H295     1.0000 0.34036  0.28718  0.04558  Biso   1.000  H
  C249     1.0000 0.32071  0.37485  0.02293  Biso   1.000  C
  C250     1.0000 0.18928  0.29649  0.03765  Biso   1.000  C
  C251     1.0000 0.19494  0.57351  0.98070  Biso   1.000  C
  H296     1.0000 0.21589  0.54462  0.05531  Biso   1.000  H
  C252     1.0000 0.17159  0.68114  0.97438  Biso   1.000  C
  O29      1.0000 0.16654  0.73843  0.05441  Biso   1.000  O
  H297     1.0000 0.12004  0.69740  0.19710  Biso   1.000  H
  H298     1.0000 0.01954  0.66060  0.19639  Biso   1.000  H
  H299     1.0000 0.12268  0.62780  0.21280  Biso   1.000  H
  C253     1.0000 0.37637  0.17350  0.15093  Biso   1.000  C
  C254     1.0000 0.25209  0.41965  0.00769  Biso   1.000  C
  C255     1.0000 0.41329  0.38047  0.00562  Biso   1.000  C
  H300     1.0000 0.14208  0.32790  0.04550  Biso   1.000  H
  H301     1.0000 0.17846  0.26099  0.05929  Biso   1.000  H
  C256     1.0000 0.16663  0.27910  0.98047  Biso   1.000  C
  C257     1.0000 0.19148  0.51218  0.95379  Biso   1.000  C
  C258     1.0000 0.18102  0.62591  0.95082  Biso   1.000  C
  H302     1.0000 0.16113  0.71632  0.95360  Biso   1.000  H
  C259     1.0000 0.15613  0.79231  0.02457  Biso   1.000  C
  H303     1.0000 0.44060  0.17610  0.17311  Biso   1.000  H
  H304     1.0000 0.32400  0.16860  0.17382  Biso   1.000  H
  C260     1.0000 0.37607  0.12110  0.11386  Biso   1.000  C
  H305     1.0000 0.18910  0.41682  0.01930  Biso   1.000  H
  C261     1.0000 0.27036  0.46859  0.97617  Biso   1.000  C
  O30      1.0000 0.47955  0.33598  0.02105  Biso   1.000  O
  C262     1.0000 0.43570  0.42909  0.97528  Biso   1.000  C
  H306     1.0000 0.21810  0.25209  0.97086  Biso   1.000  H
  H307     1.0000 0.10284  0.25861  0.97488  Biso   1.000  H
  H308     1.0000 0.16451  0.31531  0.95879  Biso   1.000  H
  H309     1.0000 0.20380  0.51991  0.91700  Biso   1.000  H
  C263     1.0000 0.08744  0.48576  0.95067  Biso   1.000  C
  O31      1.0000 0.17737  0.61912  0.89786  Biso   1.000  O
  H310     1.0000 0.21306  0.79743  0.00469  Biso   1.000  H
  C264     1.0000 0.15069  0.84407  0.06144  Biso   1.000  C
  H311     1.0000 0.09530  0.79060  0.99938  Biso   1.000  H
  H312     1.0000 0.39500  0.08390  0.13370  Biso   1.000  H
  H313     1.0000 0.42471  0.12811  0.08902  Biso   1.000  H
  N27      1.0000 0.27885  0.11400  0.08538  Biso   1.000  N
  C265     1.0000 0.36444  0.47263  0.96098  Biso   1.000  C
  C266     1.0000 0.57409  0.33940  0.00340  Biso   1.000  C
  H314     1.0000 0.49932  0.43260  0.96449  Biso   1.000  H
  H315     1.0000 0.06942  0.48122  0.98649  Biso   1.000  H
  H316     1.0000 0.08730  0.44531  0.93477  Biso   1.000  H
  C267     1.0000 0.01110  0.52382  0.91926  Biso   1.000  C
  C268     1.0000 0.14222  0.66864  0.86587  Biso   1.000  C
  H317     1.0000 0.16302  0.88191  0.04320  Biso   1.000  H
  H318     1.0000 0.20307  0.83962  0.09120  Biso   1.000  H
  N28      1.0000 0.05631  0.84785  0.08109  Biso   1.000  N
  C269     1.0000 0.25939  0.06507  0.05140  Biso   1.000  C
  H319     1.0000 0.25097  0.14712  0.07300  Biso   1.000  H
  O32      1.0000 0.38062  0.52166  0.93083  Biso   1.000  O
  H320     1.0000 0.60710  0.37643  0.01648  Biso   1.000  H
  H321     1.0000 0.61358  0.30462  0.01641  Biso   1.000  H
  H322     1.0000 0.56635  0.33949  0.96508  Biso   1.000  H
  H323     1.0000 0.94623  0.50521  0.91919  Biso   1.000  H
  H324     1.0000 0.02681  0.52710  0.88329  Biso   1.000  H
  H325     1.0000 0.01044  0.56399  0.93489  Biso   1.000  H
  H326     1.0000 0.19021  0.70149  0.87040  Biso   1.000  H
  H327     1.0000 0.13324  0.65602  0.82919  Biso   1.000  H
  H328     1.0000 0.07925  0.68239  0.87599  Biso   1.000  H
  C270     1.0000 0.03489  0.89912  0.10968  Biso   1.000  C
  H329     1.0000 0.03797  0.81491  0.09859  Biso   1.000  H
  C271     1.0000 0.32120  0.01550  0.05183  Biso   1.000  C
  C272     1.0000 0.17168  0.06588  0.01660  Biso   1.000  C
  C273     1.0000 0.46084  0.52098  0.90005  Biso   1.000  C
  C274     1.0000 0.09856  0.94823  0.11698  Biso   1.000  C
  C275     1.0000 0.94276  0.90209  0.12831  Biso   1.000  C
  H330     1.0000 0.38019  0.01451  0.07539  Biso   1.000  H
  C276     1.0000 0.29801  0.96778  0.01848  Biso   1.000  C
  N29      1.0000 0.11527  0.11791  0.01355  Biso   1.000  N
  C277     1.0000 0.14913  0.01757  0.98410  Biso   1.000  C
  H331     1.0000 0.52436  0.52229  0.92297  Biso   1.000  H
  H332     1.0000 0.45897  0.48391  0.87880  Biso   1.000  H
  C278     1.0000 0.45011  0.57545  0.86528  Biso   1.000  C
  H333     1.0000 0.16077  0.94693  0.10421  Biso   1.000  H
  C279     1.0000 0.07096  0.99892  0.14284  Biso   1.000  C
  C280     1.0000 0.91888  0.95300  0.15511  Biso   1.000  C
  N30      1.0000 0.87687  0.85418  0.11991  Biso   1.000  N
  C281     1.0000 0.21208  0.96877  0.98445  Biso   1.000  C
  H334     1.0000 0.34099  0.93430  0.01898  Biso   1.000  H
  H335     1.0000 0.10202  0.13301  0.04531  Biso   1.000  H
  H336     1.0000 0.05681  0.11198  0.99297  Biso   1.000  H
  H337     1.0000 0.08939  0.01761  0.96110  Biso   1.000  H
  H338     1.0000 0.50624  0.57751  0.84446  Biso   1.000  H
  H339     1.0000 0.45106  0.61220  0.88700  Biso   1.000  H
  N31      1.0000 0.35788  0.57271  0.83021  Biso   1.000  N
  C282     1.0000 0.98310  0.00058  0.16288  Biso   1.000  C
  H340     1.0000 0.11344  0.03280  0.14659  Biso   1.000  H
  H341     1.0000 0.85706  0.95511  0.16831  Biso   1.000  H
  H342     1.0000 0.88204  0.84201  0.08601  Biso   1.000  H
  H343     1.0000 0.90501  0.82691  0.14429  Biso   1.000  H
  H344     1.0000 0.19634  0.93610  0.96129  Biso   1.000  H
  C283     1.0000 0.33826  0.61814  0.79236  Biso   1.000  C
  H345     1.0000 0.30741  0.56830  0.84739  Biso   1.000  H
  H346     1.0000 0.96649  0.03469  0.18221  Biso   1.000  H
  C284     1.0000 0.40206  0.66464  0.78587  Biso   1.000  C
  C285     1.0000 0.25035  0.61315  0.75763  Biso   1.000  C
  H347     1.0000 0.46176  0.66770  0.80869  Biso   1.000  H
  C286     1.0000 0.38087  0.70711  0.74658  Biso   1.000  C
  C287     1.0000 0.22976  0.65705  0.71967  Biso   1.000  C
  N32      1.0000 0.18587  0.56650  0.76431  Biso   1.000  N
  H348     1.0000 0.42607  0.73861  0.74240  Biso   1.000  H
  C288     1.0000 0.29447  0.70315  0.71397  Biso   1.000  C
  H349     1.0000 0.16968  0.65521  0.69709  Biso   1.000  H
  H350     1.0000 0.21883  0.53101  0.77400  Biso   1.000  H
  H351     1.0000 0.13886  0.56192  0.73697  Biso   1.000  H
  H352     1.0000 0.27909  0.73232  0.68729  Biso   1.000  H
