data_image0
_cell_length_a       37.565
_cell_length_b       20.306
_cell_length_c       22.511
_cell_angle_alpha    90
_cell_angle_beta     118.62
_cell_angle_gamma    90

_symmetry_space_group_name_H-M    "P 1"
_symmetry_int_tables_number       1

loop_
  _symmetry_equiv_pos_as_xyz
  'x, y, z'

loop_
  _atom_site_label
  _atom_site_occupancy
  _atom_site_fract_x
  _atom_site_fract_y
  _atom_site_fract_z
  _atom_site_thermal_displace_type
  _atom_site_B_iso_or_equiv
  _atom_site_type_symbol
  C1       1.0000 0.48759  0.51433  0.39817  Biso   1.000  C
  C2       1.0000 0.47701  0.58707  0.38840  Biso   1.000  C
  H1       1.0000 0.47681  0.49448  0.42600  Biso   1.000  H
  H2       1.0000 0.51712  0.50911  0.42084  Biso   1.000  H
  H3       1.0000 0.47563  0.49247  0.35399  Biso   1.000  H
  C3       1.0000 0.43094  0.59441  0.35697  Biso   1.000  C
  C4       1.0000 0.49805  0.62095  0.45834  Biso   1.000  C
  C5       1.0000 0.49347  0.61957  0.34594  Biso   1.000  C
  C6       1.0000 0.40616  0.60760  0.28866  Biso   1.000  C
  C7       1.0000 0.41170  0.58500  0.39635  Biso   1.000  C
  H4       1.0000 0.48968  0.59943  0.48865  Biso   1.000  H
  H5       1.0000 0.49026  0.66749  0.45328  Biso   1.000  H
  H6       1.0000 0.52751  0.61740  0.47742  Biso   1.000  H
  H7       1.0000 0.52314  0.61706  0.36973  Biso   1.000  H
  H8       1.0000 0.48505  0.66586  0.33830  Biso   1.000  H
  H9       1.0000 0.48284  0.59687  0.30232  Biso   1.000  H
  C8       1.0000 0.36393  0.61174  0.26006  Biso   1.000  C
  H10      1.0000 0.41828  0.61410  0.26047  Biso   1.000  H
  C9       1.0000 0.37004  0.59130  0.36998  Biso   1.000  C
  H11      1.0000 0.42771  0.57392  0.44275  Biso   1.000  H
  C10      1.0000 0.34139  0.62395  0.18522  Biso   1.000  C
  C11      1.0000 0.34567  0.60465  0.30105  Biso   1.000  C
  C12      1.0000 0.35437  0.58244  0.41993  Biso   1.000  C
  N1       1.0000 0.30163  0.60962  0.15243  Biso   1.000  N
  O1       1.0000 0.35940  0.64533  0.15551  Biso   1.000  O
  H12      1.0000 0.31711  0.60883  0.28243  Biso   1.000  H
  N2       1.0000 0.31598  0.60061  0.40090  Biso   1.000  N
  O2       1.0000 0.37708  0.55900  0.47640  Biso   1.000  O
  C13      1.0000 0.27861  0.61263  0.07874  Biso   1.000  C
  H13      1.0000 0.28929  0.59825  0.17565  Biso   1.000  H
  C14      1.0000 0.30002  0.59652  0.44832  Biso   1.000  C
  H14      1.0000 0.30040  0.61509  0.35950  Biso   1.000  H
  C15      1.0000 0.27375  0.54412  0.04818  Biso   1.000  C
  H15      1.0000 0.29283  0.64153  0.06149  Biso   1.000  H
  H16      1.0000 0.25151  0.63178  0.06493  Biso   1.000  H
  C16      1.0000 0.29927  0.66355  0.47807  Biso   1.000  C
  H17      1.0000 0.31700  0.56589  0.48541  Biso   1.000  H
  H18      1.0000 0.27215  0.57840  0.42479  Biso   1.000  H
  N3       1.0000 0.24480  0.50424  0.05916  Biso   1.000  N
  H19      1.0000 0.30040  0.52172  0.06887  Biso   1.000  H
  H20      1.0000 0.26418  0.54806  0.99899  Biso   1.000  H
  N4       1.0000 0.26774  0.70688  0.43010  Biso   1.000  N
  H21      1.0000 0.29503  0.65710  0.51785  Biso   1.000  H
  H22      1.0000 0.32596  0.68502  0.49402  Biso   1.000  H
  C17      1.0000 0.25784  0.43672  0.07935  Biso   1.000  C
  C18      1.0000 0.20340  0.50842  0.00314  Biso   1.000  C
  C19      1.0000 0.22841  0.70280  0.42803  Biso   1.000  C
  C20      1.0000 0.28094  0.77302  0.42509  Biso   1.000  C
  C21      1.0000 0.28354  0.42662  0.15571  Biso   1.000  C
  H23      1.0000 0.27371  0.42209  0.05713  Biso   1.000  H
  H24      1.0000 0.23353  0.40830  0.06265  Biso   1.000  H
  C22      1.0000 0.17268  0.50808  0.02890  Biso   1.000  C
  H25      1.0000 0.19822  0.47060  0.97227  Biso   1.000  H
  H26      1.0000 0.20040  0.54935  0.97728  Biso   1.000  H
  C23      1.0000 0.19408  0.70038  0.35561  Biso   1.000  C
  H27      1.0000 0.22478  0.74155  0.45125  Biso   1.000  H
  H28      1.0000 0.22753  0.66281  0.45242  Biso   1.000  H
  C24      1.0000 0.29462  0.78021  0.37165  Biso   1.000  C
  H29      1.0000 0.30367  0.78568  0.46967  Biso   1.000  H
  H30      1.0000 0.25838  0.80410  0.41446  Biso   1.000  H
  N5       1.0000 0.25994  0.42180  0.19139  Biso   1.000  N
  H31      1.0000 0.29971  0.38590  0.16391  Biso   1.000  H
  H32      1.0000 0.30276  0.46385  0.17484  Biso   1.000  H
  N6       1.0000 0.17876  0.56560  0.07141  Biso   1.000  N
  H33      1.0000 0.17587  0.46750  0.05531  Biso   1.000  H
  H34      1.0000 0.14492  0.50867  0.99008  Biso   1.000  H
  N7       1.0000 0.19718  0.64089  0.32266  Biso   1.000  N
  H35      1.0000 0.16769  0.70112  0.35551  Biso   1.000  H
  H36      1.0000 0.19544  0.73949  0.33051  Biso   1.000  H
  N8       1.0000 0.26033  0.78489  0.30348  Biso   1.000  N
  H37      1.0000 0.31160  0.82020  0.38137  Biso   1.000  H
  H38      1.0000 0.31149  0.74175  0.37413  Biso   1.000  H
  C25      1.0000 0.24928  0.47557  0.21351  Biso   1.000  C
  H39      1.0000 0.25258  0.38274  0.19858  Biso   1.000  H
  H40      1.0000 0.19456  0.56269  0.11543  Biso   1.000  H
  C26      1.0000 0.16043  0.62321  0.04403  Biso   1.000  C
  C27      1.0000 0.18078  0.58411  0.32894  Biso   1.000  C
  H41      1.0000 0.20987  0.64193  0.29842  Biso   1.000  H
  C28      1.0000 0.24837  0.72998  0.26922  Biso   1.000  C
  C29      1.0000 0.22521  0.46705  0.25030  Biso   1.000  C
  O3       1.0000 0.25831  0.53186  0.20445  Biso   1.000  O
  C30      1.0000 0.17418  0.68251  0.08932  Biso   1.000  C
  O4       1.0000 0.13307  0.62706  0.98497  Biso   1.000  O
  C31      1.0000 0.19252  0.52300  0.30520  Biso   1.000  C
  O5       1.0000 0.15712  0.58185  0.35252  Biso   1.000  O
  O6       1.0000 0.26218  0.67172  0.28850  Biso   1.000  O
  C32      1.0000 0.21436  0.73545  0.19721  Biso   1.000  C
  C33      1.0000 0.21318  0.40678  0.26442  Biso   1.000  C
  C34      1.0000 0.21522  0.52521  0.27160  Biso   1.000  C
  C35      1.0000 0.20422  0.67950  0.15688  Biso   1.000  C
  C36      1.0000 0.15519  0.74244  0.06209  Biso   1.000  C
  C37      1.0000 0.18035  0.46238  0.31846  Biso   1.000  C
  C38      1.0000 0.19431  0.79449  0.16928  Biso   1.000  C
  H42      1.0000 0.22032  0.36723  0.25015  Biso   1.000  H
  C39      1.0000 0.19069  0.40343  0.29928  Biso   1.000  C
  H43      1.0000 0.22392  0.56638  0.26305  Biso   1.000  H
  H44      1.0000 0.21778  0.63912  0.17535  Biso   1.000  H
  C40      1.0000 0.16494  0.79917  0.10126  Biso   1.000  C
  H45      1.0000 0.13519  0.74451  0.01579  Biso   1.000  H
  H46      1.0000 0.16459  0.46134  0.34119  Biso   1.000  H
  H47      1.0000 0.20078  0.83246  0.19721  Biso   1.000  H
  C41      1.0000 0.17922  0.33650  0.31573  Biso   1.000  C
  C42      1.0000 0.14618  0.86630  0.07191  Biso   1.000  C
  C43      1.0000 0.21753  0.30060  0.36664  Biso   1.000  C
  C44      1.0000 0.15070  0.34221  0.34594  Biso   1.000  C
  C45      1.0000 0.15839  0.29499  0.25106  Biso   1.000  C
  C46      1.0000 0.17933  0.91116  0.07368  Biso   1.000  C
  C47      1.0000 0.12779  0.89634  0.11290  Biso   1.000  C
  C48      1.0000 0.11314  0.86117  0.99798  Biso   1.000  C
  H48      1.0000 0.23130  0.32680  0.40814  Biso   1.000  H
  H49      1.0000 0.23568  0.29444  0.34716  Biso   1.000  H
  H50      1.0000 0.21013  0.25761  0.37722  Biso   1.000  H
  H51      1.0000 0.14257  0.29809  0.35247  Biso   1.000  H
  H52      1.0000 0.12659  0.36738  0.31517  Biso   1.000  H
  H53      1.0000 0.16461  0.36487  0.38967  Biso   1.000  H
  H54      1.0000 0.17774  0.28548  0.23461  Biso   1.000  H
  H55      1.0000 0.13525  0.31941  0.21634  Biso   1.000  H
  H56      1.0000 0.14885  0.25357  0.26082  Biso   1.000  H
  H57      1.0000 0.20008  0.91840  0.12075  Biso   1.000  H
  H58      1.0000 0.16744  0.95351  0.05268  Biso   1.000  H
  H59      1.0000 0.19175  0.89038  0.04878  Biso   1.000  H
  H60      1.0000 0.10751  0.86615  0.11321  Biso   1.000  H
  H61      1.0000 0.11480  0.93829  0.09251  Biso   1.000  H
  H62      1.0000 0.14919  0.90392  0.15946  Biso   1.000  H
  H63      1.0000 0.12502  0.84492  0.97034  Biso   1.000  H
  H64      1.0000 0.10120  0.90471  0.98168  Biso   1.000  H
  H65      1.0000 0.09206  0.83059  0.99453  Biso   1.000  H
  C49      1.0000 0.51246  0.48567  0.60186  Biso   1.000  C
  C50      1.0000 0.52304  0.41293  0.61162  Biso   1.000  C
  H66      1.0000 0.52323  0.50552  0.57407  Biso   1.000  H
  H67      1.0000 0.48293  0.49089  0.57919  Biso   1.000  H
  H68      1.0000 0.52443  0.50753  0.64604  Biso   1.000  H
  C51      1.0000 0.50201  0.37905  0.54169  Biso   1.000  C
  C52      1.0000 0.56912  0.40559  0.64305  Biso   1.000  C
  C53      1.0000 0.50658  0.38043  0.65408  Biso   1.000  C
  H69      1.0000 0.51037  0.40057  0.51137  Biso   1.000  H
  H70      1.0000 0.50979  0.33251  0.54675  Biso   1.000  H
  H71      1.0000 0.47252  0.38260  0.52261  Biso   1.000  H
  C54      1.0000 0.58834  0.41500  0.60373  Biso   1.000  C
  C55      1.0000 0.59389  0.39235  0.71137  Biso   1.000  C
  H72      1.0000 0.47689  0.38294  0.63030  Biso   1.000  H
  H73      1.0000 0.51502  0.33414  0.66177  Biso   1.000  H
  H74      1.0000 0.51719  0.40313  0.69770  Biso   1.000  H
  C56      1.0000 0.63001  0.40865  0.63010  Biso   1.000  C
  H75      1.0000 0.57231  0.42608  0.55727  Biso   1.000  H
  C57      1.0000 0.63609  0.38826  0.73996  Biso   1.000  C
  H76      1.0000 0.58178  0.38590  0.73956  Biso   1.000  H
  C58      1.0000 0.64570  0.41756  0.58015  Biso   1.000  C
  C59      1.0000 0.65438  0.39535  0.69897  Biso   1.000  C
  C60      1.0000 0.65868  0.37605  0.81486  Biso   1.000  C
  O7       1.0000 0.62295  0.44095  0.52362  Biso   1.000  O
  N9       1.0000 0.68405  0.39939  0.59912  Biso   1.000  N
  H77      1.0000 0.68291  0.39117  0.71759  Biso   1.000  H
  O8       1.0000 0.64065  0.35462  0.84451  Biso   1.000  O
  N10      1.0000 0.69844  0.39038  0.84765  Biso   1.000  N
  H78      1.0000 0.69963  0.38491  0.64052  Biso   1.000  H
  C61      1.0000 0.70004  0.40348  0.55171  Biso   1.000  C
  H79      1.0000 0.71077  0.40170  0.82437  Biso   1.000  H
  C62      1.0000 0.72144  0.38737  0.92128  Biso   1.000  C
  C63      1.0000 0.70079  0.33645  0.52195  Biso   1.000  C
  H80      1.0000 0.68305  0.43406  0.51461  Biso   1.000  H
  H81      1.0000 0.72789  0.42155  0.57529  Biso   1.000  H
  C64      1.0000 0.72630  0.45588  0.95185  Biso   1.000  C
  H82      1.0000 0.70722  0.35847  0.93859  Biso   1.000  H
  H83      1.0000 0.74851  0.36822  0.93510  Biso   1.000  H
  N11      1.0000 0.73231  0.29312  0.56992  Biso   1.000  N
  H84      1.0000 0.70502  0.34290  0.48217  Biso   1.000  H
  H85      1.0000 0.67409  0.31493  0.50601  Biso   1.000  H
  N12      1.0000 0.75525  0.49576  0.94087  Biso   1.000  N
  H86      1.0000 0.69962  0.47828  0.93115  Biso   1.000  H
  H87      1.0000 0.73586  0.45189  0.00109  Biso   1.000  H
  C65      1.0000 0.77166  0.29720  0.57205  Biso   1.000  C
  C66      1.0000 0.71908  0.22693  0.57493  Biso   1.000  C
  C67      1.0000 0.74219  0.56323  0.92067  Biso   1.000  C
  C68      1.0000 0.79665  0.49158  0.99689  Biso   1.000  C
  H88      1.0000 0.77528  0.25845  0.54877  Biso   1.000  H
  H89      1.0000 0.77253  0.33719  0.54766  Biso   1.000  H
  C69      1.0000 0.80598  0.29962  0.64442  Biso   1.000  C
  C70      1.0000 0.70541  0.21979  0.62837  Biso   1.000  C
  H90      1.0000 0.69636  0.21432  0.53035  Biso   1.000  H
  H91      1.0000 0.74167  0.19590  0.58556  Biso   1.000  H
  C71      1.0000 0.71652  0.57338  0.84431  Biso   1.000  C
  H92      1.0000 0.72634  0.57791  0.94289  Biso   1.000  H
  H93      1.0000 0.76652  0.59170  0.93737  Biso   1.000  H
  C72      1.0000 0.82735  0.49187  0.97113  Biso   1.000  C
  H94      1.0000 0.80181  0.52935  0.02776  Biso   1.000  H
  H95      1.0000 0.79967  0.45065  0.02280  Biso   1.000  H
  N13      1.0000 0.80287  0.35911  0.67736  Biso   1.000  N
  H96      1.0000 0.83236  0.29888  0.64452  Biso   1.000  H
  H97      1.0000 0.80461  0.26051  0.66952  Biso   1.000  H
  N14      1.0000 0.73972  0.21511  0.69654  Biso   1.000  N
  H98      1.0000 0.68846  0.17980  0.61866  Biso   1.000  H
  H99      1.0000 0.68854  0.25825  0.62589  Biso   1.000  H
  N15      1.0000 0.74011  0.57820  0.80863  Biso   1.000  N
  H100     1.0000 0.70035  0.61410  0.83611  Biso   1.000  H
  H101     1.0000 0.69730  0.53615  0.82523  Biso   1.000  H
  N16      1.0000 0.82130  0.43440  0.92862  Biso   1.000  N
  H102     1.0000 0.82420  0.53250  0.94476  Biso   1.000  H
  H103     1.0000 0.85513  0.49133  0.00994  Biso   1.000  H
  H104     1.0000 0.79018  0.35807  0.70160  Biso   1.000  H
  C73      1.0000 0.81925  0.41589  0.67109  Biso   1.000  C
  C74      1.0000 0.75166  0.26997  0.73080  Biso   1.000  C
  H105     1.0000 0.74747  0.61726  0.80145  Biso   1.000  H
  C75      1.0000 0.75077  0.52443  0.78652  Biso   1.000  C
  H106     1.0000 0.80548  0.43731  0.88464  Biso   1.000  H
  C76      1.0000 0.83962  0.37679  0.95600  Biso   1.000  C
  O9       1.0000 0.84295  0.41815  0.64755  Biso   1.000  O
  C77      1.0000 0.80751  0.47700  0.69482  Biso   1.000  C
  O10      1.0000 0.73784  0.32823  0.71152  Biso   1.000  O
  C78      1.0000 0.78567  0.26455  0.80281  Biso   1.000  C
  O11      1.0000 0.74174  0.46814  0.79558  Biso   1.000  O
  C79      1.0000 0.77485  0.53290  0.74973  Biso   1.000  C
  C80      1.0000 0.82587  0.31749  0.91071  Biso   1.000  C
  O12      1.0000 0.86698  0.37294  0.01505  Biso   1.000  O
  C81      1.0000 0.78481  0.47474  0.72842  Biso   1.000  C
  C82      1.0000 0.81970  0.53762  0.68156  Biso   1.000  C
  C83      1.0000 0.80574  0.20546  0.83075  Biso   1.000  C
  C84      1.0000 0.79583  0.32050  0.84315  Biso   1.000  C
  C85      1.0000 0.78689  0.59317  0.73566  Biso   1.000  C
  C86      1.0000 0.84484  0.25756  0.93793  Biso   1.000  C
  H107     1.0000 0.77611  0.43362  0.73697  Biso   1.000  H
  H108     1.0000 0.83546  0.53861  0.65884  Biso   1.000  H
  C87      1.0000 0.80934  0.59657  0.70074  Biso   1.000  C
  H109     1.0000 0.79927  0.16749  0.80281  Biso   1.000  H
  C88      1.0000 0.83512  0.20083  0.89876  Biso   1.000  C
  H110     1.0000 0.78227  0.36088  0.82473  Biso   1.000  H
  H111     1.0000 0.77974  0.63277  0.74988  Biso   1.000  H
  H112     1.0000 0.86487  0.25549  0.98424  Biso   1.000  H
  C89      1.0000 0.82083  0.66345  0.68429  Biso   1.000  C
  C90      1.0000 0.85387  0.13370  0.92811  Biso   1.000  C
  C91      1.0000 0.78254  0.69935  0.63344  Biso   1.000  C
  C92      1.0000 0.84935  0.65779  0.65408  Biso   1.000  C
  C93      1.0000 0.84167  0.70496  0.74902  Biso   1.000  C
  C94      1.0000 0.82072  0.08884  0.92634  Biso   1.000  C
  C95      1.0000 0.87226  0.10366  0.88712  Biso   1.000  C
  C96      1.0000 0.88688  0.13883  0.00205  Biso   1.000  C
  H113     1.0000 0.76875  0.67320  0.59189  Biso   1.000  H
  H114     1.0000 0.76435  0.70556  0.65287  Biso   1.000  H
  H115     1.0000 0.78990  0.74239  0.62281  Biso   1.000  H
  H116     1.0000 0.85750  0.70191  0.64760  Biso   1.000  H
  H117     1.0000 0.87346  0.63262  0.68485  Biso   1.000  H
  H118     1.0000 0.83544  0.63513  0.61036  Biso   1.000  H
  H119     1.0000 0.82229  0.71447  0.76542  Biso   1.000  H
  H120     1.0000 0.86477  0.68059  0.78368  Biso   1.000  H
  H121     1.0000 0.85121  0.74643  0.73920  Biso   1.000  H
  H122     1.0000 0.79997  0.08160  0.87928  Biso   1.000  H
  H123     1.0000 0.83261  0.04649  0.94734  Biso   1.000  H
  H124     1.0000 0.80830  0.10962  0.95124  Biso   1.000  H
  H125     1.0000 0.89252  0.13385  0.88682  Biso   1.000  H
  H126     1.0000 0.88523  0.06166  0.90752  Biso   1.000  H
  H127     1.0000 0.85086  0.09608  0.84057  Biso   1.000  H
  H128     1.0000 0.87504  0.15508  0.02968  Biso   1.000  H
  H129     1.0000 0.89886  0.09529  0.01834  Biso   1.000  H
  H130     1.0000 0.90800  0.16936  0.00549  Biso   1.000  H
  C97      1.0000 0.62782  0.60366  0.61294  Biso   1.000  C
  C98      1.0000 0.64622  0.63370  0.57195  Biso   1.000  C
  H131     1.0000 0.60753  0.63385  0.61319  Biso   1.000  H
  H132     1.0000 0.61483  0.56166  0.59255  Biso   1.000  H
  H133     1.0000 0.64923  0.59608  0.65950  Biso   1.000  H
  C99      1.0000 0.61311  0.63883  0.49796  Biso   1.000  C
  C100     1.0000 0.66494  0.70083  0.60130  Biso   1.000  C
  C101     1.0000 0.67936  0.58884  0.57372  Biso   1.000  C
  H134     1.0000 0.62498  0.65508  0.47033  Biso   1.000  H
  H135     1.0000 0.60115  0.59529  0.48172  Biso   1.000  H
  H136     1.0000 0.59204  0.66936  0.49457  Biso   1.000  H
  C102     1.0000 0.69434  0.70546  0.66931  Biso   1.000  C
  C103     1.0000 0.65522  0.75751  0.56213  Biso   1.000  C
  H137     1.0000 0.70011  0.58160  0.62078  Biso   1.000  H
  H138     1.0000 0.66748  0.54649  0.55272  Biso   1.000  H
  H139     1.0000 0.69177  0.60957  0.54877  Biso   1.000  H
  H140     1.0000 0.70082  0.66749  0.69725  Biso   1.000  H
  C104     1.0000 0.71438  0.76455  0.69720  Biso   1.000  C
  C105     1.0000 0.67420  0.81749  0.58931  Biso   1.000  C
  H141     1.0000 0.63522  0.75549  0.51583  Biso   1.000  H
  C106     1.0000 0.74840  0.76997  0.76926  Biso   1.000  C
  C107     1.0000 0.70424  0.82050  0.65687  Biso   1.000  C
  C108     1.0000 0.66045  0.87679  0.54401  Biso   1.000  C
  O13      1.0000 0.76220  0.82823  0.78849  Biso   1.000  O
  N17      1.0000 0.76037  0.71506  0.80352  Biso   1.000  N
  H142     1.0000 0.71780  0.86088  0.67534  Biso   1.000  H
  O14      1.0000 0.63303  0.87294  0.48501  Biso   1.000  O
  N18      1.0000 0.67877  0.93440  0.57139  Biso   1.000  N
  C109     1.0000 0.79465  0.71979  0.87169  Biso   1.000  C
  H143     1.0000 0.69458  0.93731  0.61542  Biso   1.000  H
  C110     1.0000 0.67270  0.99187  0.52888  Biso   1.000  C
  H144     1.0000 0.81163  0.67980  0.88140  Biso   1.000  H
  H145     1.0000 0.81152  0.75820  0.87417  Biso   1.000  H
  C111     1.0000 0.78098  0.72693  0.92513  Biso   1.000  C
  H146     1.0000 0.64490  0.99133  0.49012  Biso   1.000  H
  C112     1.0000 0.70344  0.99158  0.50318  Biso   1.000  C
  H147     1.0000 0.67589  0.03250  0.55530  Biso   1.000  H
  N19      1.0000 0.76776  0.79312  0.93009  Biso   1.000  N
  H148     1.0000 0.80369  0.71432  0.96966  Biso   1.000  H
  H149     1.0000 0.75837  0.69590  0.91445  Biso   1.000  H
  N20      1.0000 0.74483  0.99576  0.55920  Biso   1.000  N
  H150     1.0000 0.70037  0.95061  0.47726  Biso   1.000  H
  H151     1.0000 0.69820  0.02935  0.47231  Biso   1.000  H
  C113     1.0000 0.72843  0.79720  0.92801  Biso   1.000  C
  C114     1.0000 0.79930  0.83645  0.97811  Biso   1.000  C
  C115     1.0000 0.77377  0.95588  0.54816  Biso   1.000  C
  C116     1.0000 0.75787  0.06323  0.57939  Biso   1.000  C
  H152     1.0000 0.72481  0.75845  0.95129  Biso   1.000  H
  H153     1.0000 0.72755  0.83719  0.95240  Biso   1.000  H
  C117     1.0000 0.69411  0.79962  0.85565  Biso   1.000  C
  H154     1.0000 0.82598  0.81493  0.99400  Biso   1.000  H
  C118     1.0000 0.80005  0.90348  0.94836  Biso   1.000  C
  H155     1.0000 0.79500  0.84290  0.01784  Biso   1.000  H
  H156     1.0000 0.76415  0.95189  0.49897  Biso   1.000  H
  H157     1.0000 0.80042  0.97828  0.56886  Biso   1.000  H
  C119     1.0000 0.77865  0.88737  0.57878  Biso   1.000  C
  C120     1.0000 0.78357  0.07333  0.65575  Biso   1.000  C
  H158     1.0000 0.77375  0.07786  0.55717  Biso   1.000  H
  H159     1.0000 0.73356  0.09170  0.56269  Biso   1.000  H
  N21      1.0000 0.69719  0.85911  0.82270  Biso   1.000  N
  H160     1.0000 0.66771  0.79883  0.85549  Biso   1.000  H
  H161     1.0000 0.69546  0.76051  0.83049  Biso   1.000  H
  N22      1.0000 0.81600  0.89939  0.90089  Biso   1.000  N
  H162     1.0000 0.81703  0.93406  0.98545  Biso   1.000  H
  H163     1.0000 0.77217  0.92155  0.92477  Biso   1.000  H
  N23      1.0000 0.80162  0.89038  0.65241  Biso   1.000  N
  H164     1.0000 0.79284  0.85847  0.56147  Biso   1.000  H
  H165     1.0000 0.75153  0.86817  0.56491  Biso   1.000  H
  N24      1.0000 0.75998  0.07820  0.69143  Biso   1.000  N
  H166     1.0000 0.79970  0.11410  0.66390  Biso   1.000  H
  H167     1.0000 0.80278  0.03610  0.67483  Biso   1.000  H
  H168     1.0000 0.70988  0.85802  0.79846  Biso   1.000  H
  C121     1.0000 0.68080  0.91589  0.82893  Biso   1.000  C
  H169     1.0000 0.80043  0.88486  0.85954  Biso   1.000  H
  C122     1.0000 0.85439  0.91756  0.91992  Biso   1.000  C
  H170     1.0000 0.78929  0.90170  0.67569  Biso   1.000  H
  C123     1.0000 0.84141  0.87600  0.68520  Biso   1.000  C
  H171     1.0000 0.75262  0.11726  0.69862  Biso   1.000  H
  C124     1.0000 0.74930  0.02438  0.71349  Biso   1.000  C
  O15      1.0000 0.65714  0.91815  0.85251  Biso   1.000  O
  C125     1.0000 0.69255  0.97700  0.80524  Biso   1.000  C
  O16      1.0000 0.87711  0.94095  0.97644  Biso   1.000  O
  C126     1.0000 0.87006  0.90865  0.86997  Biso   1.000  C
  O17      1.0000 0.85943  0.85462  0.65555  Biso   1.000  O
  C127     1.0000 0.86395  0.88826  0.76005  Biso   1.000  C
  O18      1.0000 0.75833  0.96814  0.70444  Biso   1.000  O
  C128     1.0000 0.72524  0.03290  0.75033  Biso   1.000  C
  C129     1.0000 0.71524  0.97474  0.77159  Biso   1.000  C
  C130     1.0000 0.68039  0.03762  0.81850  Biso   1.000  C
  C131     1.0000 0.84571  0.89535  0.80109  Biso   1.000  C
  C132     1.0000 0.91172  0.91500  0.89633  Biso   1.000  C
  C133     1.0000 0.90618  0.89235  0.78864  Biso   1.000  C
  C134     1.0000 0.71320  0.09317  0.76440  Biso   1.000  C
  H172     1.0000 0.72395  0.93362  0.76309  Biso   1.000  H
  H173     1.0000 0.66461  0.03861  0.84117  Biso   1.000  H
  C135     1.0000 0.69072  0.09657  0.79932  Biso   1.000  C
  H174     1.0000 0.81715  0.89117  0.78247  Biso   1.000  H
  H175     1.0000 0.92775  0.92608  0.94279  Biso   1.000  H
  C136     1.0000 0.93094  0.90559  0.85701  Biso   1.000  C
  H176     1.0000 0.91831  0.88590  0.76051  Biso   1.000  H
  H177     1.0000 0.72034  0.13277  0.75013  Biso   1.000  H
  C137     1.0000 0.67921  0.16345  0.81572  Biso   1.000  C
  C138     1.0000 0.97705  0.91293  0.88844  Biso   1.000  C
  C139     1.0000 0.71755  0.19935  0.86663  Biso   1.000  C
  C140     1.0000 0.65071  0.15779  0.84598  Biso   1.000  C
  C141     1.0000 0.65841  0.20496  0.75104  Biso   1.000  C
  C142     1.0000 0.99807  0.87905  0.95833  Biso   1.000  C
  C143     1.0000 0.99349  0.88038  0.84593  Biso   1.000  C
  C144     1.0000 0.98760  0.98567  0.89821  Biso   1.000  C
  H178     1.0000 0.73129  0.17320  0.90812  Biso   1.000  H
  H179     1.0000 0.73570  0.20556  0.84714  Biso   1.000  H
  H180     1.0000 0.71016  0.24239  0.87725  Biso   1.000  H
  H181     1.0000 0.64259  0.20191  0.85246  Biso   1.000  H
  H182     1.0000 0.62660  0.13262  0.81521  Biso   1.000  H
  H183     1.0000 0.66465  0.13513  0.88970  Biso   1.000  H
  H184     1.0000 0.67777  0.21447  0.73465  Biso   1.000  H
  H185     1.0000 0.63527  0.18059  0.71633  Biso   1.000  H
  H186     1.0000 0.64888  0.24643  0.76086  Biso   1.000  H
  H187     1.0000 0.98972  0.90057  0.98869  Biso   1.000  H
  H188     1.0000 0.99029  0.83251  0.95332  Biso   1.000  H
  H189     1.0000 0.02754  0.88260  0.97745  Biso   1.000  H
  H190     1.0000 0.98507  0.83414  0.83829  Biso   1.000  H
  H191     1.0000 0.98287  0.90313  0.80236  Biso   1.000  H
  H192     1.0000 0.02316  0.88294  0.86971  Biso   1.000  H
  H193     1.0000 0.97683  0.00552  0.92599  Biso   1.000  H
  H194     1.0000 0.97566  0.00753  0.85403  Biso   1.000  H
  H195     1.0000 0.01713  0.99089  0.92088  Biso   1.000  H
  C145     1.0000 0.37223  0.39634  0.38709  Biso   1.000  C
  C146     1.0000 0.35384  0.36630  0.42808  Biso   1.000  C
  H196     1.0000 0.39250  0.36615  0.38683  Biso   1.000  H
  H197     1.0000 0.38519  0.43834  0.40748  Biso   1.000  H
  H198     1.0000 0.35084  0.40392  0.34058  Biso   1.000  H
  C147     1.0000 0.33510  0.29917  0.39878  Biso   1.000  C
  C148     1.0000 0.32069  0.41116  0.42630  Biso   1.000  C
  C149     1.0000 0.38695  0.36117  0.50206  Biso   1.000  C
  C150     1.0000 0.30571  0.29449  0.33071  Biso   1.000  C
  C151     1.0000 0.34481  0.24244  0.43789  Biso   1.000  C
  H199     1.0000 0.29994  0.41840  0.37924  Biso   1.000  H
  H200     1.0000 0.33259  0.45351  0.44736  Biso   1.000  H
  H201     1.0000 0.30829  0.39038  0.45125  Biso   1.000  H
  H202     1.0000 0.37507  0.34492  0.52969  Biso   1.000  H
  H203     1.0000 0.39889  0.40471  0.51836  Biso   1.000  H
  H204     1.0000 0.40803  0.33064  0.50550  Biso   1.000  H
  C152     1.0000 0.28565  0.23545  0.30283  Biso   1.000  C
  H205     1.0000 0.29923  0.33246  0.30278  Biso   1.000  H
  C153     1.0000 0.32585  0.18251  0.41072  Biso   1.000  C
  H206     1.0000 0.36483  0.24451  0.48420  Biso   1.000  H
  C154     1.0000 0.25162  0.23003  0.23076  Biso   1.000  C
  C155     1.0000 0.29581  0.17950  0.34316  Biso   1.000  C
  C156     1.0000 0.33960  0.12321  0.45601  Biso   1.000  C
  O19      1.0000 0.23783  0.17177  0.21153  Biso   1.000  O
  N25      1.0000 0.23970  0.28489  0.19655  Biso   1.000  N
  H207     1.0000 0.28226  0.13912  0.32469  Biso   1.000  H
  O20      1.0000 0.36701  0.12706  0.51507  Biso   1.000  O
  N26      1.0000 0.32128  0.06560  0.42863  Biso   1.000  N
  C157     1.0000 0.20537  0.28021  0.12834  Biso   1.000  C
  H208     1.0000 0.30547  0.06269  0.38461  Biso   1.000  H
  C158     1.0000 0.32733  0.00808  0.47114  Biso   1.000  C
  H209     1.0000 0.18844  0.32020  0.11867  Biso   1.000  H
  H210     1.0000 0.18854  0.24175  0.12591  Biso   1.000  H
  C159     1.0000 0.21905  0.27302  0.07490  Biso   1.000  C
  H211     1.0000 0.35516  0.00867  0.50996  Biso   1.000  H
  C160     1.0000 0.29662  0.00842  0.49685  Biso   1.000  C
  H212     1.0000 0.32417  0.96750  0.44473  Biso   1.000  H
  N27      1.0000 0.23229  0.20688  0.06994  Biso   1.000  N
  H213     1.0000 0.19634  0.28568  0.03036  Biso   1.000  H
  H214     1.0000 0.24165  0.30410  0.08557  Biso   1.000  H
  N28      1.0000 0.25522  0.00424  0.44083  Biso   1.000  N
  H215     1.0000 0.29969  0.04935  0.52276  Biso   1.000  H
  H216     1.0000 0.30187  0.97060  0.52777  Biso   1.000  H
  C161     1.0000 0.27162  0.20280  0.07201  Biso   1.000  C
  C162     1.0000 0.20075  0.16355  0.02191  Biso   1.000  C
  C163     1.0000 0.22628  0.04412  0.45186  Biso   1.000  C
  C164     1.0000 0.24216  0.93672  0.42064  Biso   1.000  C
  H217     1.0000 0.27524  0.24155  0.04873  Biso   1.000  H
  H218     1.0000 0.27250  0.16281  0.04762  Biso   1.000  H
  C165     1.0000 0.30596  0.20038  0.14443  Biso   1.000  C
  H219     1.0000 0.17407  0.18502  0.00602  Biso   1.000  H
  C166     1.0000 0.20000  0.09652  0.05167  Biso   1.000  C
  H220     1.0000 0.20506  0.15710  0.98219  Biso   1.000  H
  H221     1.0000 0.23590  0.04811  0.50105  Biso   1.000  H
  H222     1.0000 0.19963  0.02172  0.43116  Biso   1.000  H
  C167     1.0000 0.22142  0.11263  0.42129  Biso   1.000  C
  C168     1.0000 0.21648  0.92662  0.34427  Biso   1.000  C
  H223     1.0000 0.22632  0.92209  0.44290  Biso   1.000  H
  H224     1.0000 0.26649  0.90830  0.43734  Biso   1.000  H
  N29      1.0000 0.30284  0.14089  0.17732  Biso   1.000  N
  H225     1.0000 0.33234  0.20112  0.14453  Biso   1.000  H
  H226     1.0000 0.30459  0.23949  0.16953  Biso   1.000  H
  N30      1.0000 0.18403  0.10061  0.09914  Biso   1.000  N
  H227     1.0000 0.18302  0.06589  0.01457  Biso   1.000  H
  H228     1.0000 0.22786  0.07840  0.07525  Biso   1.000  H
  N31      1.0000 0.19841  0.10962  0.34761  Biso   1.000  N
  H229     1.0000 0.20718  0.14153  0.43855  Biso   1.000  H
  H230     1.0000 0.24849  0.13178  0.43511  Biso   1.000  H
  N32      1.0000 0.24008  0.92180  0.30860  Biso   1.000  N
  H231     1.0000 0.20033  0.88590  0.33612  Biso   1.000  H
  H232     1.0000 0.19727  0.96385  0.32519  Biso   1.000  H
  H233     1.0000 0.29016  0.14193  0.20161  Biso   1.000  H
  C169     1.0000 0.31923  0.08411  0.17110  Biso   1.000  C
  H234     1.0000 0.19959  0.11509  0.14048  Biso   1.000  H
  C170     1.0000 0.14566  0.08244  0.08011  Biso   1.000  C
  C171     1.0000 0.15865  0.12395  0.31482  Biso   1.000  C
  H235     1.0000 0.21073  0.09830  0.32433  Biso   1.000  H
  C172     1.0000 0.25075  0.97557  0.28653  Biso   1.000  C
  H236     1.0000 0.24745  0.88274  0.30146  Biso   1.000  H
  O21      1.0000 0.34292  0.08185  0.14752  Biso   1.000  O
  C173     1.0000 0.30747  0.02300  0.19478  Biso   1.000  C
  O22      1.0000 0.12294  0.05900  0.02358  Biso   1.000  O
  C174     1.0000 0.13000  0.09135  0.13006  Biso   1.000  C
  C175     1.0000 0.13607  0.11174  0.23997  Biso   1.000  C
  O23      1.0000 0.14062  0.14533  0.34447  Biso   1.000  O
  C176     1.0000 0.27481  0.96710  0.24969  Biso   1.000  C
  O24      1.0000 0.24172  0.03186  0.29559  Biso   1.000  O
  C177     1.0000 0.28479  0.02526  0.22844  Biso   1.000  C
  C178     1.0000 0.31967  0.96238  0.18152  Biso   1.000  C
  C179     1.0000 0.15435  0.10465  0.19893  Biso   1.000  C
  C180     1.0000 0.08830  0.08500  0.10369  Biso   1.000  C
  C181     1.0000 0.09387  0.10765  0.21138  Biso   1.000  C
  C182     1.0000 0.28685  0.90678  0.23562  Biso   1.000  C
  H237     1.0000 0.27608  0.06638  0.23694  Biso   1.000  H
  H238     1.0000 0.33544  0.96134  0.15885  Biso   1.000  H
  C183     1.0000 0.30933  0.90343  0.20070  Biso   1.000  C
  H239     1.0000 0.18288  0.10883  0.21756  Biso   1.000  H
  H240     1.0000 0.07232  0.07392  0.05729  Biso   1.000  H
  C184     1.0000 0.06910  0.09441  0.14306  Biso   1.000  C
  H241     1.0000 0.08174  0.11410  0.23952  Biso   1.000  H
  H242     1.0000 0.27972  0.86723  0.24989  Biso   1.000  H
  C185     1.0000 0.32081  0.83650  0.18431  Biso   1.000  C
  C186     1.0000 0.02301  0.08707  0.11159  Biso   1.000  C
  C187     1.0000 0.28251  0.80060  0.13340  Biso   1.000  C
  C188     1.0000 0.34932  0.84221  0.15404  Biso   1.000  C
  C189     1.0000 0.34164  0.79504  0.24898  Biso   1.000  C
  C190     1.0000 0.00199  0.12095  0.04170  Biso   1.000  C
  C191     1.0000 0.00656  0.11957  0.15410  Biso   1.000  C
  C192     1.0000 0.01243  0.01433  0.10182  Biso   1.000  C
  H243     1.0000 0.26873  0.82680  0.09190  Biso   1.000  H
  H244     1.0000 0.26435  0.79444  0.15288  Biso   1.000  H
  H245     1.0000 0.28987  0.75761  0.12277  Biso   1.000  H
  H246     1.0000 0.35747  0.79809  0.14757  Biso   1.000  H
  H247     1.0000 0.37344  0.86738  0.18486  Biso   1.000  H
  H248     1.0000 0.33541  0.86487  0.11032  Biso   1.000  H
  H249     1.0000 0.32230  0.78553  0.26543  Biso   1.000  H
  H250     1.0000 0.36476  0.81941  0.28370  Biso   1.000  H
  H251     1.0000 0.35117  0.75357  0.23916  Biso   1.000  H
  H252     1.0000 0.01035  0.09943  0.01139  Biso   1.000  H
  H253     1.0000 0.00976  0.16749  0.04671  Biso   1.000  H
  H254     1.0000 0.97250  0.11740  0.02262  Biso   1.000  H
  H255     1.0000 0.01499  0.16586  0.16174  Biso   1.000  H
  H256     1.0000 0.01718  0.09687  0.19767  Biso   1.000  H
  H257     1.0000 0.97687  0.11706  0.13031  Biso   1.000  H
  H258     1.0000 0.98289  0.00911  0.07915  Biso   1.000  H
  H259     1.0000 0.02322  0.99448  0.07404  Biso   1.000  H
  H260     1.0000 0.02441  0.99247  0.14605  Biso   1.000  H
  O25      1.0000 0.64061  0.64533  0.34447  Biso   1.000  O
  C193     1.0000 0.65863  0.62395  0.31482  Biso   1.000  C
  C194     1.0000 0.63609  0.61174  0.23997  Biso   1.000  C
  N33      1.0000 0.69842  0.60962  0.34761  Biso   1.000  N
  C195     1.0000 0.59386  0.60760  0.21138  Biso   1.000  C
  C196     1.0000 0.65433  0.60465  0.19893  Biso   1.000  C
  H261     1.0000 0.71075  0.59825  0.32433  Biso   1.000  H
  C197     1.0000 0.72144  0.61263  0.42129  Biso   1.000  C
  C198     1.0000 0.56911  0.59441  0.14306  Biso   1.000  C
  H262     1.0000 0.58176  0.61410  0.23952  Biso   1.000  H
  C199     1.0000 0.62998  0.59130  0.13006  Biso   1.000  C
  H263     1.0000 0.68289  0.60883  0.21756  Biso   1.000  H
  C200     1.0000 0.72630  0.54412  0.45186  Biso   1.000  C
  H264     1.0000 0.70720  0.64153  0.43855  Biso   1.000  H
  H265     1.0000 0.74851  0.63178  0.43511  Biso   1.000  H
  C201     1.0000 0.52299  0.58707  0.11159  Biso   1.000  C
  C202     1.0000 0.58832  0.58500  0.10369  Biso   1.000  C
  C203     1.0000 0.64565  0.58244  0.08011  Biso   1.000  C
  N34      1.0000 0.75521  0.50424  0.44083  Biso   1.000  N
  H266     1.0000 0.73589  0.54806  0.50105  Biso   1.000  H
  H267     1.0000 0.69962  0.52172  0.43116  Biso   1.000  H
  C204     1.0000 0.51244  0.51433  0.10182  Biso   1.000  C
  C205     1.0000 0.50197  0.62095  0.04170  Biso   1.000  C
  C206     1.0000 0.50655  0.61957  0.15410  Biso   1.000  C
  H268     1.0000 0.57231  0.57392  0.05729  Biso   1.000  H
  O26      1.0000 0.62293  0.55900  0.02358  Biso   1.000  O
  N35      1.0000 0.68404  0.60061  0.09914  Biso   1.000  N
  C207     1.0000 0.74217  0.43672  0.42064  Biso   1.000  C
  C208     1.0000 0.79660  0.50842  0.49685  Biso   1.000  C
  H269     1.0000 0.52321  0.49448  0.07404  Biso   1.000  H
  H270     1.0000 0.48291  0.50911  0.07915  Biso   1.000  H
  H271     1.0000 0.52439  0.49247  0.14605  Biso   1.000  H
  H272     1.0000 0.51034  0.59943  0.01139  Biso   1.000  H
  H273     1.0000 0.50977  0.66749  0.04671  Biso   1.000  H
  H274     1.0000 0.47251  0.61740  0.02262  Biso   1.000  H
  H275     1.0000 0.47688  0.61706  0.13031  Biso   1.000  H
  H276     1.0000 0.51497  0.66586  0.16174  Biso   1.000  H
  H277     1.0000 0.51717  0.59687  0.19767  Biso   1.000  H
  H278     1.0000 0.69961  0.61509  0.14048  Biso   1.000  H
  C209     1.0000 0.69999  0.59652  0.05167  Biso   1.000  C
  C210     1.0000 0.71647  0.42662  0.34427  Biso   1.000  C
  H279     1.0000 0.72631  0.42209  0.44290  Biso   1.000  H
  H280     1.0000 0.76648  0.40830  0.43734  Biso   1.000  H
  C211     1.0000 0.82734  0.50808  0.47114  Biso   1.000  C
  H281     1.0000 0.80186  0.47060  0.52777  Biso   1.000  H
  H282     1.0000 0.79967  0.54935  0.52276  Biso   1.000  H
  C212     1.0000 0.70074  0.66355  0.02191  Biso   1.000  C
  H283     1.0000 0.68303  0.56589  0.01457  Biso   1.000  H
  H284     1.0000 0.72787  0.57840  0.07525  Biso   1.000  H
  N36      1.0000 0.74006  0.42180  0.30860  Biso   1.000  N
  H285     1.0000 0.70034  0.38590  0.33612  Biso   1.000  H
  H286     1.0000 0.69728  0.46385  0.32519  Biso   1.000  H
  N37      1.0000 0.82127  0.56560  0.42863  Biso   1.000  N
  H287     1.0000 0.85515  0.50867  0.50996  Biso   1.000  H
  H288     1.0000 0.82415  0.46750  0.44473  Biso   1.000  H
  N38      1.0000 0.73228  0.70688  0.06994  Biso   1.000  N
  H289     1.0000 0.67406  0.68502  0.00602  Biso   1.000  H
  H290     1.0000 0.70504  0.65710  0.98219  Biso   1.000  H
  H291     1.0000 0.74747  0.38274  0.30146  Biso   1.000  H
  C213     1.0000 0.75077  0.47557  0.28653  Biso   1.000  C
  H292     1.0000 0.80546  0.56269  0.38461  Biso   1.000  H
  C214     1.0000 0.83959  0.62321  0.45601  Biso   1.000  C
  C215     1.0000 0.77161  0.70280  0.07201  Biso   1.000  C
  C216     1.0000 0.71906  0.77302  0.07490  Biso   1.000  C
  O27      1.0000 0.74171  0.53186  0.29559  Biso   1.000  O
  C217     1.0000 0.77480  0.46705  0.24969  Biso   1.000  C
  O28      1.0000 0.86703  0.62706  0.51507  Biso   1.000  O
  C218     1.0000 0.82587  0.68251  0.41072  Biso   1.000  C
  H293     1.0000 0.77523  0.74155  0.04873  Biso   1.000  H
  H294     1.0000 0.77249  0.66281  0.04762  Biso   1.000  H
  C219     1.0000 0.80597  0.70038  0.14443  Biso   1.000  C
  C220     1.0000 0.70539  0.78021  0.12834  Biso   1.000  C
  H295     1.0000 0.69635  0.78568  0.03036  Biso   1.000  H
  H296     1.0000 0.74167  0.80410  0.08557  Biso   1.000  H
  C221     1.0000 0.78480  0.52521  0.22844  Biso   1.000  C
  C222     1.0000 0.78684  0.40678  0.23562  Biso   1.000  C
  C223     1.0000 0.79580  0.67950  0.34316  Biso   1.000  C
  C224     1.0000 0.84482  0.74244  0.43789  Biso   1.000  C
  N39      1.0000 0.80285  0.64089  0.17732  Biso   1.000  N
  H297     1.0000 0.83233  0.70112  0.14453  Biso   1.000  H
  H298     1.0000 0.80458  0.73949  0.16953  Biso   1.000  H
  N40      1.0000 0.73969  0.78489  0.19655  Biso   1.000  N
  H299     1.0000 0.68842  0.82020  0.11867  Biso   1.000  H
  H300     1.0000 0.68853  0.74175  0.12591  Biso   1.000  H
  C225     1.0000 0.80749  0.52300  0.19478  Biso   1.000  C
  H301     1.0000 0.77609  0.56638  0.23694  Biso   1.000  H
  C226     1.0000 0.80932  0.40343  0.20070  Biso   1.000  C
  H302     1.0000 0.77970  0.36723  0.24989  Biso   1.000  H
  C227     1.0000 0.78566  0.73545  0.30283  Biso   1.000  C
  H303     1.0000 0.78224  0.63912  0.32469  Biso   1.000  H
  C228     1.0000 0.83511  0.79917  0.39878  Biso   1.000  C
  H304     1.0000 0.86482  0.74451  0.48420  Biso   1.000  H
  H305     1.0000 0.79018  0.64193  0.20161  Biso   1.000  H
  C229     1.0000 0.81924  0.58411  0.17110  Biso   1.000  C
  C230     1.0000 0.75164  0.72998  0.23076  Biso   1.000  C
  C231     1.0000 0.81968  0.46238  0.18152  Biso   1.000  C
  C232     1.0000 0.82083  0.33650  0.18431  Biso   1.000  C
  C233     1.0000 0.80570  0.79449  0.33071  Biso   1.000  C
  C234     1.0000 0.85382  0.86630  0.42808  Biso   1.000  C
  O29      1.0000 0.84290  0.58185  0.14752  Biso   1.000  O
  O30      1.0000 0.73784  0.67172  0.21153  Biso   1.000  O
  H306     1.0000 0.83545  0.46134  0.15885  Biso   1.000  H
  C235     1.0000 0.78249  0.30060  0.13340  Biso   1.000  C
  C236     1.0000 0.84933  0.34221  0.15404  Biso   1.000  C
  C237     1.0000 0.84165  0.29499  0.24898  Biso   1.000  C
  H307     1.0000 0.79922  0.83246  0.30278  Biso   1.000  H
  C238     1.0000 0.82068  0.91116  0.42630  Biso   1.000  C
  C239     1.0000 0.88693  0.86117  0.50206  Biso   1.000  C
  C240     1.0000 0.87222  0.89634  0.38709  Biso   1.000  C
  H308     1.0000 0.76875  0.32680  0.09190  Biso   1.000  H
  H309     1.0000 0.76434  0.29444  0.15288  Biso   1.000  H
  H310     1.0000 0.78988  0.25761  0.12277  Biso   1.000  H
  H311     1.0000 0.85745  0.29809  0.14757  Biso   1.000  H
  H312     1.0000 0.87345  0.36738  0.18486  Biso   1.000  H
  H313     1.0000 0.83539  0.36487  0.11032  Biso   1.000  H
  H314     1.0000 0.82228  0.28548  0.26543  Biso   1.000  H
  H315     1.0000 0.86477  0.31941  0.28370  Biso   1.000  H
  H316     1.0000 0.85116  0.25357  0.23916  Biso   1.000  H
  H317     1.0000 0.79993  0.91840  0.37924  Biso   1.000  H
  H318     1.0000 0.83258  0.95351  0.44736  Biso   1.000  H
  H319     1.0000 0.80827  0.89038  0.45125  Biso   1.000  H
  H320     1.0000 0.87506  0.84492  0.52969  Biso   1.000  H
  H321     1.0000 0.89890  0.90471  0.51836  Biso   1.000  H
  H322     1.0000 0.90804  0.83059  0.50550  Biso   1.000  H
  H323     1.0000 0.89251  0.86615  0.38683  Biso   1.000  H
  H324     1.0000 0.88521  0.93829  0.40748  Biso   1.000  H
  H325     1.0000 0.85085  0.90392  0.34058  Biso   1.000  H
  O31      1.0000 0.35945  0.35462  0.65555  Biso   1.000  O
  C241     1.0000 0.34139  0.37605  0.68520  Biso   1.000  C
  N41      1.0000 0.30163  0.39038  0.65241  Biso   1.000  N
  C242     1.0000 0.36397  0.38826  0.76005  Biso   1.000  C
  C243     1.0000 0.27863  0.38737  0.57878  Biso   1.000  C
  H326     1.0000 0.28931  0.40170  0.67569  Biso   1.000  H
  C244     1.0000 0.34569  0.39535  0.80109  Biso   1.000  C
  C245     1.0000 0.40617  0.39235  0.78864  Biso   1.000  C
  C246     1.0000 0.27376  0.45588  0.54816  Biso   1.000  C
  H327     1.0000 0.29286  0.35847  0.56147  Biso   1.000  H
  H328     1.0000 0.25155  0.36822  0.56491  Biso   1.000  H
  C247     1.0000 0.37007  0.40865  0.86997  Biso   1.000  C
  H329     1.0000 0.31716  0.39117  0.78247  Biso   1.000  H
  H330     1.0000 0.41830  0.38590  0.76051  Biso   1.000  H
  C248     1.0000 0.43096  0.40559  0.85701  Biso   1.000  C
  N42      1.0000 0.24482  0.49576  0.55920  Biso   1.000  N
  H331     1.0000 0.26416  0.45189  0.49897  Biso   1.000  H
  H332     1.0000 0.30044  0.47828  0.56886  Biso   1.000  H
  C249     1.0000 0.35440  0.41756  0.91992  Biso   1.000  C
  C250     1.0000 0.41174  0.41500  0.89633  Biso   1.000  C
  C251     1.0000 0.47703  0.41293  0.88844  Biso   1.000  C
  C252     1.0000 0.25788  0.56323  0.57939  Biso   1.000  C
  C253     1.0000 0.20342  0.49158  0.50318  Biso   1.000  C
  O32      1.0000 0.37713  0.44095  0.97644  Biso   1.000  O
  N43      1.0000 0.31601  0.39939  0.90089  Biso   1.000  N
  H333     1.0000 0.42776  0.42608  0.94279  Biso   1.000  H
  C254     1.0000 0.49805  0.37905  0.95833  Biso   1.000  C
  C255     1.0000 0.49348  0.38043  0.84593  Biso   1.000  C
  C256     1.0000 0.48761  0.48567  0.89821  Biso   1.000  C
  C257     1.0000 0.28356  0.57338  0.65575  Biso   1.000  C
  H334     1.0000 0.27373  0.57791  0.55717  Biso   1.000  H
  H335     1.0000 0.23355  0.59170  0.56269  Biso   1.000  H
  C258     1.0000 0.17271  0.49187  0.52888  Biso   1.000  C
  H336     1.0000 0.19821  0.52935  0.47231  Biso   1.000  H
  H337     1.0000 0.20035  0.45065  0.47726  Biso   1.000  H
  H338     1.0000 0.30044  0.38491  0.85954  Biso   1.000  H
  C259     1.0000 0.30004  0.40348  0.94836  Biso   1.000  C
  H339     1.0000 0.48973  0.40057  0.98869  Biso   1.000  H
  H340     1.0000 0.49028  0.33251  0.95332  Biso   1.000  H
  H341     1.0000 0.52756  0.38260  0.97745  Biso   1.000  H
  H342     1.0000 0.52317  0.38294  0.86971  Biso   1.000  H
  H343     1.0000 0.48505  0.33414  0.83829  Biso   1.000  H
  H344     1.0000 0.48289  0.40313  0.80236  Biso   1.000  H
  H345     1.0000 0.47684  0.50552  0.92599  Biso   1.000  H
  H346     1.0000 0.51715  0.49089  0.92088  Biso   1.000  H
  H347     1.0000 0.47568  0.50753  0.85403  Biso   1.000  H
  N44      1.0000 0.25996  0.57820  0.69143  Biso   1.000  N
  H348     1.0000 0.29971  0.61410  0.66390  Biso   1.000  H
  H349     1.0000 0.30277  0.53615  0.67483  Biso   1.000  H
  N45      1.0000 0.17876  0.43440  0.57139  Biso   1.000  N
  H350     1.0000 0.14489  0.49133  0.49012  Biso   1.000  H
  H351     1.0000 0.17587  0.53250  0.55530  Biso   1.000  H
  C260     1.0000 0.29929  0.33645  0.97811  Biso   1.000  C
  H352     1.0000 0.31702  0.43406  0.98545  Biso   1.000  H
  H353     1.0000 0.27218  0.42155  0.92477  Biso   1.000  H
  H354     1.0000 0.25260  0.61726  0.69862  Biso   1.000  H
  C261     1.0000 0.24929  0.52443  0.71349  Biso   1.000  C
  H355     1.0000 0.19459  0.43731  0.61542  Biso   1.000  H
  C262     1.0000 0.16044  0.37679  0.54401  Biso   1.000  C
  N46      1.0000 0.26777  0.29312  0.93009  Biso   1.000  N
  H356     1.0000 0.32600  0.31493  0.99400  Biso   1.000  H
  H357     1.0000 0.29498  0.34290  0.01784  Biso   1.000  H
  O33      1.0000 0.25832  0.46814  0.70444  Biso   1.000  O
  C263     1.0000 0.22523  0.53290  0.75033  Biso   1.000  C
  O34      1.0000 0.13304  0.37294  0.48501  Biso   1.000  O
  C264     1.0000 0.17419  0.31749  0.58931  Biso   1.000  C
  C265     1.0000 0.22844  0.29720  0.92801  Biso   1.000  C
  C266     1.0000 0.28099  0.22693  0.92513  Biso   1.000  C
  C267     1.0000 0.21525  0.47474  0.77159  Biso   1.000  C
  C268     1.0000 0.21319  0.59317  0.76440  Biso   1.000  C
  C269     1.0000 0.20423  0.32050  0.65687  Biso   1.000  C
  C270     1.0000 0.15523  0.25756  0.56213  Biso   1.000  C
  H358     1.0000 0.22482  0.25845  0.95129  Biso   1.000  H
  H359     1.0000 0.22754  0.33719  0.95240  Biso   1.000  H
  C271     1.0000 0.19410  0.29962  0.85565  Biso   1.000  C
  C272     1.0000 0.29467  0.21979  0.87169  Biso   1.000  C
  H360     1.0000 0.30370  0.21432  0.96966  Biso   1.000  H
  H361     1.0000 0.25839  0.19590  0.91445  Biso   1.000  H
  C273     1.0000 0.19257  0.47700  0.80524  Biso   1.000  C
  H362     1.0000 0.22396  0.43362  0.76309  Biso   1.000  H
  H363     1.0000 0.22032  0.63277  0.75013  Biso   1.000  H
  C274     1.0000 0.19073  0.59657  0.79932  Biso   1.000  C
  C275     1.0000 0.21439  0.26455  0.69720  Biso   1.000  C
  H364     1.0000 0.21781  0.36088  0.67534  Biso   1.000  H
  C276     1.0000 0.16496  0.20083  0.60130  Biso   1.000  C
  H365     1.0000 0.13523  0.25549  0.51583  Biso   1.000  H
  N47      1.0000 0.19720  0.35911  0.82270  Biso   1.000  N
  H366     1.0000 0.16770  0.29888  0.85549  Biso   1.000  H
  H367     1.0000 0.19545  0.26051  0.83049  Biso   1.000  H
  N48      1.0000 0.26035  0.21511  0.80352  Biso   1.000  N
  H368     1.0000 0.31162  0.17980  0.88140  Biso   1.000  H
  H369     1.0000 0.31154  0.25825  0.87417  Biso   1.000  H
  C277     1.0000 0.18037  0.53762  0.81850  Biso   1.000  C
  C278     1.0000 0.18081  0.41589  0.82893  Biso   1.000  C
  C279     1.0000 0.17923  0.66345  0.81572  Biso   1.000  C
  C280     1.0000 0.24842  0.26997  0.76926  Biso   1.000  C
  C281     1.0000 0.19433  0.20546  0.66931  Biso   1.000  C
  C282     1.0000 0.14620  0.13370  0.57195  Biso   1.000  C
  H370     1.0000 0.20989  0.35807  0.79846  Biso   1.000  H
  H371     1.0000 0.16460  0.53861  0.84117  Biso   1.000  H
  O35      1.0000 0.15715  0.41815  0.85251  Biso   1.000  O
  C283     1.0000 0.21753  0.69935  0.86663  Biso   1.000  C
  C284     1.0000 0.15072  0.65779  0.84598  Biso   1.000  C
  C285     1.0000 0.15840  0.70496  0.75104  Biso   1.000  C
  O36      1.0000 0.26221  0.32823  0.78849  Biso   1.000  O
  H372     1.0000 0.20083  0.16749  0.69725  Biso   1.000  H
  C286     1.0000 0.17935  0.08884  0.57372  Biso   1.000  C
  C287     1.0000 0.11312  0.13883  0.49796  Biso   1.000  C
  C288     1.0000 0.12781  0.10366  0.61294  Biso   1.000  C
  H373     1.0000 0.23131  0.67320  0.90812  Biso   1.000  H
  H374     1.0000 0.23571  0.70556  0.84714  Biso   1.000  H
  H375     1.0000 0.21017  0.74239  0.87725  Biso   1.000  H
  H376     1.0000 0.14257  0.70191  0.85246  Biso   1.000  H
  H377     1.0000 0.12661  0.63262  0.81521  Biso   1.000  H
  H378     1.0000 0.16463  0.63513  0.88970  Biso   1.000  H
  H379     1.0000 0.17779  0.71447  0.73465  Biso   1.000  H
  H380     1.0000 0.13528  0.68059  0.71633  Biso   1.000  H
  H381     1.0000 0.14887  0.74643  0.76086  Biso   1.000  H
  H382     1.0000 0.20010  0.08160  0.62078  Biso   1.000  H
  H383     1.0000 0.16746  0.04649  0.55272  Biso   1.000  H
  H384     1.0000 0.19175  0.10962  0.54877  Biso   1.000  H
  H385     1.0000 0.12497  0.15508  0.47033  Biso   1.000  H
  H386     1.0000 0.10116  0.09529  0.48172  Biso   1.000  H
  H387     1.0000 0.09202  0.16936  0.49457  Biso   1.000  H
  H388     1.0000 0.10754  0.13385  0.61319  Biso   1.000  H
  H389     1.0000 0.11485  0.06166  0.59255  Biso   1.000  H
  H390     1.0000 0.14921  0.09608  0.65950  Biso   1.000  H
  C289     1.0000 0.69406  0.20038  0.35561  Biso   1.000  C
  N49      1.0000 0.69717  0.14089  0.32266  Biso   1.000  N
  C290     1.0000 0.72842  0.20280  0.42803  Biso   1.000  C
  H391     1.0000 0.66768  0.20112  0.35551  Biso   1.000  H
  H392     1.0000 0.69546  0.23949  0.33051  Biso   1.000  H
  C291     1.0000 0.68079  0.08411  0.32894  Biso   1.000  C
  H393     1.0000 0.70986  0.14193  0.29842  Biso   1.000  H
  N50      1.0000 0.76775  0.20688  0.43010  Biso   1.000  N
  H394     1.0000 0.72479  0.24155  0.45125  Biso   1.000  H
  H395     1.0000 0.72755  0.16281  0.45242  Biso   1.000  H
  O37      1.0000 0.65713  0.08185  0.35252  Biso   1.000  O
  C292     1.0000 0.69253  0.02300  0.30520  Biso   1.000  C
  C293     1.0000 0.79928  0.16355  0.47807  Biso   1.000  C
  C294     1.0000 0.78096  0.27302  0.42509  Biso   1.000  C
  C295     1.0000 0.71523  0.02526  0.27160  Biso   1.000  C
  C296     1.0000 0.68034  0.96238  0.31846  Biso   1.000  C
  H396     1.0000 0.79502  0.15710  0.51785  Biso   1.000  H
  H397     1.0000 0.82598  0.18502  0.49402  Biso   1.000  H
  C297     1.0000 0.80003  0.09652  0.44832  Biso   1.000  C
  C298     1.0000 0.79463  0.28021  0.37165  Biso   1.000  C
  H398     1.0000 0.80368  0.28568  0.46967  Biso   1.000  H
  H399     1.0000 0.75837  0.30410  0.41446  Biso   1.000  H
  H400     1.0000 0.72393  0.06638  0.26305  Biso   1.000  H
  C299     1.0000 0.72522  0.96710  0.25030  Biso   1.000  C
  H401     1.0000 0.66458  0.96134  0.34119  Biso   1.000  H
  C300     1.0000 0.69070  0.90343  0.29928  Biso   1.000  C
  N51      1.0000 0.81599  0.10061  0.40090  Biso   1.000  N
  H402     1.0000 0.81699  0.06589  0.48541  Biso   1.000  H
  H403     1.0000 0.77216  0.07840  0.42479  Biso   1.000  H
  N52      1.0000 0.76035  0.28489  0.30348  Biso   1.000  N
  H404     1.0000 0.81161  0.32020  0.38137  Biso   1.000  H
  H405     1.0000 0.81150  0.24175  0.37413  Biso   1.000  H
  C301     1.0000 0.74927  0.97557  0.21351  Biso   1.000  C
  C302     1.0000 0.71317  0.90678  0.26442  Biso   1.000  C
  C303     1.0000 0.67921  0.83650  0.31573  Biso   1.000  C
  H406     1.0000 0.80041  0.11509  0.35950  Biso   1.000  H
  C304     1.0000 0.85439  0.08244  0.41993  Biso   1.000  C
  C305     1.0000 0.74838  0.23003  0.26922  Biso   1.000  C
  O38      1.0000 0.75833  0.03186  0.20445  Biso   1.000  O
  N53      1.0000 0.75996  0.92180  0.19139  Biso   1.000  N
  H407     1.0000 0.72030  0.86723  0.25015  Biso   1.000  H
  C306     1.0000 0.71751  0.80060  0.36664  Biso   1.000  C
  C307     1.0000 0.65069  0.84221  0.34594  Biso   1.000  C
  C308     1.0000 0.65838  0.79504  0.25106  Biso   1.000  C
  O39      1.0000 0.87709  0.05900  0.47640  Biso   1.000  O
  C309     1.0000 0.87005  0.09135  0.36998  Biso   1.000  C
  O40      1.0000 0.76220  0.17177  0.28850  Biso   1.000  O
  C310     1.0000 0.71437  0.23545  0.19721  Biso   1.000  C
  H408     1.0000 0.75257  0.88274  0.19858  Biso   1.000  H
  C311     1.0000 0.78352  0.92662  0.15571  Biso   1.000  C
  H409     1.0000 0.73129  0.82680  0.40814  Biso   1.000  H
  H410     1.0000 0.73569  0.79444  0.34716  Biso   1.000  H
  H411     1.0000 0.71014  0.75761  0.37722  Biso   1.000  H
  H412     1.0000 0.64256  0.79809  0.35247  Biso   1.000  H
  H413     1.0000 0.62658  0.86738  0.31517  Biso   1.000  H
  H414     1.0000 0.66460  0.86487  0.38967  Biso   1.000  H
  H415     1.0000 0.67775  0.78553  0.23461  Biso   1.000  H
  H416     1.0000 0.63527  0.81941  0.21634  Biso   1.000  H
  H417     1.0000 0.64883  0.75357  0.26082  Biso   1.000  H
  C312     1.0000 0.84566  0.10465  0.30105  Biso   1.000  C
  C313     1.0000 0.91172  0.08500  0.39635  Biso   1.000  C
  C314     1.0000 0.69432  0.29449  0.16928  Biso   1.000  C
  C315     1.0000 0.70421  0.17950  0.15688  Biso   1.000  C
  H418     1.0000 0.79969  0.88590  0.16391  Biso   1.000  H
  H419     1.0000 0.80275  0.96385  0.17484  Biso   1.000  H
  C316     1.0000 0.75785  0.93672  0.07935  Biso   1.000  C
  H420     1.0000 0.81713  0.10883  0.28243  Biso   1.000  H
  C317     1.0000 0.86395  0.11174  0.26006  Biso   1.000  C
  H421     1.0000 0.92773  0.07392  0.44275  Biso   1.000  H
  C318     1.0000 0.93092  0.09441  0.35697  Biso   1.000  C
  H422     1.0000 0.70080  0.33246  0.19721  Biso   1.000  H
  C319     1.0000 0.66492  0.29917  0.10126  Biso   1.000  C
  H423     1.0000 0.71779  0.13912  0.17535  Biso   1.000  H
  C320     1.0000 0.67417  0.18251  0.08932  Biso   1.000  C
  N54      1.0000 0.74479  0.00424  0.05916  Biso   1.000  N
  H424     1.0000 0.77373  0.92209  0.05713  Biso   1.000  H
  H425     1.0000 0.73354  0.90830  0.06265  Biso   1.000  H
  C321     1.0000 0.84137  0.12395  0.18522  Biso   1.000  C
  C322     1.0000 0.90618  0.10765  0.28866  Biso   1.000  C
  C323     1.0000 0.97700  0.08707  0.38840  Biso   1.000  C
  C324     1.0000 0.64620  0.36630  0.07191  Biso   1.000  C
  C325     1.0000 0.65520  0.24244  0.06209  Biso   1.000  C
  C326     1.0000 0.66042  0.12321  0.04403  Biso   1.000  C
  C327     1.0000 0.77374  0.04412  0.04818  Biso   1.000  C
  C328     1.0000 0.70342  0.00842  0.00314  Biso   1.000  C
  N55      1.0000 0.80161  0.10962  0.15243  Biso   1.000  N
  O41      1.0000 0.85941  0.14533  0.15551  Biso   1.000  O
  H426     1.0000 0.91826  0.11410  0.26047  Biso   1.000  H
  C329     1.0000 0.99803  0.12095  0.45834  Biso   1.000  C
  C330     1.0000 0.99346  0.11957  0.34594  Biso   1.000  C
  C331     1.0000 0.98758  0.01433  0.39817  Biso   1.000  C
  C332     1.0000 0.67934  0.41116  0.07368  Biso   1.000  C
  C333     1.0000 0.62780  0.39634  0.11290  Biso   1.000  C
  C334     1.0000 0.61316  0.36117  0.99798  Biso   1.000  C
  H427     1.0000 0.63520  0.24451  0.01579  Biso   1.000  H
  N56      1.0000 0.67877  0.06560  0.07141  Biso   1.000  N
  O42      1.0000 0.63306  0.12706  0.98497  Biso   1.000  O
  H428     1.0000 0.80042  0.02172  0.06887  Biso   1.000  H
  C335     1.0000 0.77860  0.11263  0.07874  Biso   1.000  C
  H429     1.0000 0.76420  0.04811  0.99899  Biso   1.000  H
  C336     1.0000 0.67269  0.00808  0.02890  Biso   1.000  C
  H430     1.0000 0.69823  0.97060  0.97227  Biso   1.000  H
  H431     1.0000 0.70041  0.04935  0.97728  Biso   1.000  H
  H432     1.0000 0.78927  0.09830  0.17565  Biso   1.000  H
  H433     1.0000 0.98970  0.09943  0.48865  Biso   1.000  H
  H434     1.0000 0.99025  0.16749  0.45328  Biso   1.000  H
  H435     1.0000 0.02752  0.11740  0.47742  Biso   1.000  H
  H436     1.0000 0.98503  0.16586  0.33830  Biso   1.000  H
  H437     1.0000 0.98285  0.09687  0.30232  Biso   1.000  H
  H438     1.0000 0.02315  0.11706  0.36973  Biso   1.000  H
  H439     1.0000 0.97683  0.99448  0.42600  Biso   1.000  H
  H440     1.0000 0.97564  0.99247  0.35399  Biso   1.000  H
  H441     1.0000 0.01711  0.00911  0.42084  Biso   1.000  H
  H442     1.0000 0.70007  0.41840  0.12075  Biso   1.000  H
  H443     1.0000 0.66743  0.45351  0.05268  Biso   1.000  H
  H444     1.0000 0.69174  0.39038  0.04878  Biso   1.000  H
  H445     1.0000 0.60752  0.36615  0.11321  Biso   1.000  H
  H446     1.0000 0.61481  0.43834  0.09251  Biso   1.000  H
  H447     1.0000 0.64918  0.40392  0.15946  Biso   1.000  H
  H448     1.0000 0.62503  0.34492  0.97034  Biso   1.000  H
  H449     1.0000 0.60118  0.40471  0.98168  Biso   1.000  H
  H450     1.0000 0.59204  0.33064  0.99453  Biso   1.000  H
  H451     1.0000 0.69457  0.06269  0.11543  Biso   1.000  H
  H452     1.0000 0.79284  0.14153  0.06149  Biso   1.000  H
  H453     1.0000 0.75153  0.13178  0.06493  Biso   1.000  H
  H454     1.0000 0.67585  0.96750  0.05531  Biso   1.000  H
  H455     1.0000 0.64491  0.00867  0.99008  Biso   1.000  H
  C337     1.0000 0.30599  0.79962  0.64442  Biso   1.000  C
  C338     1.0000 0.27164  0.79720  0.57205  Biso   1.000  C
  N57      1.0000 0.30288  0.85911  0.67736  Biso   1.000  N
  H456     1.0000 0.33235  0.79883  0.64452  Biso   1.000  H
  H457     1.0000 0.30460  0.76051  0.66952  Biso   1.000  H
  N58      1.0000 0.23230  0.79312  0.56992  Biso   1.000  N
  H458     1.0000 0.27526  0.75845  0.54877  Biso   1.000  H
  H459     1.0000 0.27252  0.83719  0.54766  Biso   1.000  H
  H460     1.0000 0.29020  0.85802  0.70160  Biso   1.000  H
  C339     1.0000 0.31926  0.91589  0.67109  Biso   1.000  C
  C340     1.0000 0.21910  0.72693  0.57493  Biso   1.000  C
  C341     1.0000 0.20077  0.83645  0.52195  Biso   1.000  C
  O43      1.0000 0.34294  0.91815  0.64755  Biso   1.000  O
  C342     1.0000 0.30752  0.97700  0.69482  Biso   1.000  C
  C343     1.0000 0.20542  0.71979  0.62837  Biso   1.000  C
  H461     1.0000 0.19637  0.71432  0.53035  Biso   1.000  H
  H462     1.0000 0.24169  0.69590  0.58556  Biso   1.000  H
  H463     1.0000 0.20501  0.84290  0.48217  Biso   1.000  H
  H464     1.0000 0.17408  0.81493  0.50601  Biso   1.000  H
  C344     1.0000 0.20002  0.90348  0.55171  Biso   1.000  C
  C345     1.0000 0.28482  0.97474  0.72842  Biso   1.000  C
  C346     1.0000 0.31971  0.03762  0.68156  Biso   1.000  C
  N59      1.0000 0.23971  0.71506  0.69654  Biso   1.000  N
  H465     1.0000 0.18844  0.67980  0.61866  Biso   1.000  H
  H466     1.0000 0.18855  0.75820  0.62589  Biso   1.000  H
  N60      1.0000 0.18406  0.89939  0.59912  Biso   1.000  N
  H467     1.0000 0.18304  0.93406  0.51461  Biso   1.000  H
  H468     1.0000 0.22790  0.92155  0.57529  Biso   1.000  H
  H469     1.0000 0.27612  0.93362  0.73697  Biso   1.000  H
  C347     1.0000 0.27483  0.03290  0.74973  Biso   1.000  C
  H470     1.0000 0.33547  0.03861  0.65884  Biso   1.000  H
  C348     1.0000 0.30935  0.09657  0.70074  Biso   1.000  C
  C349     1.0000 0.25167  0.76997  0.73080  Biso   1.000  C
  H471     1.0000 0.19964  0.88486  0.64052  Biso   1.000  H
  C350     1.0000 0.14568  0.91756  0.58015  Biso   1.000  C
  C351     1.0000 0.25076  0.02438  0.78652  Biso   1.000  C
  C352     1.0000 0.28687  0.09317  0.73566  Biso   1.000  C
  C353     1.0000 0.32085  0.16345  0.68429  Biso   1.000  C
  O44      1.0000 0.23786  0.82823  0.71152  Biso   1.000  O
  C354     1.0000 0.28568  0.76455  0.80281  Biso   1.000  C
  O45      1.0000 0.12296  0.94095  0.52362  Biso   1.000  O
  C355     1.0000 0.13002  0.90865  0.63010  Biso   1.000  C
  O46      1.0000 0.24173  0.96814  0.79558  Biso   1.000  O
  N61      1.0000 0.24010  0.07820  0.80863  Biso   1.000  N
  H472     1.0000 0.27972  0.13277  0.74988  Biso   1.000  H
  C356     1.0000 0.28253  0.19935  0.63344  Biso   1.000  C
  C357     1.0000 0.34936  0.15779  0.65408  Biso   1.000  C
  C358     1.0000 0.34166  0.20496  0.74902  Biso   1.000  C
  C359     1.0000 0.30573  0.70546  0.83075  Biso   1.000  C
  C360     1.0000 0.29582  0.82050  0.84315  Biso   1.000  C
  C361     1.0000 0.15437  0.89535  0.69897  Biso   1.000  C
  C362     1.0000 0.08835  0.91500  0.60373  Biso   1.000  C
  H473     1.0000 0.24746  0.11726  0.80145  Biso   1.000  H
  C363     1.0000 0.21650  0.07333  0.84431  Biso   1.000  C
  H474     1.0000 0.26877  0.17320  0.59189  Biso   1.000  H
  H475     1.0000 0.26436  0.20556  0.65287  Biso   1.000  H
  H476     1.0000 0.28991  0.24239  0.62281  Biso   1.000  H
  H477     1.0000 0.35749  0.20191  0.64760  Biso   1.000  H
  H478     1.0000 0.37347  0.13262  0.68485  Biso   1.000  H
  H479     1.0000 0.33543  0.13513  0.61036  Biso   1.000  H
  H480     1.0000 0.32230  0.21447  0.76542  Biso   1.000  H
  H481     1.0000 0.36479  0.18059  0.78368  Biso   1.000  H
  H482     1.0000 0.35119  0.24643  0.73920  Biso   1.000  H
  H483     1.0000 0.29926  0.66749  0.80281  Biso   1.000  H
  C364     1.0000 0.33513  0.70083  0.89876  Biso   1.000  C
  H484     1.0000 0.28228  0.86088  0.82473  Biso   1.000  H
  C365     1.0000 0.32586  0.81749  0.91071  Biso   1.000  C
  H485     1.0000 0.18293  0.89117  0.71759  Biso   1.000  H
  C366     1.0000 0.13611  0.88826  0.73996  Biso   1.000  C
  H486     1.0000 0.07233  0.92608  0.55727  Biso   1.000  H
  C367     1.0000 0.06913  0.90559  0.64305  Biso   1.000  C
  H487     1.0000 0.20036  0.11410  0.83611  Biso   1.000  H
  H488     1.0000 0.19729  0.03610  0.82523  Biso   1.000  H
  C368     1.0000 0.24220  0.06323  0.92067  Biso   1.000  C
  C369     1.0000 0.35386  0.63370  0.92811  Biso   1.000  C
  C370     1.0000 0.34485  0.75751  0.93793  Biso   1.000  C
  C371     1.0000 0.33961  0.87679  0.95600  Biso   1.000  C
  C372     1.0000 0.15867  0.87600  0.81486  Biso   1.000  C
  C373     1.0000 0.09388  0.89235  0.71137  Biso   1.000  C
  C374     1.0000 0.02303  0.91293  0.61162  Biso   1.000  C
  N62      1.0000 0.25524  0.99576  0.94087  Biso   1.000  N
  H489     1.0000 0.22633  0.07786  0.94289  Biso   1.000  H
  H490     1.0000 0.26651  0.09170  0.93737  Biso   1.000  H
  C375     1.0000 0.32071  0.58884  0.92634  Biso   1.000  C
  C376     1.0000 0.37225  0.60366  0.88712  Biso   1.000  C
  C377     1.0000 0.38690  0.63883  0.00205  Biso   1.000  C
  H491     1.0000 0.36485  0.75549  0.98424  Biso   1.000  H
  N63      1.0000 0.32128  0.93440  0.92862  Biso   1.000  N
  O47      1.0000 0.36699  0.87294  0.01505  Biso   1.000  O
  O48      1.0000 0.14064  0.85462  0.84451  Biso   1.000  O
  N64      1.0000 0.19846  0.89038  0.84765  Biso   1.000  N
  H492     1.0000 0.08176  0.88590  0.73956  Biso   1.000  H
  C378     1.0000 0.00199  0.87905  0.54169  Biso   1.000  C
  C379     1.0000 0.00657  0.88038  0.65408  Biso   1.000  C
  C380     1.0000 0.01248  0.98567  0.60186  Biso   1.000  C
  C381     1.0000 0.29664  0.99158  0.99689  Biso   1.000  C
  C382     1.0000 0.22629  0.95588  0.95185  Biso   1.000  C
  H493     1.0000 0.29996  0.58160  0.87928  Biso   1.000  H
  H494     1.0000 0.33260  0.54649  0.94734  Biso   1.000  H
  H495     1.0000 0.30829  0.60957  0.95124  Biso   1.000  H
  H496     1.0000 0.39253  0.63385  0.88682  Biso   1.000  H
  H497     1.0000 0.38524  0.56166  0.90752  Biso   1.000  H
  H498     1.0000 0.35085  0.59608  0.84057  Biso   1.000  H
  H499     1.0000 0.37502  0.65508  0.02968  Biso   1.000  H
  H500     1.0000 0.39887  0.59529  0.01834  Biso   1.000  H
  H501     1.0000 0.40798  0.66936  0.00549  Biso   1.000  H
  H502     1.0000 0.30549  0.93731  0.88464  Biso   1.000  H
  C383     1.0000 0.32736  0.99187  0.97113  Biso   1.000  C
  H503     1.0000 0.21078  0.90170  0.82437  Biso   1.000  H
  C384     1.0000 0.22145  0.88737  0.92128  Biso   1.000  C
  H504     1.0000 0.01036  0.90057  0.51137  Biso   1.000  H
  H505     1.0000 0.00978  0.83251  0.54675  Biso   1.000  H
  H506     1.0000 0.97253  0.88260  0.52261  Biso   1.000  H
  H507     1.0000 0.01501  0.83414  0.66177  Biso   1.000  H
  H508     1.0000 0.01720  0.90313  0.69770  Biso   1.000  H
  H509     1.0000 0.97690  0.88294  0.63030  Biso   1.000  H
  H510     1.0000 0.98294  0.99089  0.57919  Biso   1.000  H
  H511     1.0000 0.02324  0.00552  0.57407  Biso   1.000  H
  H512     1.0000 0.02441  0.00753  0.64604  Biso   1.000  H
  H513     1.0000 0.29966  0.95061  0.02280  Biso   1.000  H
  H514     1.0000 0.30182  0.02935  0.02776  Biso   1.000  H
  H515     1.0000 0.19964  0.97828  0.93115  Biso   1.000  H
  H516     1.0000 0.23587  0.95189  0.00109  Biso   1.000  H
  H517     1.0000 0.35512  0.99133  0.00994  Biso   1.000  H
  H518     1.0000 0.32419  0.03250  0.94476  Biso   1.000  H
  H519     1.0000 0.20723  0.85847  0.93859  Biso   1.000  H
  H520     1.0000 0.24853  0.86817  0.93510  Biso   1.000  H
