data_image0
_cell_length_a       18.925
_cell_length_b       18.925
_cell_length_c       16.974
_cell_angle_alpha    90
_cell_angle_beta     90
_cell_angle_gamma    90

_symmetry_space_group_name_H-M    "P 1"
_symmetry_int_tables_number       1

loop_
  _symmetry_equiv_pos_as_xyz
  'x, y, z'

loop_
  _atom_site_label
  _atom_site_occupancy
  _atom_site_fract_x
  _atom_site_fract_y
  _atom_site_fract_z
  _atom_site_thermal_displace_type
  _atom_site_B_iso_or_equiv
  _atom_site_type_symbol
  C1       1.0000 0.31313  0.73601  0.56009  Biso   1.000  C
  C2       1.0000 0.37347  0.72919  0.51261  Biso   1.000  C
  C3       1.0000 0.27440  0.79789  0.56268  Biso   1.000  C
  H1       1.0000 0.29802  0.69701  0.59202  Biso   1.000  H
  C4       1.0000 0.41247  0.66071  0.51308  Biso   1.000  C
  C5       1.0000 0.39308  0.78721  0.46624  Biso   1.000  C
  C6       1.0000 0.29543  0.85548  0.51879  Biso   1.000  C
  H2       1.0000 0.23102  0.80000  0.59403  Biso   1.000  H
  C7       1.0000 0.37295  0.59826  0.50094  Biso   1.000  C
  C8       1.0000 0.48523  0.66188  0.52716  Biso   1.000  C
  O1       1.0000 0.44724  0.77749  0.41316  Biso   1.000  O
  C9       1.0000 0.35429  0.85036  0.47031  Biso   1.000  C
  H3       1.0000 0.27102  0.89902  0.52398  Biso   1.000  H
  N1       1.0000 0.39794  0.53104  0.51390  Biso   1.000  N
  C10      1.0000 0.29997  0.59646  0.47590  Biso   1.000  C
  N2       1.0000 0.52993  0.60555  0.51950  Biso   1.000  N
  C11      1.0000 0.52750  0.72137  0.54719  Biso   1.000  C
  C12      1.0000 0.48740  0.83831  0.39136  Biso   1.000  C
  H4       1.0000 0.36898  0.88999  0.44003  Biso   1.000  H
  C13      1.0000 0.34304  0.48771  0.50053  Biso   1.000  C
  H5       1.0000 0.44502  0.51799  0.52899  Biso   1.000  H
  C14      1.0000 0.27995  0.52808  0.47590  Biso   1.000  C
  H6       1.0000 0.27102  0.63598  0.46300  Biso   1.000  H
  C15      1.0000 0.59868  0.62663  0.52710  Biso   1.000  C
  H7       1.0000 0.51498  0.55799  0.51202  Biso   1.000  H
  C16      1.0000 0.59646  0.70050  0.54731  Biso   1.000  C
  H8       1.0000 0.51102  0.76798  0.55897  Biso   1.000  H
  C17      1.0000 0.54029  0.81823  0.32891  Biso   1.000  C
  H9       1.0000 0.51001  0.85701  0.43602  Biso   1.000  H
  H10      1.0000 0.45501  0.87303  0.37098  Biso   1.000  H
  C18      1.0000 0.34124  0.41379  0.51172  Biso   1.000  C
  H11      1.0000 0.23498  0.51001  0.46300  Biso   1.000  H
  C19      1.0000 0.65876  0.58621  0.51172  Biso   1.000  C
  H12      1.0000 0.63598  0.72999  0.55897  Biso   1.000  H
  C20      1.0000 0.57976  0.74774  0.33905  Biso   1.000  C
  O2       1.0000 0.50494  0.80967  0.25480  Biso   1.000  O
  H13      1.0000 0.57400  0.85501  0.32402  Biso   1.000  H
  C21      1.0000 0.27355  0.37464  0.50253  Biso   1.000  C
  C22      1.0000 0.40132  0.37337  0.52710  Biso   1.000  C
  C23      1.0000 0.65696  0.51229  0.50053  Biso   1.000  C
  C24      1.0000 0.72645  0.62536  0.50253  Biso   1.000  C
  C25      1.0000 0.65268  0.75715  0.37381  Biso   1.000  C
  O3       1.0000 0.58256  0.71915  0.26028  Biso   1.000  O
  H14      1.0000 0.55303  0.71699  0.37198  Biso   1.000  H
  C26      1.0000 0.55403  0.77094  0.20926  Biso   1.000  C
  C27      1.0000 0.26922  0.31836  0.44886  Biso   1.000  C
  C28      1.0000 0.21258  0.39186  0.54536  Biso   1.000  C
  C29      1.0000 0.40354  0.29950  0.54731  Biso   1.000  C
  N3       1.0000 0.47007  0.39445  0.51950  Biso   1.000  N
  N4       1.0000 0.60206  0.46896  0.51390  Biso   1.000  N
  C30      1.0000 0.72005  0.47192  0.47590  Biso   1.000  C
  C31      1.0000 0.73078  0.68164  0.44886  Biso   1.000  C
  C32      1.0000 0.78742  0.60814  0.54536  Biso   1.000  C
  O4       1.0000 0.67456  0.68798  0.39826  Biso   1.000  O
  H15      1.0000 0.68402  0.77701  0.33598  Biso   1.000  H
  H16      1.0000 0.64999  0.78901  0.41899  Biso   1.000  H
  C33      1.0000 0.51868  0.73918  0.13839  Biso   1.000  C
  H17      1.0000 0.59102  0.80201  0.19200  Biso   1.000  H
  O5       1.0000 0.32544  0.31202  0.39826  Biso   1.000  O
  C34      1.0000 0.20972  0.27678  0.44333  Biso   1.000  C
  C35      1.0000 0.15128  0.35276  0.53723  Biso   1.000  C
  H18      1.0000 0.21400  0.43202  0.58101  Biso   1.000  H
  C36      1.0000 0.47250  0.27863  0.54719  Biso   1.000  C
  H19      1.0000 0.36402  0.27001  0.55897  Biso   1.000  H
  C37      1.0000 0.51477  0.33812  0.52716  Biso   1.000  C
  H20      1.0000 0.48502  0.44201  0.51202  Biso   1.000  H
  C38      1.0000 0.62705  0.40174  0.50094  Biso   1.000  C
  H21      1.0000 0.55498  0.48201  0.52899  Biso   1.000  H
  C39      1.0000 0.70003  0.40354  0.47590  Biso   1.000  C
  H22      1.0000 0.76502  0.48999  0.46300  Biso   1.000  H
  C40      1.0000 0.79028  0.72322  0.44333  Biso   1.000  C
  C41      1.0000 0.84872  0.64724  0.53723  Biso   1.000  C
  H23      1.0000 0.78600  0.56798  0.58101  Biso   1.000  H
  C42      1.0000 0.52967  0.66917  0.11977  Biso   1.000  C
  C43      1.0000 0.47799  0.78129  0.08943  Biso   1.000  C
  C44      1.0000 0.34732  0.24285  0.37381  Biso   1.000  C
  C45      1.0000 0.15007  0.29474  0.48769  Biso   1.000  C
  H24      1.0000 0.20898  0.23699  0.40998  Biso   1.000  H
  H25      1.0000 0.10901  0.36602  0.56598  Biso   1.000  H
  H26      1.0000 0.48898  0.23202  0.55897  Biso   1.000  H
  C46      1.0000 0.58753  0.33929  0.51308  Biso   1.000  C
  H27      1.0000 0.72898  0.36402  0.46300  Biso   1.000  H
  C47      1.0000 0.84993  0.70526  0.48769  Biso   1.000  C
  H28      1.0000 0.79102  0.76301  0.40998  Biso   1.000  H
  H29      1.0000 0.89099  0.63398  0.56598  Biso   1.000  H
  C48      1.0000 0.50013  0.63995  0.05137  Biso   1.000  C
  H30      1.0000 0.55900  0.64000  0.15400  Biso   1.000  H
  C49      1.0000 0.44782  0.75281  0.02262  Biso   1.000  C
  H31      1.0000 0.47102  0.83001  0.10198  Biso   1.000  H
  C50      1.0000 0.42024  0.25226  0.33905  Biso   1.000  C
  H32      1.0000 0.31598  0.22299  0.33598  Biso   1.000  H
  H33      1.0000 0.35001  0.21099  0.41899  Biso   1.000  H
  H34      1.0000 0.10801  0.26600  0.48398  Biso   1.000  H
  C51      1.0000 0.62653  0.27081  0.51261  Biso   1.000  C
  H35      1.0000 0.89199  0.73400  0.48398  Biso   1.000  H
  O6       1.0000 0.51540  0.57062  0.03865  Biso   1.000  O
  C52      1.0000 0.45839  0.68211  0.00183  Biso   1.000  C
  H36      1.0000 0.41802  0.78098  0.98998  Biso   1.000  H
  C53      1.0000 0.45971  0.18177  0.32891  Biso   1.000  C
  O7       1.0000 0.41744  0.28085  0.26028  Biso   1.000  O
  H37      1.0000 0.44697  0.28301  0.37198  Biso   1.000  H
  C54      1.0000 0.60692  0.21279  0.46624  Biso   1.000  C
  C55      1.0000 0.68687  0.26399  0.56009  Biso   1.000  C
  C56      1.0000 0.48724  0.53770  0.97013  Biso   1.000  C
  H38      1.0000 0.43699  0.66299  0.95499  Biso   1.000  H
  C57      1.0000 0.51260  0.16169  0.39136  Biso   1.000  C
  O8       1.0000 0.49506  0.19033  0.25480  Biso   1.000  O
  H39      1.0000 0.42600  0.14499  0.32402  Biso   1.000  H
  C58      1.0000 0.44597  0.22906  0.20926  Biso   1.000  C
  O9       1.0000 0.55276  0.22251  0.41316  Biso   1.000  O
  C59      1.0000 0.64571  0.14964  0.47031  Biso   1.000  C
  C60      1.0000 0.72560  0.20211  0.56268  Biso   1.000  C
  H40      1.0000 0.70198  0.30299  0.59202  Biso   1.000  H
  C61      1.0000 0.51276  0.46230  0.97013  Biso   1.000  C
  H41      1.0000 0.43598  0.54003  0.97202  Biso   1.000  H
  H42      1.0000 0.50198  0.56301  0.92400  Biso   1.000  H
  H43      1.0000 0.48999  0.14299  0.43602  Biso   1.000  H
  H44      1.0000 0.54499  0.12697  0.37098  Biso   1.000  H
  C62      1.0000 0.48132  0.26082  0.13839  Biso   1.000  C
  H45      1.0000 0.40898  0.19799  0.19200  Biso   1.000  H
  C63      1.0000 0.70457  0.14452  0.51879  Biso   1.000  C
  H46      1.0000 0.63102  0.11001  0.44003  Biso   1.000  H
  H47      1.0000 0.76898  0.20000  0.59403  Biso   1.000  H
  O10      1.0000 0.48460  0.42938  0.03865  Biso   1.000  O
  H48      1.0000 0.56402  0.45997  0.97202  Biso   1.000  H
  H49      1.0000 0.49802  0.43699  0.92400  Biso   1.000  H
  C64      1.0000 0.47033  0.33083  0.11977  Biso   1.000  C
  C65      1.0000 0.52201  0.21871  0.08943  Biso   1.000  C
  H50      1.0000 0.72898  0.10098  0.52398  Biso   1.000  H
  C66      1.0000 0.49987  0.36005  0.05137  Biso   1.000  C
  H51      1.0000 0.44100  0.36000  0.15400  Biso   1.000  H
  C67      1.0000 0.55218  0.24719  0.02262  Biso   1.000  C
  H52      1.0000 0.52898  0.16999  0.10198  Biso   1.000  H
  C68      1.0000 0.54161  0.31789  0.00183  Biso   1.000  C
  H53      1.0000 0.58198  0.21902  0.98998  Biso   1.000  H
  H54      1.0000 0.56301  0.33701  0.95499  Biso   1.000  H
  C69      1.0000 0.40354  0.79995  0.72593  Biso   1.000  C
  C70      1.0000 0.40174  0.87297  0.75091  Biso   1.000  C
  C71      1.0000 0.47192  0.77992  0.72593  Biso   1.000  C
  H55      1.0000 0.36402  0.77099  0.71297  Biso   1.000  H
  C72      1.0000 0.33929  0.91244  0.76305  Biso   1.000  C
  N5       1.0000 0.46896  0.89791  0.76393  Biso   1.000  N
  C73      1.0000 0.51229  0.84301  0.75050  Biso   1.000  C
  H56      1.0000 0.48999  0.73501  0.71297  Biso   1.000  H
  C74      1.0000 0.27081  0.87345  0.76258  Biso   1.000  C
  C75      1.0000 0.33812  0.98526  0.77719  Biso   1.000  C
  H57      1.0000 0.48201  0.94499  0.77901  Biso   1.000  H
  C76      1.0000 0.58621  0.84122  0.76169  Biso   1.000  C
  C77      1.0000 0.21279  0.89305  0.71621  Biso   1.000  C
  C78      1.0000 0.26399  0.81310  0.81012  Biso   1.000  C
  N6       1.0000 0.39445  0.02996  0.76947  Biso   1.000  N
  C79      1.0000 0.27863  0.02753  0.79716  Biso   1.000  C
  C80      1.0000 0.62663  0.90129  0.77707  Biso   1.000  C
  C81      1.0000 0.62536  0.77358  0.75256  Biso   1.000  C
  O11      1.0000 0.22251  0.94721  0.66313  Biso   1.000  O
  C82      1.0000 0.14964  0.85432  0.72034  Biso   1.000  C
  C83      1.0000 0.20211  0.77437  0.81271  Biso   1.000  C
  H58      1.0000 0.30299  0.79799  0.84199  Biso   1.000  H
  C84      1.0000 0.37337  0.09871  0.77707  Biso   1.000  C
  H59      1.0000 0.44201  0.01501  0.76199  Biso   1.000  H
  C85      1.0000 0.29950  0.09643  0.79728  Biso   1.000  C
  H60      1.0000 0.23202  0.01099  0.80900  Biso   1.000  H
  N7       1.0000 0.60555  0.97004  0.76947  Biso   1.000  N
  C86      1.0000 0.70050  0.90357  0.79728  Biso   1.000  C
  C87      1.0000 0.68164  0.76919  0.69883  Biso   1.000  C
  C88      1.0000 0.60814  0.71260  0.79539  Biso   1.000  C
  C89      1.0000 0.16169  0.98742  0.64139  Biso   1.000  C
  C90      1.0000 0.14452  0.79540  0.76882  Biso   1.000  C
  H61      1.0000 0.11001  0.86901  0.69000  Biso   1.000  H
  H62      1.0000 0.20000  0.73099  0.84400  Biso   1.000  H
  C91      1.0000 0.41379  0.15878  0.76169  Biso   1.000  C
  H63      1.0000 0.27001  0.13601  0.80900  Biso   1.000  H
  C92      1.0000 0.66188  0.01474  0.77719  Biso   1.000  C
  H64      1.0000 0.55799  0.98499  0.76199  Biso   1.000  H
  C93      1.0000 0.72137  0.97247  0.79716  Biso   1.000  C
  H65      1.0000 0.72999  0.86399  0.80900  Biso   1.000  H
  O12      1.0000 0.68798  0.82547  0.64823  Biso   1.000  O
  C94      1.0000 0.72322  0.70970  0.69330  Biso   1.000  C
  C95      1.0000 0.64724  0.65131  0.78720  Biso   1.000  C
  H66      1.0000 0.56798  0.71398  0.83098  Biso   1.000  H
  C96      1.0000 0.18177  0.04032  0.57889  Biso   1.000  C
  H67      1.0000 0.12697  0.95498  0.62101  Biso   1.000  H
  H68      1.0000 0.14299  0.00999  0.68599  Biso   1.000  H
  H69      1.0000 0.10098  0.77099  0.77401  Biso   1.000  H
  C97      1.0000 0.37464  0.22642  0.75256  Biso   1.000  C
  C98      1.0000 0.48771  0.15699  0.75050  Biso   1.000  C
  C99      1.0000 0.66071  0.08756  0.76305  Biso   1.000  C
  H70      1.0000 0.76798  0.98901  0.80900  Biso   1.000  H
  C100     1.0000 0.75715  0.84729  0.62384  Biso   1.000  C
  C101     1.0000 0.70526  0.65009  0.73772  Biso   1.000  C
  H71      1.0000 0.76301  0.70901  0.66001  Biso   1.000  H
  H72      1.0000 0.63398  0.60898  0.81601  Biso   1.000  H
  O13      1.0000 0.19033  0.00497  0.50483  Biso   1.000  O
  C102     1.0000 0.25226  0.07974  0.58902  Biso   1.000  C
  H73      1.0000 0.14499  0.07398  0.57400  Biso   1.000  H
  C103     1.0000 0.31836  0.23081  0.69883  Biso   1.000  C
  C104     1.0000 0.39186  0.28740  0.79539  Biso   1.000  C
  C105     1.0000 0.52808  0.22008  0.72593  Biso   1.000  C
  N8       1.0000 0.53104  0.10209  0.76393  Biso   1.000  N
  C106     1.0000 0.59826  0.12703  0.75091  Biso   1.000  C
  C107     1.0000 0.72919  0.12655  0.76258  Biso   1.000  C
  C108     1.0000 0.74774  0.92026  0.58902  Biso   1.000  C
  H74      1.0000 0.77701  0.81601  0.58601  Biso   1.000  H
  H75      1.0000 0.78901  0.84999  0.66902  Biso   1.000  H
  H76      1.0000 0.73400  0.60798  0.73400  Biso   1.000  H
  C109     1.0000 0.22906  0.05400  0.45923  Biso   1.000  C
  O14      1.0000 0.28085  0.08254  0.51025  Biso   1.000  O
  C110     1.0000 0.24285  0.15271  0.62384  Biso   1.000  C
  H77      1.0000 0.28301  0.05300  0.62201  Biso   1.000  H
  O15      1.0000 0.31202  0.17453  0.64823  Biso   1.000  O
  C111     1.0000 0.27678  0.29030  0.69330  Biso   1.000  C
  C112     1.0000 0.35276  0.34869  0.78720  Biso   1.000  C
  H78      1.0000 0.43202  0.28602  0.83098  Biso   1.000  H
  C113     1.0000 0.59646  0.20005  0.72593  Biso   1.000  C
  H79      1.0000 0.51001  0.26499  0.71297  Biso   1.000  H
  H80      1.0000 0.51799  0.05501  0.77901  Biso   1.000  H
  C114     1.0000 0.78721  0.10695  0.71621  Biso   1.000  C
  C115     1.0000 0.73601  0.18690  0.81012  Biso   1.000  C
  O16      1.0000 0.71915  0.91746  0.51025  Biso   1.000  O
  C116     1.0000 0.81823  0.95968  0.57889  Biso   1.000  C
  H81      1.0000 0.71699  0.94700  0.62201  Biso   1.000  H
  C117     1.0000 0.26082  0.01871  0.38842  Biso   1.000  C
  H82      1.0000 0.19799  0.09099  0.44203  Biso   1.000  H
  H83      1.0000 0.22299  0.18399  0.58601  Biso   1.000  H
  H84      1.0000 0.21099  0.15001  0.66902  Biso   1.000  H
  C118     1.0000 0.29474  0.34991  0.73772  Biso   1.000  C
  H85      1.0000 0.23699  0.29099  0.66001  Biso   1.000  H
  H86      1.0000 0.36602  0.39102  0.81601  Biso   1.000  H
  H87      1.0000 0.63598  0.22901  0.71297  Biso   1.000  H
  O17      1.0000 0.77749  0.05279  0.66313  Biso   1.000  O
  C119     1.0000 0.85036  0.14568  0.72034  Biso   1.000  C
  C120     1.0000 0.79789  0.22563  0.81271  Biso   1.000  C
  H88      1.0000 0.69701  0.20201  0.84199  Biso   1.000  H
  C121     1.0000 0.77094  0.94600  0.45923  Biso   1.000  C
  O18      1.0000 0.80967  0.99503  0.50483  Biso   1.000  O
  H89      1.0000 0.85501  0.92602  0.57400  Biso   1.000  H
  C122     1.0000 0.83831  0.01258  0.64139  Biso   1.000  C
  C123     1.0000 0.21871  0.97802  0.33940  Biso   1.000  C
  C124     1.0000 0.33083  0.02970  0.36974  Biso   1.000  C
  H90      1.0000 0.26600  0.39202  0.73400  Biso   1.000  H
  C125     1.0000 0.85548  0.20460  0.76882  Biso   1.000  C
  H91      1.0000 0.88999  0.13099  0.69000  Biso   1.000  H
  H92      1.0000 0.80000  0.26901  0.84400  Biso   1.000  H
  C126     1.0000 0.73918  0.98129  0.38842  Biso   1.000  C
  H93      1.0000 0.80201  0.90901  0.44203  Biso   1.000  H
  H94      1.0000 0.85701  0.99001  0.68599  Biso   1.000  H
  H95      1.0000 0.87303  0.04502  0.62101  Biso   1.000  H
  C127     1.0000 0.24719  0.94785  0.27265  Biso   1.000  C
  H96      1.0000 0.16999  0.97099  0.35201  Biso   1.000  H
  C128     1.0000 0.36005  0.00011  0.30134  Biso   1.000  C
  H97      1.0000 0.36000  0.05902  0.40397  Biso   1.000  H
  H98      1.0000 0.89902  0.22901  0.77401  Biso   1.000  H
  C129     1.0000 0.66917  0.97030  0.36974  Biso   1.000  C
  C130     1.0000 0.78129  0.02198  0.33940  Biso   1.000  C
  C131     1.0000 0.31789  0.95841  0.25186  Biso   1.000  C
  H99      1.0000 0.21902  0.91799  0.24001  Biso   1.000  H
  O19      1.0000 0.42938  0.01538  0.28868  Biso   1.000  O
  C132     1.0000 0.63995  0.99989  0.30134  Biso   1.000  C
  H100     1.0000 0.64000  0.94098  0.40397  Biso   1.000  H
  C133     1.0000 0.75281  0.05215  0.27265  Biso   1.000  C
  H101     1.0000 0.83001  0.02901  0.35201  Biso   1.000  H
  H102     1.0000 0.33701  0.93701  0.20502  Biso   1.000  H
  C134     1.0000 0.46230  0.98727  0.22016  Biso   1.000  C
  O20      1.0000 0.57062  0.98462  0.28868  Biso   1.000  O
  C135     1.0000 0.68211  0.04159  0.25186  Biso   1.000  C
  H103     1.0000 0.78098  0.08201  0.24001  Biso   1.000  H
  H104     1.0000 0.45997  0.93601  0.22199  Biso   1.000  H
  H105     1.0000 0.46003  0.93601  0.22199  Biso   1.000  H
  C136     1.0000 0.53770  0.01273  0.22016  Biso   1.000  C
  H106     1.0000 0.43699  0.00201  0.17397  Biso   1.000  H
  H107     1.0000 0.66299  0.06299  0.20502  Biso   1.000  H
  H108     1.0000 0.56301  0.99799  0.17397  Biso   1.000  H
  H109     1.0000 0.54003  0.06399  0.22199  Biso   1.000  H
  C137     1.0000 0.40354  0.79995  0.72593  Biso   1.000  C
  C138     1.0000 0.40174  0.87297  0.75091  Biso   1.000  C
  C139     1.0000 0.47192  0.77992  0.72593  Biso   1.000  C
  H110     1.0000 0.36402  0.77099  0.71297  Biso   1.000  H
  C140     1.0000 0.33929  0.91244  0.76305  Biso   1.000  C
  N9       1.0000 0.46896  0.89791  0.76393  Biso   1.000  N
  C141     1.0000 0.51229  0.84301  0.75050  Biso   1.000  C
  H111     1.0000 0.48999  0.73501  0.71297  Biso   1.000  H
  C142     1.0000 0.27081  0.87345  0.76258  Biso   1.000  C
  C143     1.0000 0.33812  0.98526  0.77719  Biso   1.000  C
  H112     1.0000 0.48201  0.94499  0.77901  Biso   1.000  H
  C144     1.0000 0.58621  0.84122  0.76169  Biso   1.000  C
  C145     1.0000 0.21279  0.89305  0.71621  Biso   1.000  C
  C146     1.0000 0.26399  0.81310  0.81012  Biso   1.000  C
  N10      1.0000 0.39445  0.02996  0.76947  Biso   1.000  N
  C147     1.0000 0.27863  0.02753  0.79716  Biso   1.000  C
  C148     1.0000 0.62663  0.90129  0.77707  Biso   1.000  C
  C149     1.0000 0.62536  0.77358  0.75256  Biso   1.000  C
  O21      1.0000 0.22251  0.94721  0.66313  Biso   1.000  O
  C150     1.0000 0.14964  0.85432  0.72034  Biso   1.000  C
  C151     1.0000 0.20211  0.77437  0.81271  Biso   1.000  C
  H113     1.0000 0.30299  0.79799  0.84199  Biso   1.000  H
  C152     1.0000 0.37337  0.09871  0.77707  Biso   1.000  C
  H114     1.0000 0.44201  0.01501  0.76199  Biso   1.000  H
  C153     1.0000 0.29950  0.09643  0.79728  Biso   1.000  C
  H115     1.0000 0.23202  0.01099  0.80900  Biso   1.000  H
  N11      1.0000 0.60555  0.97004  0.76947  Biso   1.000  N
  C154     1.0000 0.70050  0.90357  0.79728  Biso   1.000  C
  C155     1.0000 0.68164  0.76919  0.69883  Biso   1.000  C
  C156     1.0000 0.60814  0.71260  0.79539  Biso   1.000  C
  C157     1.0000 0.16169  0.98742  0.64139  Biso   1.000  C
  C158     1.0000 0.14452  0.79540  0.76882  Biso   1.000  C
  H116     1.0000 0.11001  0.86901  0.69000  Biso   1.000  H
  H117     1.0000 0.20000  0.73099  0.84400  Biso   1.000  H
  C159     1.0000 0.41379  0.15878  0.76169  Biso   1.000  C
  H118     1.0000 0.27001  0.13601  0.80900  Biso   1.000  H
  C160     1.0000 0.66188  0.01474  0.77719  Biso   1.000  C
  H119     1.0000 0.55799  0.98499  0.76199  Biso   1.000  H
  C161     1.0000 0.72137  0.97247  0.79716  Biso   1.000  C
  H120     1.0000 0.72999  0.86399  0.80900  Biso   1.000  H
  O22      1.0000 0.68798  0.82547  0.64823  Biso   1.000  O
  C162     1.0000 0.72322  0.70970  0.69330  Biso   1.000  C
  C163     1.0000 0.64724  0.65131  0.78720  Biso   1.000  C
  H121     1.0000 0.56798  0.71398  0.83098  Biso   1.000  H
  C164     1.0000 0.18177  0.04032  0.57889  Biso   1.000  C
  H122     1.0000 0.12697  0.95498  0.62101  Biso   1.000  H
  H123     1.0000 0.14299  0.00999  0.68599  Biso   1.000  H
  H124     1.0000 0.10098  0.77099  0.77401  Biso   1.000  H
  C165     1.0000 0.37464  0.22642  0.75256  Biso   1.000  C
  C166     1.0000 0.48771  0.15699  0.75050  Biso   1.000  C
  C167     1.0000 0.66071  0.08756  0.76305  Biso   1.000  C
  H125     1.0000 0.76798  0.98901  0.80900  Biso   1.000  H
  C168     1.0000 0.75715  0.84729  0.62384  Biso   1.000  C
  C169     1.0000 0.70526  0.65009  0.73772  Biso   1.000  C
  H126     1.0000 0.76301  0.70901  0.66001  Biso   1.000  H
  H127     1.0000 0.63398  0.60898  0.81601  Biso   1.000  H
  O23      1.0000 0.19033  0.00497  0.50483  Biso   1.000  O
  C170     1.0000 0.25226  0.07974  0.58902  Biso   1.000  C
  H128     1.0000 0.14499  0.07398  0.57400  Biso   1.000  H
  C171     1.0000 0.31836  0.23081  0.69883  Biso   1.000  C
  C172     1.0000 0.39186  0.28740  0.79539  Biso   1.000  C
  C173     1.0000 0.52808  0.22008  0.72593  Biso   1.000  C
  N12      1.0000 0.53104  0.10209  0.76393  Biso   1.000  N
  C174     1.0000 0.59826  0.12703  0.75091  Biso   1.000  C
  C175     1.0000 0.72919  0.12655  0.76258  Biso   1.000  C
  C176     1.0000 0.74774  0.92026  0.58902  Biso   1.000  C
  H129     1.0000 0.77701  0.81601  0.58601  Biso   1.000  H
  H130     1.0000 0.78901  0.84999  0.66902  Biso   1.000  H
  H131     1.0000 0.73400  0.60798  0.73400  Biso   1.000  H
  C177     1.0000 0.22906  0.05400  0.45923  Biso   1.000  C
  O24      1.0000 0.28085  0.08254  0.51025  Biso   1.000  O
  C178     1.0000 0.24285  0.15271  0.62384  Biso   1.000  C
  H132     1.0000 0.28301  0.05300  0.62201  Biso   1.000  H
  O25      1.0000 0.31202  0.17453  0.64823  Biso   1.000  O
  C179     1.0000 0.27678  0.29030  0.69330  Biso   1.000  C
  C180     1.0000 0.35276  0.34869  0.78720  Biso   1.000  C
  H133     1.0000 0.43202  0.28602  0.83098  Biso   1.000  H
  C181     1.0000 0.59646  0.20005  0.72593  Biso   1.000  C
  H134     1.0000 0.51001  0.26499  0.71297  Biso   1.000  H
  H135     1.0000 0.51799  0.05501  0.77901  Biso   1.000  H
  C182     1.0000 0.78721  0.10695  0.71621  Biso   1.000  C
  C183     1.0000 0.73601  0.18690  0.81012  Biso   1.000  C
  O26      1.0000 0.71915  0.91746  0.51025  Biso   1.000  O
  C184     1.0000 0.81823  0.95968  0.57889  Biso   1.000  C
  H136     1.0000 0.71699  0.94700  0.62201  Biso   1.000  H
  C185     1.0000 0.26082  0.01871  0.38842  Biso   1.000  C
  H137     1.0000 0.19799  0.09099  0.44203  Biso   1.000  H
  H138     1.0000 0.22299  0.18399  0.58601  Biso   1.000  H
  H139     1.0000 0.21099  0.15001  0.66902  Biso   1.000  H
  C186     1.0000 0.29474  0.34991  0.73772  Biso   1.000  C
  H140     1.0000 0.23699  0.29099  0.66001  Biso   1.000  H
  H141     1.0000 0.36602  0.39102  0.81601  Biso   1.000  H
  H142     1.0000 0.63598  0.22901  0.71297  Biso   1.000  H
  O27      1.0000 0.77749  0.05279  0.66313  Biso   1.000  O
  C187     1.0000 0.85036  0.14568  0.72034  Biso   1.000  C
  C188     1.0000 0.79789  0.22563  0.81271  Biso   1.000  C
  H143     1.0000 0.69701  0.20201  0.84199  Biso   1.000  H
  C189     1.0000 0.77094  0.94600  0.45923  Biso   1.000  C
  O28      1.0000 0.80967  0.99503  0.50483  Biso   1.000  O
  H144     1.0000 0.85501  0.92602  0.57400  Biso   1.000  H
  C190     1.0000 0.83831  0.01258  0.64139  Biso   1.000  C
  C191     1.0000 0.21871  0.97802  0.33940  Biso   1.000  C
  C192     1.0000 0.33083  0.02970  0.36974  Biso   1.000  C
  H145     1.0000 0.26600  0.39202  0.73400  Biso   1.000  H
  C193     1.0000 0.85548  0.20460  0.76882  Biso   1.000  C
  H146     1.0000 0.88999  0.13099  0.69000  Biso   1.000  H
  H147     1.0000 0.80000  0.26901  0.84400  Biso   1.000  H
  C194     1.0000 0.73918  0.98129  0.38842  Biso   1.000  C
  H148     1.0000 0.80201  0.90901  0.44203  Biso   1.000  H
  H149     1.0000 0.85701  0.99001  0.68599  Biso   1.000  H
  H150     1.0000 0.87303  0.04502  0.62101  Biso   1.000  H
  C195     1.0000 0.24719  0.94785  0.27265  Biso   1.000  C
  H151     1.0000 0.16999  0.97099  0.35201  Biso   1.000  H
  C196     1.0000 0.36005  0.00011  0.30134  Biso   1.000  C
  H152     1.0000 0.36000  0.05902  0.40397  Biso   1.000  H
  H153     1.0000 0.89902  0.22901  0.77401  Biso   1.000  H
  C197     1.0000 0.66917  0.97030  0.36974  Biso   1.000  C
  C198     1.0000 0.78129  0.02198  0.33940  Biso   1.000  C
  C199     1.0000 0.31789  0.95841  0.25186  Biso   1.000  C
  H154     1.0000 0.21902  0.91799  0.24001  Biso   1.000  H
  O29      1.0000 0.42938  0.01538  0.28868  Biso   1.000  O
  C200     1.0000 0.63995  0.99989  0.30134  Biso   1.000  C
  H155     1.0000 0.64000  0.94098  0.40397  Biso   1.000  H
  C201     1.0000 0.75281  0.05215  0.27265  Biso   1.000  C
  H156     1.0000 0.83001  0.02901  0.35201  Biso   1.000  H
  H157     1.0000 0.33701  0.93701  0.20502  Biso   1.000  H
  C202     1.0000 0.46230  0.98727  0.22016  Biso   1.000  C
  O30      1.0000 0.57062  0.98462  0.28868  Biso   1.000  O
  C203     1.0000 0.68211  0.04159  0.25186  Biso   1.000  C
  H158     1.0000 0.78098  0.08201  0.24001  Biso   1.000  H
  H159     1.0000 0.45997  0.93601  0.22199  Biso   1.000  H
  H160     1.0000 0.46003  0.93601  0.22199  Biso   1.000  H
  C204     1.0000 0.53770  0.01273  0.22016  Biso   1.000  C
  H161     1.0000 0.43699  0.00201  0.17397  Biso   1.000  H
  H162     1.0000 0.66299  0.06299  0.20502  Biso   1.000  H
  H163     1.0000 0.56301  0.99799  0.17397  Biso   1.000  H
  H164     1.0000 0.54003  0.06399  0.22199  Biso   1.000  H
  C205     1.0000 0.05215  0.74716  0.52262  Biso   1.000  C
  C206     1.0000 0.04159  0.81791  0.50183  Biso   1.000  C
  C207     1.0000 0.02198  0.71873  0.58943  Biso   1.000  C
  H165     1.0000 0.08201  0.71900  0.48998  Biso   1.000  H
  H166     1.0000 0.06299  0.83699  0.45499  Biso   1.000  H
  C208     1.0000 0.99989  0.86008  0.55137  Biso   1.000  C
  H167     1.0000 0.02901  0.67001  0.60198  Biso   1.000  H
  C209     1.0000 0.98129  0.76079  0.63839  Biso   1.000  C
  C210     1.0000 0.97030  0.83081  0.61977  Biso   1.000  C
  O31      1.0000 0.98462  0.92935  0.53865  Biso   1.000  O
  C211     1.0000 0.94600  0.72904  0.70926  Biso   1.000  C
  H168     1.0000 0.94098  0.85997  0.65400  Biso   1.000  H
  C212     1.0000 0.01273  0.96227  0.47013  Biso   1.000  C
  O32      1.0000 0.99503  0.69036  0.75480  Biso   1.000  O
  O33      1.0000 0.91746  0.78087  0.76028  Biso   1.000  O
  H169     1.0000 0.90901  0.69802  0.69200  Biso   1.000  H
  H170     1.0000 0.06399  0.96000  0.47202  Biso   1.000  H
  H171     1.0000 0.99799  0.93701  0.42400  Biso   1.000  H
  C213     1.0000 0.98727  0.03773  0.47013  Biso   1.000  C
  C214     1.0000 0.95968  0.68174  0.82891  Biso   1.000  C
  C215     1.0000 0.92026  0.75223  0.83905  Biso   1.000  C
  H172     1.0000 0.93601  0.04000  0.47202  Biso   1.000  H
  O34      1.0000 0.01538  0.07065  0.53865  Biso   1.000  O
  H173     1.0000 0.00201  0.06299  0.42400  Biso   1.000  H
  C216     1.0000 0.01258  0.66166  0.89136  Biso   1.000  C
  H174     1.0000 0.92602  0.64502  0.82402  Biso   1.000  H
  C217     1.0000 0.84729  0.74283  0.87381  Biso   1.000  C
  H175     1.0000 0.94700  0.78299  0.87198  Biso   1.000  H
  C218     1.0000 0.00011  0.13992  0.55137  Biso   1.000  C
  O35      1.0000 0.05279  0.72254  0.91316  Biso   1.000  O
  H176     1.0000 0.04502  0.62700  0.87098  Biso   1.000  H
  H177     1.0000 0.99001  0.64301  0.93602  Biso   1.000  H
  H178     1.0000 0.81601  0.72301  0.83598  Biso   1.000  H
  H179     1.0000 0.84999  0.71102  0.91899  Biso   1.000  H
  O36      1.0000 0.82547  0.81199  0.89826  Biso   1.000  O
  C219     1.0000 0.95841  0.18209  0.50183  Biso   1.000  C
  C220     1.0000 0.02970  0.16919  0.61977  Biso   1.000  C
  C221     1.0000 0.10695  0.71281  0.96624  Biso   1.000  C
  C222     1.0000 0.76919  0.81834  0.94886  Biso   1.000  C
  C223     1.0000 0.94785  0.25284  0.52262  Biso   1.000  C
  H180     1.0000 0.93701  0.16301  0.45499  Biso   1.000  H
  C224     1.0000 0.01871  0.23921  0.63839  Biso   1.000  C
  H181     1.0000 0.05902  0.14003  0.65400  Biso   1.000  H
  C225     1.0000 0.14568  0.64962  0.97031  Biso   1.000  C
  C226     1.0000 0.12655  0.77078  0.01261  Biso   1.000  C
  C227     1.0000 0.70970  0.77675  0.94333  Biso   1.000  C
  C228     1.0000 0.77358  0.87466  0.00253  Biso   1.000  C
  C229     1.0000 0.97802  0.28127  0.58943  Biso   1.000  C
  H182     1.0000 0.91799  0.28100  0.48998  Biso   1.000  H
  C230     1.0000 0.05400  0.27096  0.70926  Biso   1.000  C
  H183     1.0000 0.13099  0.60999  0.94003  Biso   1.000  H
  C231     1.0000 0.20460  0.64449  0.01879  Biso   1.000  C
  C232     1.0000 0.08756  0.83931  0.01308  Biso   1.000  C
  C233     1.0000 0.18690  0.76402  0.06009  Biso   1.000  C
  C234     1.0000 0.65009  0.79477  0.98769  Biso   1.000  C
  H184     1.0000 0.70901  0.73701  0.90998  Biso   1.000  H
  C235     1.0000 0.84122  0.91382  0.01172  Biso   1.000  C
  C236     1.0000 0.71260  0.89184  0.04536  Biso   1.000  C
  H185     1.0000 0.97099  0.32999  0.60198  Biso   1.000  H
  O37      1.0000 0.08254  0.21913  0.76028  Biso   1.000  O
  O38      1.0000 0.00497  0.30964  0.75480  Biso   1.000  O
  H186     1.0000 0.09099  0.30198  0.69200  Biso   1.000  H
  C237     1.0000 0.22563  0.70214  0.06268  Biso   1.000  C
  H187     1.0000 0.22901  0.60100  0.02398  Biso   1.000  H
  C238     1.0000 0.12703  0.90172  0.00094  Biso   1.000  C
  C239     1.0000 0.01474  0.83815  0.02716  Biso   1.000  C
  H188     1.0000 0.20201  0.80301  0.09202  Biso   1.000  H
  H189     1.0000 0.60798  0.76602  0.98398  Biso   1.000  H
  C240     1.0000 0.65131  0.85279  0.03723  Biso   1.000  C
  C241     1.0000 0.90129  0.87339  0.02710  Biso   1.000  C
  C242     1.0000 0.84301  0.98774  0.00053  Biso   1.000  C
  H190     1.0000 0.71398  0.93199  0.08101  Biso   1.000  H
  C243     1.0000 0.07974  0.24777  0.83905  Biso   1.000  C
  C244     1.0000 0.04032  0.31826  0.82891  Biso   1.000  C
  H191     1.0000 0.26901  0.69997  0.09403  Biso   1.000  H
  H192     1.0000 0.26901  0.70003  0.09403  Biso   1.000  H
  C245     1.0000 0.20005  0.90351  0.97590  Biso   1.000  C
  N13      1.0000 0.10209  0.96893  0.01390  Biso   1.000  N
  C246     1.0000 0.97247  0.77865  0.04719  Biso   1.000  C
  N14      1.0000 0.97004  0.89443  0.01950  Biso   1.000  N
  H193     1.0000 0.60898  0.86600  0.06598  Biso   1.000  H
  C247     1.0000 0.90357  0.79952  0.04731  Biso   1.000  C
  C248     1.0000 0.77992  0.02811  0.97590  Biso   1.000  C
  N15      1.0000 0.89791  0.03107  0.01390  Biso   1.000  N
  C249     1.0000 0.15271  0.25717  0.87381  Biso   1.000  C
  H194     1.0000 0.05300  0.21701  0.87198  Biso   1.000  H
  C250     1.0000 0.98742  0.33834  0.89136  Biso   1.000  C
  H195     1.0000 0.07398  0.35498  0.82402  Biso   1.000  H
  C251     1.0000 0.22008  0.97189  0.97590  Biso   1.000  C
  H196     1.0000 0.22901  0.86399  0.96300  Biso   1.000  H
  H197     1.0000 0.05501  0.98198  0.02899  Biso   1.000  H
  C252     1.0000 0.15699  0.01226  0.00053  Biso   1.000  C
  H198     1.0000 0.98901  0.73199  0.05897  Biso   1.000  H
  H199     1.0000 0.98499  0.94198  0.01202  Biso   1.000  H
  H200     1.0000 0.86399  0.76999  0.05897  Biso   1.000  H
  C253     1.0000 0.79995  0.09649  0.97590  Biso   1.000  C
  H201     1.0000 0.73501  0.00999  0.96300  Biso   1.000  H
  C254     1.0000 0.87297  0.09828  0.00094  Biso   1.000  C
  H202     1.0000 0.94499  0.01802  0.02899  Biso   1.000  H
  O39      1.0000 0.17453  0.18801  0.89826  Biso   1.000  O
  H203     1.0000 0.18399  0.27699  0.83598  Biso   1.000  H
  H204     1.0000 0.15001  0.28898  0.91899  Biso   1.000  H
  O40      1.0000 0.94721  0.27746  0.91316  Biso   1.000  O
  H205     1.0000 0.95498  0.37300  0.87098  Biso   1.000  H
  H206     1.0000 0.00999  0.35699  0.93602  Biso   1.000  H
  H207     1.0000 0.26499  0.99001  0.96300  Biso   1.000  H
  C255     1.0000 0.15878  0.08618  0.01172  Biso   1.000  C
  H208     1.0000 0.77099  0.13601  0.96300  Biso   1.000  H
  C256     1.0000 0.91244  0.16069  0.01308  Biso   1.000  C
  C257     1.0000 0.23081  0.18166  0.94886  Biso   1.000  C
  C258     1.0000 0.89305  0.28719  0.96624  Biso   1.000  C
  C259     1.0000 0.22642  0.12534  0.00253  Biso   1.000  C
  C260     1.0000 0.09871  0.12661  0.02710  Biso   1.000  C
  C261     1.0000 0.98526  0.16185  0.02716  Biso   1.000  C
  C262     1.0000 0.87345  0.22922  0.01261  Biso   1.000  C
  C263     1.0000 0.29030  0.22325  0.94333  Biso   1.000  C
  C264     1.0000 0.85432  0.35038  0.97031  Biso   1.000  C
  C265     1.0000 0.28740  0.10816  0.04536  Biso   1.000  C
  C266     1.0000 0.09643  0.20048  0.04731  Biso   1.000  C
  N16      1.0000 0.02996  0.10557  0.01950  Biso   1.000  N
  C267     1.0000 0.02753  0.22135  0.04719  Biso   1.000  C
  C268     1.0000 0.81310  0.23598  0.06009  Biso   1.000  C
  C269     1.0000 0.34991  0.20523  0.98769  Biso   1.000  C
  H209     1.0000 0.29099  0.26299  0.90998  Biso   1.000  H
  H210     1.0000 0.86901  0.39001  0.94003  Biso   1.000  H
  C270     1.0000 0.79540  0.35551  0.01879  Biso   1.000  C
  C271     1.0000 0.34869  0.14721  0.03723  Biso   1.000  C
  H211     1.0000 0.28602  0.06801  0.08101  Biso   1.000  H
  H212     1.0000 0.13601  0.23001  0.05897  Biso   1.000  H
  H213     1.0000 0.01501  0.05802  0.01202  Biso   1.000  H
  H214     1.0000 0.01099  0.26801  0.05897  Biso   1.000  H
  C272     1.0000 0.77437  0.29786  0.06268  Biso   1.000  C
  H215     1.0000 0.79799  0.19699  0.09202  Biso   1.000  H
  H216     1.0000 0.39202  0.23398  0.98398  Biso   1.000  H
  H217     1.0000 0.77099  0.39900  0.02398  Biso   1.000  H
  H218     1.0000 0.39102  0.13400  0.06598  Biso   1.000  H
  H219     1.0000 0.73099  0.30003  0.09403  Biso   1.000  H
  C273     1.0000 0.05215  0.74716  0.52262  Biso   1.000  C
  C274     1.0000 0.04159  0.81791  0.50183  Biso   1.000  C
  C275     1.0000 0.02198  0.71873  0.58943  Biso   1.000  C
  H220     1.0000 0.08201  0.71900  0.48998  Biso   1.000  H
  H221     1.0000 0.06299  0.83699  0.45499  Biso   1.000  H
  C276     1.0000 0.99989  0.86008  0.55137  Biso   1.000  C
  H222     1.0000 0.02901  0.67001  0.60198  Biso   1.000  H
  C277     1.0000 0.98129  0.76079  0.63839  Biso   1.000  C
  C278     1.0000 0.97030  0.83081  0.61977  Biso   1.000  C
  O41      1.0000 0.98462  0.92935  0.53865  Biso   1.000  O
  C279     1.0000 0.94600  0.72904  0.70926  Biso   1.000  C
  H223     1.0000 0.94098  0.85997  0.65400  Biso   1.000  H
  C280     1.0000 0.01273  0.96227  0.47013  Biso   1.000  C
  O42      1.0000 0.99503  0.69036  0.75480  Biso   1.000  O
  O43      1.0000 0.91746  0.78087  0.76028  Biso   1.000  O
  H224     1.0000 0.90901  0.69802  0.69200  Biso   1.000  H
  H225     1.0000 0.06399  0.96000  0.47202  Biso   1.000  H
  H226     1.0000 0.99799  0.93701  0.42400  Biso   1.000  H
  C281     1.0000 0.98727  0.03773  0.47013  Biso   1.000  C
  C282     1.0000 0.95968  0.68174  0.82891  Biso   1.000  C
  C283     1.0000 0.92026  0.75223  0.83905  Biso   1.000  C
  H227     1.0000 0.93601  0.04000  0.47202  Biso   1.000  H
  O44      1.0000 0.01538  0.07065  0.53865  Biso   1.000  O
  H228     1.0000 0.00201  0.06299  0.42400  Biso   1.000  H
  C284     1.0000 0.01258  0.66166  0.89136  Biso   1.000  C
  H229     1.0000 0.92602  0.64502  0.82402  Biso   1.000  H
  C285     1.0000 0.84729  0.74283  0.87381  Biso   1.000  C
  H230     1.0000 0.94700  0.78299  0.87198  Biso   1.000  H
  C286     1.0000 0.00011  0.13992  0.55137  Biso   1.000  C
  O45      1.0000 0.05279  0.72254  0.91316  Biso   1.000  O
  H231     1.0000 0.04502  0.62700  0.87098  Biso   1.000  H
  H232     1.0000 0.99001  0.64301  0.93602  Biso   1.000  H
  H233     1.0000 0.81601  0.72301  0.83598  Biso   1.000  H
  H234     1.0000 0.84999  0.71102  0.91899  Biso   1.000  H
  O46      1.0000 0.82547  0.81199  0.89826  Biso   1.000  O
  C287     1.0000 0.95841  0.18209  0.50183  Biso   1.000  C
  C288     1.0000 0.02970  0.16919  0.61977  Biso   1.000  C
  C289     1.0000 0.10695  0.71281  0.96624  Biso   1.000  C
  C290     1.0000 0.76919  0.81834  0.94886  Biso   1.000  C
  C291     1.0000 0.94785  0.25284  0.52262  Biso   1.000  C
  H235     1.0000 0.93701  0.16301  0.45499  Biso   1.000  H
  C292     1.0000 0.01871  0.23921  0.63839  Biso   1.000  C
  H236     1.0000 0.05902  0.14003  0.65400  Biso   1.000  H
  C293     1.0000 0.14568  0.64962  0.97031  Biso   1.000  C
  C294     1.0000 0.12655  0.77078  0.01261  Biso   1.000  C
  C295     1.0000 0.70970  0.77675  0.94333  Biso   1.000  C
  C296     1.0000 0.77358  0.87466  0.00253  Biso   1.000  C
  C297     1.0000 0.97802  0.28127  0.58943  Biso   1.000  C
  H237     1.0000 0.91799  0.28100  0.48998  Biso   1.000  H
  C298     1.0000 0.05400  0.27096  0.70926  Biso   1.000  C
  H238     1.0000 0.13099  0.60999  0.94003  Biso   1.000  H
  C299     1.0000 0.20460  0.64449  0.01879  Biso   1.000  C
  C300     1.0000 0.08756  0.83931  0.01308  Biso   1.000  C
  C301     1.0000 0.18690  0.76402  0.06009  Biso   1.000  C
  C302     1.0000 0.65009  0.79477  0.98769  Biso   1.000  C
  H239     1.0000 0.70901  0.73701  0.90998  Biso   1.000  H
  C303     1.0000 0.84122  0.91382  0.01172  Biso   1.000  C
  C304     1.0000 0.71260  0.89184  0.04536  Biso   1.000  C
  H240     1.0000 0.97099  0.32999  0.60198  Biso   1.000  H
  O47      1.0000 0.08254  0.21913  0.76028  Biso   1.000  O
  O48      1.0000 0.00497  0.30964  0.75480  Biso   1.000  O
  H241     1.0000 0.09099  0.30198  0.69200  Biso   1.000  H
  C305     1.0000 0.22563  0.70214  0.06268  Biso   1.000  C
  H242     1.0000 0.22901  0.60100  0.02398  Biso   1.000  H
  C306     1.0000 0.12703  0.90172  0.00094  Biso   1.000  C
  C307     1.0000 0.01474  0.83815  0.02716  Biso   1.000  C
  H243     1.0000 0.20201  0.80301  0.09202  Biso   1.000  H
  H244     1.0000 0.60798  0.76602  0.98398  Biso   1.000  H
  C308     1.0000 0.65131  0.85279  0.03723  Biso   1.000  C
  C309     1.0000 0.90129  0.87339  0.02710  Biso   1.000  C
  C310     1.0000 0.84301  0.98774  0.00053  Biso   1.000  C
  H245     1.0000 0.71398  0.93199  0.08101  Biso   1.000  H
  C311     1.0000 0.07974  0.24777  0.83905  Biso   1.000  C
  C312     1.0000 0.04032  0.31826  0.82891  Biso   1.000  C
  H246     1.0000 0.26901  0.69997  0.09403  Biso   1.000  H
  H247     1.0000 0.26901  0.70003  0.09403  Biso   1.000  H
  C313     1.0000 0.20005  0.90351  0.97590  Biso   1.000  C
  N17      1.0000 0.10209  0.96893  0.01390  Biso   1.000  N
  C314     1.0000 0.97247  0.77865  0.04719  Biso   1.000  C
  N18      1.0000 0.97004  0.89443  0.01950  Biso   1.000  N
  H248     1.0000 0.60898  0.86600  0.06598  Biso   1.000  H
  C315     1.0000 0.90357  0.79952  0.04731  Biso   1.000  C
  C316     1.0000 0.77992  0.02811  0.97590  Biso   1.000  C
  N19      1.0000 0.89791  0.03107  0.01390  Biso   1.000  N
  C317     1.0000 0.15271  0.25717  0.87381  Biso   1.000  C
  H249     1.0000 0.05300  0.21701  0.87198  Biso   1.000  H
  C318     1.0000 0.98742  0.33834  0.89136  Biso   1.000  C
  H250     1.0000 0.07398  0.35498  0.82402  Biso   1.000  H
  C319     1.0000 0.22008  0.97189  0.97590  Biso   1.000  C
  H251     1.0000 0.22901  0.86399  0.96300  Biso   1.000  H
  H252     1.0000 0.05501  0.98198  0.02899  Biso   1.000  H
  C320     1.0000 0.15699  0.01226  0.00053  Biso   1.000  C
  H253     1.0000 0.98901  0.73199  0.05897  Biso   1.000  H
  H254     1.0000 0.98499  0.94198  0.01202  Biso   1.000  H
  H255     1.0000 0.86399  0.76999  0.05897  Biso   1.000  H
  C321     1.0000 0.79995  0.09649  0.97590  Biso   1.000  C
  H256     1.0000 0.73501  0.00999  0.96300  Biso   1.000  H
  C322     1.0000 0.87297  0.09828  0.00094  Biso   1.000  C
  H257     1.0000 0.94499  0.01802  0.02899  Biso   1.000  H
  O49      1.0000 0.17453  0.18801  0.89826  Biso   1.000  O
  H258     1.0000 0.18399  0.27699  0.83598  Biso   1.000  H
  H259     1.0000 0.15001  0.28898  0.91899  Biso   1.000  H
  O50      1.0000 0.94721  0.27746  0.91316  Biso   1.000  O
  H260     1.0000 0.95498  0.37300  0.87098  Biso   1.000  H
  H261     1.0000 0.00999  0.35699  0.93602  Biso   1.000  H
  H262     1.0000 0.26499  0.99001  0.96300  Biso   1.000  H
  C323     1.0000 0.15878  0.08618  0.01172  Biso   1.000  C
  H263     1.0000 0.77099  0.13601  0.96300  Biso   1.000  H
  C324     1.0000 0.91244  0.16069  0.01308  Biso   1.000  C
  C325     1.0000 0.23081  0.18166  0.94886  Biso   1.000  C
  C326     1.0000 0.89305  0.28719  0.96624  Biso   1.000  C
  C327     1.0000 0.22642  0.12534  0.00253  Biso   1.000  C
  C328     1.0000 0.09871  0.12661  0.02710  Biso   1.000  C
  C329     1.0000 0.98526  0.16185  0.02716  Biso   1.000  C
  C330     1.0000 0.87345  0.22922  0.01261  Biso   1.000  C
  C331     1.0000 0.29030  0.22325  0.94333  Biso   1.000  C
  C332     1.0000 0.85432  0.35038  0.97031  Biso   1.000  C
  C333     1.0000 0.28740  0.10816  0.04536  Biso   1.000  C
  C334     1.0000 0.09643  0.20048  0.04731  Biso   1.000  C
  N20      1.0000 0.02996  0.10557  0.01950  Biso   1.000  N
  C335     1.0000 0.02753  0.22135  0.04719  Biso   1.000  C
  C336     1.0000 0.81310  0.23598  0.06009  Biso   1.000  C
  C337     1.0000 0.34991  0.20523  0.98769  Biso   1.000  C
  H264     1.0000 0.29099  0.26299  0.90998  Biso   1.000  H
  H265     1.0000 0.86901  0.39001  0.94003  Biso   1.000  H
  C338     1.0000 0.79540  0.35551  0.01879  Biso   1.000  C
  C339     1.0000 0.34869  0.14721  0.03723  Biso   1.000  C
  H266     1.0000 0.28602  0.06801  0.08101  Biso   1.000  H
  H267     1.0000 0.13601  0.23001  0.05897  Biso   1.000  H
  H268     1.0000 0.01501  0.05802  0.01202  Biso   1.000  H
  H269     1.0000 0.01099  0.26801  0.05897  Biso   1.000  H
  C340     1.0000 0.77437  0.29786  0.06268  Biso   1.000  C
  H270     1.0000 0.79799  0.19699  0.09202  Biso   1.000  H
  H271     1.0000 0.39202  0.23398  0.98398  Biso   1.000  H
  H272     1.0000 0.77099  0.39900  0.02398  Biso   1.000  H
  H273     1.0000 0.39102  0.13400  0.06598  Biso   1.000  H
  H274     1.0000 0.73099  0.30003  0.09403  Biso   1.000  H
  C341     1.0000 0.05215  0.74716  0.52262  Biso   1.000  C
  C342     1.0000 0.04159  0.81791  0.50183  Biso   1.000  C
  C343     1.0000 0.02198  0.71873  0.58943  Biso   1.000  C
  H275     1.0000 0.08201  0.71900  0.48998  Biso   1.000  H
  H276     1.0000 0.06299  0.83699  0.45499  Biso   1.000  H
  C344     1.0000 0.99989  0.86008  0.55137  Biso   1.000  C
  H277     1.0000 0.02901  0.67001  0.60198  Biso   1.000  H
  C345     1.0000 0.98129  0.76079  0.63839  Biso   1.000  C
  C346     1.0000 0.97030  0.83081  0.61977  Biso   1.000  C
  O51      1.0000 0.98462  0.92935  0.53865  Biso   1.000  O
  C347     1.0000 0.94600  0.72904  0.70926  Biso   1.000  C
  H278     1.0000 0.94098  0.85997  0.65400  Biso   1.000  H
  C348     1.0000 0.01273  0.96227  0.47013  Biso   1.000  C
  O52      1.0000 0.99503  0.69036  0.75480  Biso   1.000  O
  O53      1.0000 0.91746  0.78087  0.76028  Biso   1.000  O
  H279     1.0000 0.90901  0.69802  0.69200  Biso   1.000  H
  H280     1.0000 0.06399  0.96000  0.47202  Biso   1.000  H
  H281     1.0000 0.99799  0.93701  0.42400  Biso   1.000  H
  C349     1.0000 0.98727  0.03773  0.47013  Biso   1.000  C
  C350     1.0000 0.95968  0.68174  0.82891  Biso   1.000  C
  C351     1.0000 0.92026  0.75223  0.83905  Biso   1.000  C
  H282     1.0000 0.93601  0.04000  0.47202  Biso   1.000  H
  O54      1.0000 0.01538  0.07065  0.53865  Biso   1.000  O
  H283     1.0000 0.00201  0.06299  0.42400  Biso   1.000  H
  C352     1.0000 0.01258  0.66166  0.89136  Biso   1.000  C
  H284     1.0000 0.92602  0.64502  0.82402  Biso   1.000  H
  C353     1.0000 0.84729  0.74283  0.87381  Biso   1.000  C
  H285     1.0000 0.94700  0.78299  0.87198  Biso   1.000  H
  C354     1.0000 0.00011  0.13992  0.55137  Biso   1.000  C
  O55      1.0000 0.05279  0.72254  0.91316  Biso   1.000  O
  H286     1.0000 0.04502  0.62700  0.87098  Biso   1.000  H
  H287     1.0000 0.99001  0.64301  0.93602  Biso   1.000  H
  H288     1.0000 0.81601  0.72301  0.83598  Biso   1.000  H
  H289     1.0000 0.84999  0.71102  0.91899  Biso   1.000  H
  O56      1.0000 0.82547  0.81199  0.89826  Biso   1.000  O
  C355     1.0000 0.95841  0.18209  0.50183  Biso   1.000  C
  C356     1.0000 0.02970  0.16919  0.61977  Biso   1.000  C
  C357     1.0000 0.10695  0.71281  0.96624  Biso   1.000  C
  C358     1.0000 0.76919  0.81834  0.94886  Biso   1.000  C
  C359     1.0000 0.94785  0.25284  0.52262  Biso   1.000  C
  H290     1.0000 0.93701  0.16301  0.45499  Biso   1.000  H
  C360     1.0000 0.01871  0.23921  0.63839  Biso   1.000  C
  H291     1.0000 0.05902  0.14003  0.65400  Biso   1.000  H
  C361     1.0000 0.14568  0.64962  0.97031  Biso   1.000  C
  C362     1.0000 0.12655  0.77078  0.01261  Biso   1.000  C
  C363     1.0000 0.70970  0.77675  0.94333  Biso   1.000  C
  C364     1.0000 0.77358  0.87466  0.00253  Biso   1.000  C
  C365     1.0000 0.97802  0.28127  0.58943  Biso   1.000  C
  H292     1.0000 0.91799  0.28100  0.48998  Biso   1.000  H
  C366     1.0000 0.05400  0.27096  0.70926  Biso   1.000  C
  H293     1.0000 0.13099  0.60999  0.94003  Biso   1.000  H
  C367     1.0000 0.20460  0.64449  0.01879  Biso   1.000  C
  C368     1.0000 0.08756  0.83931  0.01308  Biso   1.000  C
  C369     1.0000 0.18690  0.76402  0.06009  Biso   1.000  C
  C370     1.0000 0.65009  0.79477  0.98769  Biso   1.000  C
  H294     1.0000 0.70901  0.73701  0.90998  Biso   1.000  H
  C371     1.0000 0.84122  0.91382  0.01172  Biso   1.000  C
  C372     1.0000 0.71260  0.89184  0.04536  Biso   1.000  C
  H295     1.0000 0.97099  0.32999  0.60198  Biso   1.000  H
  O57      1.0000 0.08254  0.21913  0.76028  Biso   1.000  O
  O58      1.0000 0.00497  0.30964  0.75480  Biso   1.000  O
  H296     1.0000 0.09099  0.30198  0.69200  Biso   1.000  H
  C373     1.0000 0.22563  0.70214  0.06268  Biso   1.000  C
  H297     1.0000 0.22901  0.60100  0.02398  Biso   1.000  H
  C374     1.0000 0.12703  0.90172  0.00094  Biso   1.000  C
  C375     1.0000 0.01474  0.83815  0.02716  Biso   1.000  C
  H298     1.0000 0.20201  0.80301  0.09202  Biso   1.000  H
  H299     1.0000 0.60798  0.76602  0.98398  Biso   1.000  H
  C376     1.0000 0.65131  0.85279  0.03723  Biso   1.000  C
  C377     1.0000 0.90129  0.87339  0.02710  Biso   1.000  C
  C378     1.0000 0.84301  0.98774  0.00053  Biso   1.000  C
  H300     1.0000 0.71398  0.93199  0.08101  Biso   1.000  H
  C379     1.0000 0.07974  0.24777  0.83905  Biso   1.000  C
  C380     1.0000 0.04032  0.31826  0.82891  Biso   1.000  C
  H301     1.0000 0.26901  0.69997  0.09403  Biso   1.000  H
  H302     1.0000 0.26901  0.70003  0.09403  Biso   1.000  H
  C381     1.0000 0.20005  0.90351  0.97590  Biso   1.000  C
  N21      1.0000 0.10209  0.96893  0.01390  Biso   1.000  N
  C382     1.0000 0.97247  0.77865  0.04719  Biso   1.000  C
  N22      1.0000 0.97004  0.89443  0.01950  Biso   1.000  N
  H303     1.0000 0.60898  0.86600  0.06598  Biso   1.000  H
  C383     1.0000 0.90357  0.79952  0.04731  Biso   1.000  C
  C384     1.0000 0.77992  0.02811  0.97590  Biso   1.000  C
  N23      1.0000 0.89791  0.03107  0.01390  Biso   1.000  N
  C385     1.0000 0.15271  0.25717  0.87381  Biso   1.000  C
  H304     1.0000 0.05300  0.21701  0.87198  Biso   1.000  H
  C386     1.0000 0.98742  0.33834  0.89136  Biso   1.000  C
  H305     1.0000 0.07398  0.35498  0.82402  Biso   1.000  H
  C387     1.0000 0.22008  0.97189  0.97590  Biso   1.000  C
  H306     1.0000 0.22901  0.86399  0.96300  Biso   1.000  H
  H307     1.0000 0.05501  0.98198  0.02899  Biso   1.000  H
  C388     1.0000 0.15699  0.01226  0.00053  Biso   1.000  C
  H308     1.0000 0.98901  0.73199  0.05897  Biso   1.000  H
  H309     1.0000 0.98499  0.94198  0.01202  Biso   1.000  H
  H310     1.0000 0.86399  0.76999  0.05897  Biso   1.000  H
  C389     1.0000 0.79995  0.09649  0.97590  Biso   1.000  C
  H311     1.0000 0.73501  0.00999  0.96300  Biso   1.000  H
  C390     1.0000 0.87297  0.09828  0.00094  Biso   1.000  C
  H312     1.0000 0.94499  0.01802  0.02899  Biso   1.000  H
  O59      1.0000 0.17453  0.18801  0.89826  Biso   1.000  O
  H313     1.0000 0.18399  0.27699  0.83598  Biso   1.000  H
  H314     1.0000 0.15001  0.28898  0.91899  Biso   1.000  H
  O60      1.0000 0.94721  0.27746  0.91316  Biso   1.000  O
  H315     1.0000 0.95498  0.37300  0.87098  Biso   1.000  H
  H316     1.0000 0.00999  0.35699  0.93602  Biso   1.000  H
  H317     1.0000 0.26499  0.99001  0.96300  Biso   1.000  H
  C391     1.0000 0.15878  0.08618  0.01172  Biso   1.000  C
  H318     1.0000 0.77099  0.13601  0.96300  Biso   1.000  H
  C392     1.0000 0.91244  0.16069  0.01308  Biso   1.000  C
  C393     1.0000 0.23081  0.18166  0.94886  Biso   1.000  C
  C394     1.0000 0.89305  0.28719  0.96624  Biso   1.000  C
  C395     1.0000 0.22642  0.12534  0.00253  Biso   1.000  C
  C396     1.0000 0.09871  0.12661  0.02710  Biso   1.000  C
  C397     1.0000 0.98526  0.16185  0.02716  Biso   1.000  C
  C398     1.0000 0.87345  0.22922  0.01261  Biso   1.000  C
  C399     1.0000 0.29030  0.22325  0.94333  Biso   1.000  C
  C400     1.0000 0.85432  0.35038  0.97031  Biso   1.000  C
  C401     1.0000 0.28740  0.10816  0.04536  Biso   1.000  C
  C402     1.0000 0.09643  0.20048  0.04731  Biso   1.000  C
  N24      1.0000 0.02996  0.10557  0.01950  Biso   1.000  N
  C403     1.0000 0.02753  0.22135  0.04719  Biso   1.000  C
  C404     1.0000 0.81310  0.23598  0.06009  Biso   1.000  C
  C405     1.0000 0.34991  0.20523  0.98769  Biso   1.000  C
  H319     1.0000 0.29099  0.26299  0.90998  Biso   1.000  H
  H320     1.0000 0.86901  0.39001  0.94003  Biso   1.000  H
  C406     1.0000 0.79540  0.35551  0.01879  Biso   1.000  C
  C407     1.0000 0.34869  0.14721  0.03723  Biso   1.000  C
  H321     1.0000 0.28602  0.06801  0.08101  Biso   1.000  H
  H322     1.0000 0.13601  0.23001  0.05897  Biso   1.000  H
  H323     1.0000 0.01501  0.05802  0.01202  Biso   1.000  H
  H324     1.0000 0.01099  0.26801  0.05897  Biso   1.000  H
  C408     1.0000 0.77437  0.29786  0.06268  Biso   1.000  C
  H325     1.0000 0.79799  0.19699  0.09202  Biso   1.000  H
  H326     1.0000 0.39202  0.23398  0.98398  Biso   1.000  H
  H327     1.0000 0.77099  0.39900  0.02398  Biso   1.000  H
  H328     1.0000 0.39102  0.13400  0.06598  Biso   1.000  H
  H329     1.0000 0.73099  0.30003  0.09403  Biso   1.000  H
  C409     1.0000 0.05215  0.74716  0.52262  Biso   1.000  C
  C410     1.0000 0.04159  0.81791  0.50183  Biso   1.000  C
  C411     1.0000 0.02198  0.71873  0.58943  Biso   1.000  C
  H330     1.0000 0.08201  0.71900  0.48998  Biso   1.000  H
  H331     1.0000 0.06299  0.83699  0.45499  Biso   1.000  H
  C412     1.0000 0.99989  0.86008  0.55137  Biso   1.000  C
  H332     1.0000 0.02901  0.67001  0.60198  Biso   1.000  H
  C413     1.0000 0.98129  0.76079  0.63839  Biso   1.000  C
  C414     1.0000 0.97030  0.83081  0.61977  Biso   1.000  C
  O61      1.0000 0.98462  0.92935  0.53865  Biso   1.000  O
  C415     1.0000 0.94600  0.72904  0.70926  Biso   1.000  C
  H333     1.0000 0.94098  0.85997  0.65400  Biso   1.000  H
  C416     1.0000 0.01273  0.96227  0.47013  Biso   1.000  C
  O62      1.0000 0.99503  0.69036  0.75480  Biso   1.000  O
  O63      1.0000 0.91746  0.78087  0.76028  Biso   1.000  O
  H334     1.0000 0.90901  0.69802  0.69200  Biso   1.000  H
  H335     1.0000 0.06399  0.96000  0.47202  Biso   1.000  H
  H336     1.0000 0.99799  0.93701  0.42400  Biso   1.000  H
  C417     1.0000 0.98727  0.03773  0.47013  Biso   1.000  C
  C418     1.0000 0.95968  0.68174  0.82891  Biso   1.000  C
  C419     1.0000 0.92026  0.75223  0.83905  Biso   1.000  C
  H337     1.0000 0.93601  0.04000  0.47202  Biso   1.000  H
  O64      1.0000 0.01538  0.07065  0.53865  Biso   1.000  O
  H338     1.0000 0.00201  0.06299  0.42400  Biso   1.000  H
  C420     1.0000 0.01258  0.66166  0.89136  Biso   1.000  C
  H339     1.0000 0.92602  0.64502  0.82402  Biso   1.000  H
  C421     1.0000 0.84729  0.74283  0.87381  Biso   1.000  C
  H340     1.0000 0.94700  0.78299  0.87198  Biso   1.000  H
  C422     1.0000 0.00011  0.13992  0.55137  Biso   1.000  C
  O65      1.0000 0.05279  0.72254  0.91316  Biso   1.000  O
  H341     1.0000 0.04502  0.62700  0.87098  Biso   1.000  H
  H342     1.0000 0.99001  0.64301  0.93602  Biso   1.000  H
  H343     1.0000 0.81601  0.72301  0.83598  Biso   1.000  H
  H344     1.0000 0.84999  0.71102  0.91899  Biso   1.000  H
  O66      1.0000 0.82547  0.81199  0.89826  Biso   1.000  O
  C423     1.0000 0.95841  0.18209  0.50183  Biso   1.000  C
  C424     1.0000 0.02970  0.16919  0.61977  Biso   1.000  C
  C425     1.0000 0.10695  0.71281  0.96624  Biso   1.000  C
  C426     1.0000 0.76919  0.81834  0.94886  Biso   1.000  C
  C427     1.0000 0.94785  0.25284  0.52262  Biso   1.000  C
  H345     1.0000 0.93701  0.16301  0.45499  Biso   1.000  H
  C428     1.0000 0.01871  0.23921  0.63839  Biso   1.000  C
  H346     1.0000 0.05902  0.14003  0.65400  Biso   1.000  H
  C429     1.0000 0.14568  0.64962  0.97031  Biso   1.000  C
  C430     1.0000 0.12655  0.77078  0.01261  Biso   1.000  C
  C431     1.0000 0.70970  0.77675  0.94333  Biso   1.000  C
  C432     1.0000 0.77358  0.87466  0.00253  Biso   1.000  C
  C433     1.0000 0.97802  0.28127  0.58943  Biso   1.000  C
  H347     1.0000 0.91799  0.28100  0.48998  Biso   1.000  H
  C434     1.0000 0.05400  0.27096  0.70926  Biso   1.000  C
  H348     1.0000 0.13099  0.60999  0.94003  Biso   1.000  H
  C435     1.0000 0.20460  0.64449  0.01879  Biso   1.000  C
  C436     1.0000 0.08756  0.83931  0.01308  Biso   1.000  C
  C437     1.0000 0.18690  0.76402  0.06009  Biso   1.000  C
  C438     1.0000 0.65009  0.79477  0.98769  Biso   1.000  C
  H349     1.0000 0.70901  0.73701  0.90998  Biso   1.000  H
  C439     1.0000 0.84122  0.91382  0.01172  Biso   1.000  C
  C440     1.0000 0.71260  0.89184  0.04536  Biso   1.000  C
  H350     1.0000 0.97099  0.32999  0.60198  Biso   1.000  H
  O67      1.0000 0.08254  0.21913  0.76028  Biso   1.000  O
  O68      1.0000 0.00497  0.30964  0.75480  Biso   1.000  O
  H351     1.0000 0.09099  0.30198  0.69200  Biso   1.000  H
  C441     1.0000 0.22563  0.70214  0.06268  Biso   1.000  C
  H352     1.0000 0.22901  0.60100  0.02398  Biso   1.000  H
  C442     1.0000 0.12703  0.90172  0.00094  Biso   1.000  C
  C443     1.0000 0.01474  0.83815  0.02716  Biso   1.000  C
  H353     1.0000 0.20201  0.80301  0.09202  Biso   1.000  H
  H354     1.0000 0.60798  0.76602  0.98398  Biso   1.000  H
  C444     1.0000 0.65131  0.85279  0.03723  Biso   1.000  C
  C445     1.0000 0.90129  0.87339  0.02710  Biso   1.000  C
  C446     1.0000 0.84301  0.98774  0.00053  Biso   1.000  C
  H355     1.0000 0.71398  0.93199  0.08101  Biso   1.000  H
  C447     1.0000 0.07974  0.24777  0.83905  Biso   1.000  C
  C448     1.0000 0.04032  0.31826  0.82891  Biso   1.000  C
  H356     1.0000 0.26901  0.69997  0.09403  Biso   1.000  H
  H357     1.0000 0.26901  0.70003  0.09403  Biso   1.000  H
  C449     1.0000 0.20005  0.90351  0.97590  Biso   1.000  C
  N25      1.0000 0.10209  0.96893  0.01390  Biso   1.000  N
  C450     1.0000 0.97247  0.77865  0.04719  Biso   1.000  C
  N26      1.0000 0.97004  0.89443  0.01950  Biso   1.000  N
  H358     1.0000 0.60898  0.86600  0.06598  Biso   1.000  H
  C451     1.0000 0.90357  0.79952  0.04731  Biso   1.000  C
  C452     1.0000 0.77992  0.02811  0.97590  Biso   1.000  C
  N27      1.0000 0.89791  0.03107  0.01390  Biso   1.000  N
  C453     1.0000 0.15271  0.25717  0.87381  Biso   1.000  C
  H359     1.0000 0.05300  0.21701  0.87198  Biso   1.000  H
  C454     1.0000 0.98742  0.33834  0.89136  Biso   1.000  C
  H360     1.0000 0.07398  0.35498  0.82402  Biso   1.000  H
  C455     1.0000 0.22008  0.97189  0.97590  Biso   1.000  C
  H361     1.0000 0.22901  0.86399  0.96300  Biso   1.000  H
  H362     1.0000 0.05501  0.98198  0.02899  Biso   1.000  H
  C456     1.0000 0.15699  0.01226  0.00053  Biso   1.000  C
  H363     1.0000 0.98901  0.73199  0.05897  Biso   1.000  H
  H364     1.0000 0.98499  0.94198  0.01202  Biso   1.000  H
  H365     1.0000 0.86399  0.76999  0.05897  Biso   1.000  H
  C457     1.0000 0.79995  0.09649  0.97590  Biso   1.000  C
  H366     1.0000 0.73501  0.00999  0.96300  Biso   1.000  H
  C458     1.0000 0.87297  0.09828  0.00094  Biso   1.000  C
  H367     1.0000 0.94499  0.01802  0.02899  Biso   1.000  H
  O69      1.0000 0.17453  0.18801  0.89826  Biso   1.000  O
  H368     1.0000 0.18399  0.27699  0.83598  Biso   1.000  H
  H369     1.0000 0.15001  0.28898  0.91899  Biso   1.000  H
  O70      1.0000 0.94721  0.27746  0.91316  Biso   1.000  O
  H370     1.0000 0.95498  0.37300  0.87098  Biso   1.000  H
  H371     1.0000 0.00999  0.35699  0.93602  Biso   1.000  H
  H372     1.0000 0.26499  0.99001  0.96300  Biso   1.000  H
  C459     1.0000 0.15878  0.08618  0.01172  Biso   1.000  C
  H373     1.0000 0.77099  0.13601  0.96300  Biso   1.000  H
  C460     1.0000 0.91244  0.16069  0.01308  Biso   1.000  C
  C461     1.0000 0.23081  0.18166  0.94886  Biso   1.000  C
  C462     1.0000 0.89305  0.28719  0.96624  Biso   1.000  C
  C463     1.0000 0.22642  0.12534  0.00253  Biso   1.000  C
  C464     1.0000 0.09871  0.12661  0.02710  Biso   1.000  C
  C465     1.0000 0.98526  0.16185  0.02716  Biso   1.000  C
  C466     1.0000 0.87345  0.22922  0.01261  Biso   1.000  C
  C467     1.0000 0.29030  0.22325  0.94333  Biso   1.000  C
  C468     1.0000 0.85432  0.35038  0.97031  Biso   1.000  C
  C469     1.0000 0.28740  0.10816  0.04536  Biso   1.000  C
  C470     1.0000 0.09643  0.20048  0.04731  Biso   1.000  C
  N28      1.0000 0.02996  0.10557  0.01950  Biso   1.000  N
  C471     1.0000 0.02753  0.22135  0.04719  Biso   1.000  C
  C472     1.0000 0.81310  0.23598  0.06009  Biso   1.000  C
  C473     1.0000 0.34991  0.20523  0.98769  Biso   1.000  C
  H374     1.0000 0.29099  0.26299  0.90998  Biso   1.000  H
  H375     1.0000 0.86901  0.39001  0.94003  Biso   1.000  H
  C474     1.0000 0.79540  0.35551  0.01879  Biso   1.000  C
  C475     1.0000 0.34869  0.14721  0.03723  Biso   1.000  C
  H376     1.0000 0.28602  0.06801  0.08101  Biso   1.000  H
  H377     1.0000 0.13601  0.23001  0.05897  Biso   1.000  H
  H378     1.0000 0.01501  0.05802  0.01202  Biso   1.000  H
  H379     1.0000 0.01099  0.26801  0.05897  Biso   1.000  H
  C476     1.0000 0.77437  0.29786  0.06268  Biso   1.000  C
  H380     1.0000 0.79799  0.19699  0.09202  Biso   1.000  H
  H381     1.0000 0.39202  0.23398  0.98398  Biso   1.000  H
  H382     1.0000 0.77099  0.39900  0.02398  Biso   1.000  H
  H383     1.0000 0.39102  0.13400  0.06598  Biso   1.000  H
  H384     1.0000 0.73099  0.30003  0.09403  Biso   1.000  H
  C477     1.0000 0.79952  0.59646  0.29728  Biso   1.000  C
  C478     1.0000 0.77865  0.52750  0.29716  Biso   1.000  C
  C479     1.0000 0.87339  0.59868  0.27707  Biso   1.000  C
  H385     1.0000 0.76999  0.63598  0.30900  Biso   1.000  H
  C480     1.0000 0.83815  0.48523  0.27719  Biso   1.000  C
  H386     1.0000 0.73199  0.51102  0.30900  Biso   1.000  H
  N29      1.0000 0.89443  0.52993  0.26947  Biso   1.000  N
  C481     1.0000 0.91382  0.65876  0.26169  Biso   1.000  C
  C482     1.0000 0.83931  0.41247  0.26305  Biso   1.000  C
  H387     1.0000 0.94198  0.51498  0.26199  Biso   1.000  H
  C483     1.0000 0.98774  0.65696  0.25050  Biso   1.000  C
  C484     1.0000 0.87466  0.72645  0.25256  Biso   1.000  C
  C485     1.0000 0.77078  0.37347  0.26258  Biso   1.000  C
  C486     1.0000 0.90172  0.37295  0.25091  Biso   1.000  C
  C487     1.0000 0.02811  0.72005  0.22593  Biso   1.000  C
  N30      1.0000 0.03107  0.60206  0.26393  Biso   1.000  N
  C488     1.0000 0.81834  0.73078  0.19883  Biso   1.000  C
  C489     1.0000 0.89184  0.78742  0.29539  Biso   1.000  C
  C490     1.0000 0.71281  0.39308  0.21621  Biso   1.000  C
  C491     1.0000 0.76402  0.31313  0.31012  Biso   1.000  C
  N31      1.0000 0.96893  0.39794  0.26393  Biso   1.000  N
  C492     1.0000 0.90351  0.29997  0.22593  Biso   1.000  C
  C493     1.0000 0.09649  0.70003  0.22593  Biso   1.000  C
  H388     1.0000 0.00999  0.76502  0.21297  Biso   1.000  H
  C494     1.0000 0.09828  0.62705  0.25091  Biso   1.000  C
  H389     1.0000 0.01802  0.55498  0.27901  Biso   1.000  H
  O71      1.0000 0.81199  0.67456  0.14823  Biso   1.000  O
  C495     1.0000 0.77675  0.79028  0.19330  Biso   1.000  C
  C496     1.0000 0.85279  0.84872  0.28720  Biso   1.000  C
  H390     1.0000 0.93199  0.78600  0.33098  Biso   1.000  H
  C497     1.0000 0.64962  0.35429  0.22034  Biso   1.000  C
  O72      1.0000 0.72254  0.44724  0.16313  Biso   1.000  O
  C498     1.0000 0.70214  0.27440  0.31271  Biso   1.000  C
  H391     1.0000 0.80301  0.29802  0.34199  Biso   1.000  H
  H392     1.0000 0.98198  0.44502  0.27901  Biso   1.000  H
  C499     1.0000 0.01226  0.34304  0.25050  Biso   1.000  C
  C500     1.0000 0.97189  0.27995  0.22593  Biso   1.000  C
  H393     1.0000 0.86399  0.27102  0.21297  Biso   1.000  H
  H394     1.0000 0.13601  0.72898  0.21297  Biso   1.000  H
  C501     1.0000 0.16069  0.58753  0.26305  Biso   1.000  C
  C502     1.0000 0.74283  0.65268  0.12384  Biso   1.000  C
  C503     1.0000 0.79477  0.84993  0.23772  Biso   1.000  C
  H395     1.0000 0.73701  0.79102  0.16001  Biso   1.000  H
  H396     1.0000 0.86600  0.89099  0.31601  Biso   1.000  H
  C504     1.0000 0.64449  0.29543  0.26882  Biso   1.000  C
  H397     1.0000 0.60999  0.36898  0.19000  Biso   1.000  H
  C505     1.0000 0.66166  0.48740  0.14139  Biso   1.000  C
  H398     1.0000 0.69997  0.23102  0.34400  Biso   1.000  H
  H399     1.0000 0.70003  0.23102  0.34400  Biso   1.000  H
  C506     1.0000 0.08618  0.34124  0.26169  Biso   1.000  C
  H400     1.0000 0.99001  0.23498  0.21297  Biso   1.000  H
  C507     1.0000 0.16185  0.51477  0.27719  Biso   1.000  C
  C508     1.0000 0.22922  0.62653  0.26258  Biso   1.000  C
  C509     1.0000 0.75223  0.57976  0.08902  Biso   1.000  C
  H401     1.0000 0.72301  0.68402  0.08601  Biso   1.000  H
  H402     1.0000 0.71102  0.64999  0.16902  Biso   1.000  H
  H403     1.0000 0.76602  0.89199  0.23400  Biso   1.000  H
  H404     1.0000 0.60100  0.27102  0.27401  Biso   1.000  H
  C510     1.0000 0.68174  0.54029  0.07889  Biso   1.000  C
  H405     1.0000 0.64301  0.51001  0.18599  Biso   1.000  H
  H406     1.0000 0.62700  0.45501  0.12101  Biso   1.000  H
  C511     1.0000 0.12661  0.40132  0.27707  Biso   1.000  C
  C512     1.0000 0.12534  0.27355  0.25256  Biso   1.000  C
  N32      1.0000 0.10557  0.47007  0.26947  Biso   1.000  N
  C513     1.0000 0.22135  0.47250  0.29716  Biso   1.000  C
  C514     1.0000 0.28719  0.60692  0.21621  Biso   1.000  C
  C515     1.0000 0.23598  0.68687  0.31012  Biso   1.000  C
  O73      1.0000 0.78087  0.58256  0.01025  Biso   1.000  O
  H407     1.0000 0.78299  0.55303  0.12201  Biso   1.000  H
  O74      1.0000 0.69036  0.50494  0.00483  Biso   1.000  O
  H408     1.0000 0.64502  0.57400  0.07400  Biso   1.000  H
  C516     1.0000 0.20048  0.40354  0.29728  Biso   1.000  C
  C517     1.0000 0.18166  0.26922  0.19883  Biso   1.000  C
  C518     1.0000 0.10816  0.21258  0.29539  Biso   1.000  C
  H409     1.0000 0.05802  0.48502  0.26199  Biso   1.000  H
  H410     1.0000 0.26801  0.48898  0.30900  Biso   1.000  H
  C519     1.0000 0.35038  0.64571  0.22034  Biso   1.000  C
  O75      1.0000 0.27746  0.55276  0.16313  Biso   1.000  O
  C520     1.0000 0.29786  0.72560  0.31271  Biso   1.000  C
  H411     1.0000 0.19699  0.70198  0.34199  Biso   1.000  H
  C521     1.0000 0.72904  0.55403  0.95923  Biso   1.000  C
  H412     1.0000 0.23001  0.36402  0.30900  Biso   1.000  H
  O76      1.0000 0.18801  0.32544  0.14823  Biso   1.000  O
  C522     1.0000 0.22325  0.20972  0.19330  Biso   1.000  C
  C523     1.0000 0.14721  0.15128  0.28720  Biso   1.000  C
  H413     1.0000 0.06801  0.21400  0.33098  Biso   1.000  H
  C524     1.0000 0.35551  0.70457  0.26882  Biso   1.000  C
  H414     1.0000 0.39001  0.63102  0.19000  Biso   1.000  H
  C525     1.0000 0.33834  0.51260  0.14139  Biso   1.000  C
  H415     1.0000 0.30003  0.76898  0.34400  Biso   1.000  H
  C526     1.0000 0.76079  0.51868  0.88842  Biso   1.000  C
  H416     1.0000 0.69802  0.59102  0.94203  Biso   1.000  H
  C527     1.0000 0.25717  0.34732  0.12384  Biso   1.000  C
  C528     1.0000 0.20523  0.15007  0.23772  Biso   1.000  C
  H417     1.0000 0.26299  0.20898  0.16001  Biso   1.000  H
  H418     1.0000 0.13400  0.10901  0.31601  Biso   1.000  H
  H419     1.0000 0.39900  0.72898  0.27401  Biso   1.000  H
  C529     1.0000 0.31826  0.45971  0.07889  Biso   1.000  C
  H420     1.0000 0.35699  0.48999  0.18599  Biso   1.000  H
  H421     1.0000 0.37300  0.54499  0.12101  Biso   1.000  H
  C530     1.0000 0.83081  0.52967  0.86974  Biso   1.000  C
  C531     1.0000 0.71873  0.47799  0.83940  Biso   1.000  C
  C532     1.0000 0.24777  0.42024  0.08902  Biso   1.000  C
  H422     1.0000 0.27699  0.31598  0.08601  Biso   1.000  H
  H423     1.0000 0.28898  0.35001  0.16902  Biso   1.000  H
  H424     1.0000 0.23398  0.10801  0.23400  Biso   1.000  H
  O77      1.0000 0.30964  0.49506  0.00483  Biso   1.000  O
  H425     1.0000 0.35498  0.42600  0.07400  Biso   1.000  H
  C533     1.0000 0.86008  0.50013  0.80134  Biso   1.000  C
  H426     1.0000 0.85997  0.55900  0.90397  Biso   1.000  H
  C534     1.0000 0.74716  0.44782  0.77265  Biso   1.000  C
  H427     1.0000 0.67001  0.47102  0.85201  Biso   1.000  H
  O78      1.0000 0.21913  0.41744  0.01025  Biso   1.000  O
  H428     1.0000 0.21701  0.44697  0.12201  Biso   1.000  H
  C535     1.0000 0.27096  0.44597  0.95923  Biso   1.000  C
  O79      1.0000 0.92935  0.51540  0.78868  Biso   1.000  O
  C536     1.0000 0.81791  0.45839  0.75186  Biso   1.000  C
  H429     1.0000 0.71900  0.41802  0.74001  Biso   1.000  H
  C537     1.0000 0.23921  0.48132  0.88842  Biso   1.000  C
  H430     1.0000 0.30198  0.40898  0.94203  Biso   1.000  H
  C538     1.0000 0.96227  0.48724  0.72016  Biso   1.000  C
  H431     1.0000 0.83699  0.43699  0.70502  Biso   1.000  H
  C539     1.0000 0.16919  0.47033  0.86974  Biso   1.000  C
  C540     1.0000 0.28127  0.52201  0.83940  Biso   1.000  C
  H432     1.0000 0.96000  0.43598  0.72199  Biso   1.000  H
  H433     1.0000 0.93701  0.50198  0.67397  Biso   1.000  H
  C541     1.0000 0.03773  0.51276  0.72016  Biso   1.000  C
  C542     1.0000 0.13992  0.49987  0.80134  Biso   1.000  C
  H434     1.0000 0.14003  0.44100  0.90397  Biso   1.000  H
  C543     1.0000 0.25284  0.55218  0.77265  Biso   1.000  C
  H435     1.0000 0.32999  0.52898  0.85201  Biso   1.000  H
  O80      1.0000 0.07065  0.48460  0.78868  Biso   1.000  O
  H436     1.0000 0.04000  0.56402  0.72199  Biso   1.000  H
  H437     1.0000 0.06299  0.49802  0.67397  Biso   1.000  H
  C544     1.0000 0.18209  0.54161  0.75186  Biso   1.000  C
  H438     1.0000 0.28100  0.58198  0.74001  Biso   1.000  H
  H439     1.0000 0.16301  0.56301  0.70502  Biso   1.000  H
  C545     1.0000 0.79952  0.59646  0.29728  Biso   1.000  C
  C546     1.0000 0.77865  0.52750  0.29716  Biso   1.000  C
  C547     1.0000 0.87339  0.59868  0.27707  Biso   1.000  C
  H440     1.0000 0.76999  0.63598  0.30900  Biso   1.000  H
  C548     1.0000 0.83815  0.48523  0.27719  Biso   1.000  C
  H441     1.0000 0.73199  0.51102  0.30900  Biso   1.000  H
  N33      1.0000 0.89443  0.52993  0.26947  Biso   1.000  N
  C549     1.0000 0.91382  0.65876  0.26169  Biso   1.000  C
  C550     1.0000 0.83931  0.41247  0.26305  Biso   1.000  C
  H442     1.0000 0.94198  0.51498  0.26199  Biso   1.000  H
  C551     1.0000 0.98774  0.65696  0.25050  Biso   1.000  C
  C552     1.0000 0.87466  0.72645  0.25256  Biso   1.000  C
  C553     1.0000 0.77078  0.37347  0.26258  Biso   1.000  C
  C554     1.0000 0.90172  0.37295  0.25091  Biso   1.000  C
  C555     1.0000 0.02811  0.72005  0.22593  Biso   1.000  C
  N34      1.0000 0.03107  0.60206  0.26393  Biso   1.000  N
  C556     1.0000 0.81834  0.73078  0.19883  Biso   1.000  C
  C557     1.0000 0.89184  0.78742  0.29539  Biso   1.000  C
  C558     1.0000 0.71281  0.39308  0.21621  Biso   1.000  C
  C559     1.0000 0.76402  0.31313  0.31012  Biso   1.000  C
  N35      1.0000 0.96893  0.39794  0.26393  Biso   1.000  N
  C560     1.0000 0.90351  0.29997  0.22593  Biso   1.000  C
  C561     1.0000 0.09649  0.70003  0.22593  Biso   1.000  C
  H443     1.0000 0.00999  0.76502  0.21297  Biso   1.000  H
  C562     1.0000 0.09828  0.62705  0.25091  Biso   1.000  C
  H444     1.0000 0.01802  0.55498  0.27901  Biso   1.000  H
  O81      1.0000 0.81199  0.67456  0.14823  Biso   1.000  O
  C563     1.0000 0.77675  0.79028  0.19330  Biso   1.000  C
  C564     1.0000 0.85279  0.84872  0.28720  Biso   1.000  C
  H445     1.0000 0.93199  0.78600  0.33098  Biso   1.000  H
  C565     1.0000 0.64962  0.35429  0.22034  Biso   1.000  C
  O82      1.0000 0.72254  0.44724  0.16313  Biso   1.000  O
  C566     1.0000 0.70214  0.27440  0.31271  Biso   1.000  C
  H446     1.0000 0.80301  0.29802  0.34199  Biso   1.000  H
  H447     1.0000 0.98198  0.44502  0.27901  Biso   1.000  H
  C567     1.0000 0.01226  0.34304  0.25050  Biso   1.000  C
  C568     1.0000 0.97189  0.27995  0.22593  Biso   1.000  C
  H448     1.0000 0.86399  0.27102  0.21297  Biso   1.000  H
  H449     1.0000 0.13601  0.72898  0.21297  Biso   1.000  H
  C569     1.0000 0.16069  0.58753  0.26305  Biso   1.000  C
  C570     1.0000 0.74283  0.65268  0.12384  Biso   1.000  C
  C571     1.0000 0.79477  0.84993  0.23772  Biso   1.000  C
  H450     1.0000 0.73701  0.79102  0.16001  Biso   1.000  H
  H451     1.0000 0.86600  0.89099  0.31601  Biso   1.000  H
  C572     1.0000 0.64449  0.29543  0.26882  Biso   1.000  C
  H452     1.0000 0.60999  0.36898  0.19000  Biso   1.000  H
  C573     1.0000 0.66166  0.48740  0.14139  Biso   1.000  C
  H453     1.0000 0.69997  0.23102  0.34400  Biso   1.000  H
  H454     1.0000 0.70003  0.23102  0.34400  Biso   1.000  H
  C574     1.0000 0.08618  0.34124  0.26169  Biso   1.000  C
  H455     1.0000 0.99001  0.23498  0.21297  Biso   1.000  H
  C575     1.0000 0.16185  0.51477  0.27719  Biso   1.000  C
  C576     1.0000 0.22922  0.62653  0.26258  Biso   1.000  C
  C577     1.0000 0.75223  0.57976  0.08902  Biso   1.000  C
  H456     1.0000 0.72301  0.68402  0.08601  Biso   1.000  H
  H457     1.0000 0.71102  0.64999  0.16902  Biso   1.000  H
  H458     1.0000 0.76602  0.89199  0.23400  Biso   1.000  H
  H459     1.0000 0.60100  0.27102  0.27401  Biso   1.000  H
  C578     1.0000 0.68174  0.54029  0.07889  Biso   1.000  C
  H460     1.0000 0.64301  0.51001  0.18599  Biso   1.000  H
  H461     1.0000 0.62700  0.45501  0.12101  Biso   1.000  H
  C579     1.0000 0.12661  0.40132  0.27707  Biso   1.000  C
  C580     1.0000 0.12534  0.27355  0.25256  Biso   1.000  C
  N36      1.0000 0.10557  0.47007  0.26947  Biso   1.000  N
  C581     1.0000 0.22135  0.47250  0.29716  Biso   1.000  C
  C582     1.0000 0.28719  0.60692  0.21621  Biso   1.000  C
  C583     1.0000 0.23598  0.68687  0.31012  Biso   1.000  C
  O83      1.0000 0.78087  0.58256  0.01025  Biso   1.000  O
  H462     1.0000 0.78299  0.55303  0.12201  Biso   1.000  H
  O84      1.0000 0.69036  0.50494  0.00483  Biso   1.000  O
  H463     1.0000 0.64502  0.57400  0.07400  Biso   1.000  H
  C584     1.0000 0.20048  0.40354  0.29728  Biso   1.000  C
  C585     1.0000 0.18166  0.26922  0.19883  Biso   1.000  C
  C586     1.0000 0.10816  0.21258  0.29539  Biso   1.000  C
  H464     1.0000 0.05802  0.48502  0.26199  Biso   1.000  H
  H465     1.0000 0.26801  0.48898  0.30900  Biso   1.000  H
  C587     1.0000 0.35038  0.64571  0.22034  Biso   1.000  C
  O85      1.0000 0.27746  0.55276  0.16313  Biso   1.000  O
  C588     1.0000 0.29786  0.72560  0.31271  Biso   1.000  C
  H466     1.0000 0.19699  0.70198  0.34199  Biso   1.000  H
  C589     1.0000 0.72904  0.55403  0.95923  Biso   1.000  C
  H467     1.0000 0.23001  0.36402  0.30900  Biso   1.000  H
  O86      1.0000 0.18801  0.32544  0.14823  Biso   1.000  O
  C590     1.0000 0.22325  0.20972  0.19330  Biso   1.000  C
  C591     1.0000 0.14721  0.15128  0.28720  Biso   1.000  C
  H468     1.0000 0.06801  0.21400  0.33098  Biso   1.000  H
  C592     1.0000 0.35551  0.70457  0.26882  Biso   1.000  C
  H469     1.0000 0.39001  0.63102  0.19000  Biso   1.000  H
  C593     1.0000 0.33834  0.51260  0.14139  Biso   1.000  C
  H470     1.0000 0.30003  0.76898  0.34400  Biso   1.000  H
  C594     1.0000 0.76079  0.51868  0.88842  Biso   1.000  C
  H471     1.0000 0.69802  0.59102  0.94203  Biso   1.000  H
  C595     1.0000 0.25717  0.34732  0.12384  Biso   1.000  C
  C596     1.0000 0.20523  0.15007  0.23772  Biso   1.000  C
  H472     1.0000 0.26299  0.20898  0.16001  Biso   1.000  H
  H473     1.0000 0.13400  0.10901  0.31601  Biso   1.000  H
  H474     1.0000 0.39900  0.72898  0.27401  Biso   1.000  H
  C597     1.0000 0.31826  0.45971  0.07889  Biso   1.000  C
  H475     1.0000 0.35699  0.48999  0.18599  Biso   1.000  H
  H476     1.0000 0.37300  0.54499  0.12101  Biso   1.000  H
  C598     1.0000 0.83081  0.52967  0.86974  Biso   1.000  C
  C599     1.0000 0.71873  0.47799  0.83940  Biso   1.000  C
  C600     1.0000 0.24777  0.42024  0.08902  Biso   1.000  C
  H477     1.0000 0.27699  0.31598  0.08601  Biso   1.000  H
  H478     1.0000 0.28898  0.35001  0.16902  Biso   1.000  H
  H479     1.0000 0.23398  0.10801  0.23400  Biso   1.000  H
  O87      1.0000 0.30964  0.49506  0.00483  Biso   1.000  O
  H480     1.0000 0.35498  0.42600  0.07400  Biso   1.000  H
  C601     1.0000 0.86008  0.50013  0.80134  Biso   1.000  C
  H481     1.0000 0.85997  0.55900  0.90397  Biso   1.000  H
  C602     1.0000 0.74716  0.44782  0.77265  Biso   1.000  C
  H482     1.0000 0.67001  0.47102  0.85201  Biso   1.000  H
  O88      1.0000 0.21913  0.41744  0.01025  Biso   1.000  O
  H483     1.0000 0.21701  0.44697  0.12201  Biso   1.000  H
  C603     1.0000 0.27096  0.44597  0.95923  Biso   1.000  C
  O89      1.0000 0.92935  0.51540  0.78868  Biso   1.000  O
  C604     1.0000 0.81791  0.45839  0.75186  Biso   1.000  C
  H484     1.0000 0.71900  0.41802  0.74001  Biso   1.000  H
  C605     1.0000 0.23921  0.48132  0.88842  Biso   1.000  C
  H485     1.0000 0.30198  0.40898  0.94203  Biso   1.000  H
  C606     1.0000 0.96227  0.48724  0.72016  Biso   1.000  C
  H486     1.0000 0.83699  0.43699  0.70502  Biso   1.000  H
  C607     1.0000 0.16919  0.47033  0.86974  Biso   1.000  C
  C608     1.0000 0.28127  0.52201  0.83940  Biso   1.000  C
  H487     1.0000 0.96000  0.43598  0.72199  Biso   1.000  H
  H488     1.0000 0.93701  0.50198  0.67397  Biso   1.000  H
  C609     1.0000 0.03773  0.51276  0.72016  Biso   1.000  C
  C610     1.0000 0.13992  0.49987  0.80134  Biso   1.000  C
  H489     1.0000 0.14003  0.44100  0.90397  Biso   1.000  H
  C611     1.0000 0.25284  0.55218  0.77265  Biso   1.000  C
  H490     1.0000 0.32999  0.52898  0.85201  Biso   1.000  H
  O90      1.0000 0.07065  0.48460  0.78868  Biso   1.000  O
  H491     1.0000 0.04000  0.56402  0.72199  Biso   1.000  H
  H492     1.0000 0.06299  0.49802  0.67397  Biso   1.000  H
  C612     1.0000 0.18209  0.54161  0.75186  Biso   1.000  C
  H493     1.0000 0.28100  0.58198  0.74001  Biso   1.000  H
  H494     1.0000 0.16301  0.56301  0.70502  Biso   1.000  H
