# Supplementary Material (ESI) for Chemical Communications
# This journal is (c) The Royal Society of Chemistry 2006

data_global
_journal_name_full               Chem.Commun.

_journal_coden_Cambridge         0182

_publ_contact_author_name        A.Muller
_publ_contact_author_address     
;
Lehrstuhl fur Anorganische
Universitat Bielefeld
Chemie, Fakultat fur Chemie
33501 Bielefeld
Postfach 100 131
GERMANY
;
_publ_contact_author_phone       '49 521 106 6153'
_publ_contact_author_fax         '49 521 106 6003'
_publ_contact_author_email       a.mueller@uni-bielefeld.de
_publ_requested_coeditor_name    ?

loop_
_publ_author_name
_publ_author_address
A.Muller
; Fakultat f. Chemie
Universitat Bielefeld
33501 Bielefeld
Germany
;
L.Toma
; Fakultat f. Chemie
Universitat Bielefeld
33501 Bielefeld
Germany
;
H.Bogge
; Fakultat f. Chemie
Universitat Bielefeld
33501 Bielefeld
Germany
;
M.Henry
; NMR and Solid State Molecular Chemistry
Universite Louis Pasteur
67070 Strasbourg
France
;
E.T.K.Haupt
; Institut f. Anorganische und Angewandte Chemie
Universitat Hamburg
20146 Hamburg
Germany
;
A.Mix
; Fakultat f. Chemie
Universitat Bielefeld
33501 Bielefeld
Germany
;
'F.L. Sousa'
; Fakultat f. Chemie
Universitat Bielefeld
33501 Bielefeld
Germany
;

_publ_section_title              
;
Different types of reactions inside a porous
nanocapsule/artificial cell: structuring encapsulates being directed by
internal surface deprotonations
;

#==============================================================================

# 4. TEXT

_publ_section_abstract           
;
;
_publ_section_comment            
;
;

_publ_section_experimental       
;
;
_publ_section_references         
;
Bruker AXS (2001 / 2003). Bruker AXS Inc., Madison, Wisconsin, USA.

Crystal Impact (2001). DIAMOND 2.1. Crystal Impact GbR, Bonn, Germany.

Sheldrick, G. M. (1997). SHELXS/L-97. University of Gottingen, Germany.

;

_publ_section_table_legends      
;
;

_publ_section_figure_captions    
;
;
_publ_section_acknowledgements   
;
;
#=========================================================================

data_oxala
_database_code_depnum_ccdc_archive 'CCDC 277334'

_audit_creation_method           SHELXL-97
_chemical_name_systematic        
;
?
;
_chemical_name_common            ?
_chemical_melting_point          ?
_chemical_formula_moiety         ?
_chemical_formula_sum            'C48 H984 Mo132 N52 O852'
_chemical_formula_weight         28592.95

loop_
_atom_type_symbol
_atom_type_description
_atom_type_scat_dispersion_real
_atom_type_scat_dispersion_imag
_atom_type_scat_source
O O 0.0106 0.0060 'International Tables Vol C Tables 4.2.6.8 and 6.1.1.4'
Mo Mo -1.6832 0.6857 'International Tables Vol C Tables 4.2.6.8 and 6.1.1.4'
C C 0.0033 0.0016 'International Tables Vol C Tables 4.2.6.8 and 6.1.1.4'
H H 0.0000 0.0000 'International Tables Vol C Tables 4.2.6.8 and 6.1.1.4'
N N 0.0061 0.0033 'International Tables Vol C Tables 4.2.6.8 and 6.1.1.4'

_symmetry_cell_setting           rhombohedral
_symmetry_space_group_name_H-M   R-3

loop_
_symmetry_equiv_pos_as_xyz
'x, y, z'
'-y, x-y, z'
'-x+y, -x, z'
'x+2/3, y+1/3, z+1/3'
'-y+2/3, x-y+1/3, z+1/3'
'-x+y+2/3, -x+1/3, z+1/3'
'x+1/3, y+2/3, z+2/3'
'-y+1/3, x-y+2/3, z+2/3'
'-x+y+1/3, -x+2/3, z+2/3'
'-x, -y, -z'
'y, -x+y, -z'
'x-y, x, -z'
'-x+2/3, -y+1/3, -z+1/3'
'y+2/3, -x+y+1/3, -z+1/3'
'x-y+2/3, x+1/3, -z+1/3'
'-x+1/3, -y+2/3, -z+2/3'
'y+1/3, -x+y+2/3, -z+2/3'
'x-y+1/3, x+2/3, -z+2/3'

_cell_length_a                   32.6616(8)
_cell_length_b                   32.6616(8)
_cell_length_c                   73.307(3)
_cell_angle_alpha                90.00
_cell_angle_beta                 90.00
_cell_angle_gamma                120.00
_cell_volume                     67725(3)
_cell_formula_units_Z            3
_cell_measurement_temperature    183(2)
_cell_measurement_reflns_used    8088
_cell_measurement_theta_min      2.49
_cell_measurement_theta_max      26.99

_exptl_crystal_description       polyhedral
_exptl_crystal_colour            brown
_exptl_crystal_size_max          0.50
_exptl_crystal_size_mid          0.40
_exptl_crystal_size_min          0.40
_exptl_crystal_density_meas      ?
_exptl_crystal_density_diffrn    2.103
_exptl_crystal_density_method    'not measured'
_exptl_crystal_F_000             41988
_exptl_absorpt_coefficient_mu    1.886
_exptl_absorpt_correction_type   multi-scan
_exptl_absorpt_correction_T_min  0.4522
_exptl_absorpt_correction_T_max  0.5191
_exptl_absorpt_process_details   'SADABS 2.10 (Bruker AXS, 2003)'

_exptl_special_details           
;
?
;

_diffrn_ambient_temperature      183(2)
_diffrn_radiation_wavelength     0.71073
_diffrn_radiation_type           MoK\a
_diffrn_radiation_source         'fine-focus sealed tube'
_diffrn_radiation_monochromator  graphite
_diffrn_measurement_device_type  'Bruker AXS SMART 1K'
_diffrn_measurement_method       omega-scan
_diffrn_detector_area_resol_mean ?
_diffrn_standards_number         0
_diffrn_standards_interval_count 0
_diffrn_standards_interval_time  0
_diffrn_standards_decay_%        0
_diffrn_reflns_number            111107
_diffrn_reflns_av_R_equivalents  0.0354
_diffrn_reflns_av_sigmaI/netI    0.0307
_diffrn_reflns_limit_h_min       -41
_diffrn_reflns_limit_h_max       21
_diffrn_reflns_limit_k_min       -34
_diffrn_reflns_limit_k_max       41
_diffrn_reflns_limit_l_min       -93
_diffrn_reflns_limit_l_max       83
_diffrn_reflns_theta_min         1.47
_diffrn_reflns_theta_max         27.00
_reflns_number_total             31558
_reflns_number_gt                25654
_reflns_threshold_expression     >2sigma(I)

_computing_data_collection       'SMART (Bruker AXS, 2001)'
_computing_cell_refinement       'SAINT (Bruker AXS, 2001)'
_computing_data_reduction        'SAINT (Bruker AXS, 2001)'
_computing_structure_solution    'SHELXS-97 (Sheldrick, 1997)'
_computing_structure_refinement  'SHELXL-97 (Sheldrick, 1997)'
_computing_molecular_graphics    'DIAMOND 2.1 (Crystal Impact, 2001)'
_computing_publication_material  'SHELXL-97 (Sheldrick, 1997)'

_refine_special_details          
;
During the structure solution and refinement not all components of the crystal
lattice especially not all water molecules and cations could be found.
However, the formula (chemical_formula_sum) and derived quantities correspond
to what was found by chemical analysis, void volume calculations and by other
physical methods and NOT to the quantities, which can be derived from the
atom list in this file.

Refinement of F^2^ against ALL reflections. The weighted R-factor wR and
goodness of fit S are based on F^2^, conventional R-factors R are based
on F, with F set to zero for negative F^2^. The threshold expression of
F^2^ > 2sigma(F^2^) is used only for calculating R-factors(gt) etc. and is
not relevant to the choice of reflections for refinement. R-factors based
on F^2^ are statistically about twice as large as those based on F, and R-
factors based on ALL data will be even larger.
;

_refine_ls_structure_factor_coef Fsqd
_refine_ls_matrix_type           full
_refine_ls_weighting_scheme      calc
_refine_ls_weighting_details     
'calc w=1/[\s^2^(Fo^2^)+(0.0662P)^2^+1174.9880P] where P=(Fo^2^+2Fc^2^)/3'
_atom_sites_solution_primary     direct
_atom_sites_solution_secondary   difmap
_atom_sites_solution_hydrogens   ?
_refine_ls_hydrogen_treatment    noref
_refine_ls_extinction_method     none
_refine_ls_extinction_coef       ?
_refine_ls_number_reflns         31558
_refine_ls_number_parameters     1507
_refine_ls_number_restraints     0
_refine_ls_R_factor_all          0.0641
_refine_ls_R_factor_gt           0.0475
_refine_ls_wR_factor_ref         0.1537
_refine_ls_wR_factor_gt          0.1290
_refine_ls_goodness_of_fit_ref   1.170
_refine_ls_restrained_S_all      1.170
_refine_ls_shift/su_max          0.053
_refine_ls_shift/su_mean         0.010

loop_
_atom_site_label
_atom_site_type_symbol
_atom_site_fract_x
_atom_site_fract_y
_atom_site_fract_z
_atom_site_U_iso_or_equiv
_atom_site_adp_type
_atom_site_occupancy
_atom_site_symmetry_multiplicity
_atom_site_calc_flag
_atom_site_refinement_flags
_atom_site_disorder_assembly
_atom_site_disorder_group
Mo1 Mo 0.840512(18) 0.298477(19) 0.006565(7) 0.02921(12) Uani 1 1 d . . .
Mo2 Mo 0.922886(18) 0.359154(19) -0.005939(7) 0.02879(12) Uani 1 1 d . . .
Mo3 Mo 1.14854(2) 0.14934(2) 0.166992(9) 0.0316(2) Uani 0.966(3) 1 d P . .
M3B Mo 1.1404(5) 0.1418(5) 0.1558(3) 0.024(5) Uiso 0.034(3) 1 d P E .
Mo4 Mo 1.07143(2) 0.26341(2) 0.137484(9) 0.0303(2) Uani 0.982(3) 1 d P . .
M4B Mo 1.0660(10) 0.2462(12) 0.1291(5) 0.022(9) Uiso 0.018(3) 1 d P . .
Mo5 Mo 1.17137(2) 0.08403(2) 0.167040(9) 0.0303(2) Uani 0.961(3) 1 d P . .
M5B Mo 1.1635(6) 0.0779(6) 0.1554(3) 0.036(5) Uiso 0.039(3) 1 d P . .
Mo6 Mo 0.89148(2) 0.24438(2) 0.113526(8) 0.0306(2) Uani 0.967(3) 1 d P . .
M6B Mo 0.9001(5) 0.2277(6) 0.1073(2) 0.021(5) Uiso 0.033(3) 1 d P B .
Mo7 Mo 0.68985(2) 0.114980(19) 0.032342(8) 0.0301(2) Uani 0.981(3) 1 d P . .
Mo7B Mo 0.7091(11) 0.1066(10) 0.0299(3) 0.022(9) Uiso 0.019(3) 1 d P . .
Mo8 Mo 0.81709(2) 0.21494(2) 0.093248(8) 0.0308(2) Uani 0.955(3) 1 d P . .
M8B Mo 0.8269(5) 0.1997(6) 0.0876(2) 0.035(5) Uiso 0.045(3) 1 d P B .
Mo9 Mo 0.64571(2) -0.01774(2) 0.092858(8) 0.03261(12) Uani 1 1 d . . .
Mo10 Mo 0.65504(2) -0.07711(2) 0.113325(8) 0.03287(12) Uani 1 1 d . . .
Mo11 Mo 0.59641(2) -0.29437(2) 0.080638(7) 0.03136(12) Uani 1 1 d . . .
Mo12 Mo 0.956494(19) 0.20505(3) 0.144725(13) 0.0282(2) Uani 0.966(4) 1 d P . .
M12B Mo 0.9560(6) 0.1933(8) 0.1370(4) 0.026(6) Uiso 0.034(4) 1 d P . .
Mo13 Mo 0.70761(4) 0.10765(2) 0.076215(11) 0.0291(3) Uani 0.883(5) 1 d P . .
M13B Mo 0.7233(3) 0.1025(2) 0.07336(8) 0.0279(17) Uiso 0.117(5) 1 d P . .
Mo14 Mo 0.56570(2) -0.31622(2) 0.047553(7) 0.03188(12) Uani 1 1 d . . .
Mo15 Mo 0.61782(3) 0.00555(2) 0.045587(9) 0.0286(3) Uani 0.903(4) 1 d P . .
M15B Mo 0.6371(3) 0.0017(2) 0.04347(7) 0.0230(19) Uiso 0.097(4) 1 d P . .
Mo16 Mo 1.02406(2) 0.31594(3) 0.114368(12) 0.0285(3) Uani 0.938(4) 1 d P . .
M16B Mo 1.0215(3) 0.3002(4) 0.10782(18) 0.022(3) Uiso 0.062(4) 1 d P . .
Mo17 Mo 1.17017(3) 0.26159(4) 0.144410(17) 0.0299(3) Uani 0.844(5) 1 d P . .
M17B Mo 1.16391(15) 0.2476(2) 0.13718(9) 0.0274(13) Uiso 0.156(5) 1 d P . .
Mo18 Mo 0.63236(5) 0.05329(2) -0.003850(8) 0.0283(3) Uani 0.892(6) 1 d P . .
M18B Mo 0.6479(3) 0.0479(2) -0.00403(7) 0.0249(18) Uiso 0.108(6) 1 d P . .
Mo19 Mo 1.04650(2) 0.17153(3) 0.163382(16) 0.0290(3) Uani 0.910(5) 1 d P . .
M19B Mo 1.0434(2) 0.1601(3) 0.15563(16) 0.028(2) Uiso 0.090(5) 1 d P . .
Mo20 Mo 0.77573(3) 0.21850(2) 0.045776(9) 0.0287(3) Uani 0.877(4) 1 d P . .
M20B Mo 0.7909(2) 0.20950(18) 0.04391(6) 0.0240(15) Uiso 0.123(4) 1 d P . .
Mo21 Mo 0.64864(3) -0.19505(3) 0.114493(13) 0.0290(3) Uani 0.898(4) 1 d P . .
M21B Mo 0.6649(3) -0.1844(2) 0.10762(12) 0.0264(19) Uiso 0.102(4) 1 d P . .
Mo22 Mo 0.72940(4) 0.18462(3) -0.003669(8) 0.0283(3) Uani 0.902(5) 1 d P . .
M22B Mo 0.7445(3) 0.1771(2) -0.00416(8) 0.025(2) Uiso 0.098(5) 1 d P . .
O1 O 0.74208(16) 0.17772(15) 0.02339(6) 0.0332(10) Uani 1 1 d . . .
O2 O 0.98834(16) 0.12181(16) 0.16708(7) 0.0359(10) Uani 1 1 d . . .
O3 O 1.13851(16) 0.29137(16) 0.12930(6) 0.0329(9) Uani 1 1 d . . .
O4 O 1.08440(15) 0.31161(16) 0.11817(6) 0.0324(9) Uani 1 1 d . . .
O5 O 0.75829(17) 0.15017(17) 0.08876(6) 0.0384(11) Uani 1 1 d . . .
O6 O 0.86644(15) 0.31048(16) -0.01799(6) 0.0346(10) Uani 1 1 d . . .
O7 O 0.68977(18) -0.00853(16) 0.11227(7) 0.0418(11) Uani 1 1 d . . .
O8 O 0.59796(16) -0.01006(15) -0.00472(6) 0.0336(10) Uani 1 1 d . . .
O9 O 0.73335(16) 0.14899(15) 0.05319(6) 0.0336(10) Uani 1 1 d . . .
O10 O 0.64908(17) 0.13038(16) 0.03653(6) 0.0358(10) Uani 1 1 d . . .
O11 O 0.78320(15) 0.24000(16) -0.00430(6) 0.0338(10) Uani 1 1 d . . .
O12 O 0.96228(16) 0.29052(17) 0.10960(7) 0.0371(10) Uani 1 1 d . . .
O13 O 1.08533(16) 0.14843(17) 0.16719(7) 0.0374(10) Uani 1 1 d . . .
O14 O 0.80649(16) 0.22925(17) 0.06695(6) 0.0364(10) Uani 1 1 d . . .
O15 O 0.64651(16) 0.04914(15) 0.02315(6) 0.0342(10) Uani 1 1 d . . .
O16 O 0.83255(17) 0.18449(17) 0.11265(7) 0.0385(11) Uani 1 1 d . . .
O17 O 0.68822(17) 0.11582(15) 0.00495(6) 0.0353(10) Uani 1 1 d . . .
O18 O 0.90132(16) 0.33519(17) 0.01857(6) 0.0363(10) Uani 1 1 d . . .
O19 O 0.91731(17) 0.40761(17) -0.00705(7) 0.0378(10) Uani 1 1 d . . .
O20 O 0.60156(18) -0.33564(18) 0.06280(6) 0.0389(11) Uani 1 1 d . . .
O21 O 0.67443(16) 0.06943(15) 0.05318(6) 0.0332(10) Uani 1 1 d . . .
O22 O 1.00974(15) 0.25689(16) 0.12932(6) 0.0326(9) Uani 1 1 d . . .
O23 O 0.88173(16) 0.26635(18) 0.09018(6) 0.0377(10) Uani 1 1 d . . .
O24 O 1.01793(16) 0.20273(16) 0.14741(6) 0.0332(9) Uani 1 1 d . . .
O25 O 0.62328(18) -0.08484(17) 0.09013(7) 0.0390(11) Uani 1 1 d . . .
O26 O 1.09767(16) 0.22429(16) 0.14752(6) 0.0329(9) Uani 1 1 d . . .
O27 O 0.64883(18) 0.07106(16) -0.02703(6) 0.0379(10) Uani 1 1 d . . .
O28 O 0.68694(18) 0.05359(16) 0.08833(7) 0.0385(11) Uani 1 1 d . . .
O29 O 0.62257(17) -0.01951(16) 0.06670(6) 0.0354(10) Uani 1 1 d . . .
O30 O 0.78989(18) 0.24000(19) 0.10377(7) 0.0411(11) Uani 1 1 d . . .
O31 O 1.05308(16) 0.35751(17) 0.09620(6) 0.0358(10) Uani 1 1 d . . .
O32 O 1.17350(17) 0.21244(17) 0.15337(7) 0.0381(10) Uani 1 1 d . . .
O33 O 0.58854(17) -0.04392(15) 0.03039(6) 0.0355(10) Uani 1 1 d . . .
O34 O 0.71872(17) 0.16502(16) -0.02694(6) 0.0371(10) Uani 1 1 d . . .
O35 O 0.81704(16) 0.26411(16) 0.03101(6) 0.0363(10) Uani 1 1 d . . .
O36 O 0.92416(17) 0.14624(17) 0.15379(7) 0.0374(10) Uani 1 1 d . . .
O37 O 1.11137(17) 0.08136(17) 0.17088(7) 0.0404(11) Uani 1 1 d . . .
O38 O 0.61270(19) -0.08939(19) 0.12893(7) 0.0437(11) Uani 1 1 d . . .
O39 O 1.22261(17) 0.29358(18) 0.13123(7) 0.0388(11) Uani 1 1 d . . .
O40 O 0.57542(17) 0.01946(18) 0.04987(7) 0.0402(11) Uani 1 1 d . . .
O41 O 0.61794(18) -0.23504(17) 0.09631(6) 0.0378(10) Uani 1 1 d . . .
O42 O 0.57600(19) -0.26354(17) 0.06301(6) 0.0376(10) Uani 1 1 d . . .
O43 O 1.03208(18) 0.35165(18) 0.13243(7) 0.0411(11) Uani 1 1 d . . .
O44 O 0.60102(19) -0.01595(18) 0.10358(7) 0.0413(11) Uani 1 1 d . . .
O45 O 1.16606(18) 0.17214(19) 0.18788(7) 0.0421(11) Uani 1 1 d . . .
O46 O 1.19461(19) 0.09089(18) 0.18807(7) 0.0418(11) Uani 1 1 d . . .
O47 O 1.20255(17) 0.14751(17) 0.15669(7) 0.0389(11) Uani 1 1 d . . .
O48 O 0.64232(18) -0.14466(17) 0.10981(7) 0.0374(10) Uani 1 1 d . . .
O49 O 0.50874(19) -0.35767(19) 0.05144(7) 0.0423(11) Uani 1 1 d . . .
O50 O 1.08081(17) 0.29760(17) 0.15563(6) 0.0363(10) Uani 1 1 d . . .
O51 O 0.91406(16) 0.21198(17) 0.13173(7) 0.0365(10) Uani 1 1 d . . .
O52 O 0.88209(18) 0.27656(19) 0.12902(7) 0.0410(11) Uani 1 1 d . . .
O53 O 0.61219(19) -0.22070(18) 0.13243(7) 0.0418(11) Uani 1 1 d . . .
O54 O 0.59006(18) 0.06814(18) -0.00017(7) 0.0414(11) Uani 1 1 d . . .
O55 O 0.73589(18) 0.23599(19) 0.05016(7) 0.0431(11) Uani 1 1 d . . .
O56 O 1.05845(18) 0.21562(18) 0.11218(7) 0.0396(11) Uani 1 1 d . . .
O57 O 0.81547(17) 0.33263(17) 0.00822(7) 0.0386(10) Uani 1 1 d . . .
O58 O 0.7080(2) -0.1588(2) 0.09112(7) 0.0450(12) Uani 1 1 d . . .
O59 O 1.18158(19) 0.29652(19) 0.16303(7) 0.0429(11) Uani 1 1 d . . .
O60 O 0.96431(18) 0.23916(18) 0.16322(7) 0.0399(11) Uani 1 1 d . . .
O61 O 0.54701(18) -0.33048(19) 0.09244(7) 0.0421(11) Uani 1 1 d . . .
O62 O 1.0162(2) 0.2607(2) 0.09084(7) 0.0474(12) Uani 1 1 d . . .
O63 O 0.66647(18) 0.12304(19) 0.08151(7) 0.0434(11) Uani 1 1 d . . .
O64 O 0.76384(19) 0.0863(2) 0.06501(8) 0.0466(12) Uani 1 1 d . . .
O65 O 0.68452(19) -0.00415(19) 0.03822(8) 0.0451(12) Uani 1 1 d . . .
O66 O 1.05502(19) 0.20464(19) 0.18224(7) 0.0431(11) Uani 1 1 d . . .
O67 O 1.0359(2) 0.1320(2) 0.13448(7) 0.0477(12) Uani 1 1 d . . .
O68 O 1.1454(2) 0.2126(2) 0.11779(7) 0.0487(13) Uani 1 1 d . . .
O69 O 0.6418(2) -0.2606(2) 0.03832(7) 0.0500(13) Uani 1 1 d . A .
O70 O 0.9562(2) 0.1621(2) 0.11783(7) 0.0488(13) Uani 1 1 d . . .
O71 O 0.6698(2) -0.2408(2) 0.06732(7) 0.0502(13) Uani 1 1 d . A .
O72 O 0.82445(19) 0.1848(2) 0.03827(8) 0.0465(12) Uani 1 1 d . . .
O73 O 0.6965(2) 0.03789(19) -0.00577(8) 0.0480(12) Uani 1 1 d . . .
O74 O 0.9139(2) 0.2021(2) 0.09401(8) 0.0521(14) Uani 1 1 d . B .
O75 O 0.8480(2) 0.1759(2) 0.07589(8) 0.0537(14) Uani 1 1 d . B .
O76 O 0.9394(2) 0.29729(19) -0.00566(8) 0.0491(13) Uani 1 1 d . C .
O77 O 0.74651(18) 0.09322(18) 0.02641(7) 0.0412(11) Uani 1 1 d . . .
O78 O 0.86698(19) 0.2437(2) 0.00557(8) 0.0499(13) Uani 1 1 d . C .
O79 O 1.1206(2) 0.1243(2) 0.13723(8) 0.0513(13) Uani 1 1 d . E .
O80 O 1.1415(2) 0.0666(2) 0.13732(8) 0.0513(13) Uani 1 1 d . E .
O81 O 0.7157(2) -0.0667(2) 0.09356(8) 0.0544(14) Uani 1 1 d . D .
O82 O 0.7072(2) -0.0138(2) 0.07548(8) 0.0550(14) Uani 1 1 d . D .
O83 O 0.68820(18) 0.20113(18) -0.00003(7) 0.0420(11) Uani 1 1 d . . .
O84 O 0.78358(19) 0.1549(2) -0.00556(8) 0.0479(12) Uani 1 1 d . . .
C1 C 0.6727(3) -0.2382(4) 0.05028(12) 0.045(2) Uani 0.80 1 d P . .
C2 C 0.7197(7) -0.1977(8) 0.0432(3) 0.044(4) Uiso 0.40 1 d P A 1
O85 O 0.7482(8) -0.1704(8) 0.0539(3) 0.082(5) Uiso 0.40 1 d P A 1
O86 O 0.7214(8) -0.1872(8) 0.0265(3) 0.085(6) Uiso 0.40 1 d P A 1
C2B C 0.7270(11) -0.2133(11) 0.0429(4) 0.068(7) Uiso 0.40 1 d P A 2
O85B O 0.7572(8) -0.1941(8) 0.0540(3) 0.079(5) Uiso 0.40 1 d P A 2
O86B O 0.7313(7) -0.2147(7) 0.0267(3) 0.078(5) Uiso 0.40 1 d P A 2
C3 C 0.8860(4) 0.1792(4) 0.08095(15) 0.054(3) Uani 0.80 1 d P . .
C4 C 0.9089(11) 0.1626(11) 0.0666(4) 0.067(7) Uiso 0.40 1 d P B 1
O87 O 0.9505(8) 0.1705(9) 0.0689(3) 0.089(6) Uiso 0.40 1 d P B 1
O88 O 0.8873(8) 0.1456(9) 0.0521(3) 0.089(6) Uiso 0.40 1 d P B 1
C4B C 0.8968(9) 0.1432(10) 0.0715(3) 0.056(5) Uiso 0.40 1 d P B 2
O87B O 0.9314(8) 0.1399(8) 0.0768(3) 0.081(5) Uiso 0.40 1 d P B 2
O88B O 0.8693(8) 0.1168(8) 0.0606(3) 0.087(6) Uiso 0.40 1 d P B 2
C5 C 0.9072(3) 0.2574(3) 0.00009(15) 0.045(2) Uani 0.80 1 d P . .
C6 C 0.9254(9) 0.2212(9) 0.0038(4) 0.054(5) Uiso 0.40 1 d P C 1
O89 O 0.8980(8) 0.1839(8) 0.0112(3) 0.081(5) Uiso 0.40 1 d P C 1
O90 O 0.9674(7) 0.2345(7) 0.0008(3) 0.075(5) Uiso 0.40 1 d P C 1
C6B C 0.9180(9) 0.2159(9) -0.0040(4) 0.058(6) Uiso 0.40 1 d P C 2
O89B O 0.8862(8) 0.1747(8) -0.0019(3) 0.082(5) Uiso 0.40 1 d P C 2
O90B O 0.9553(8) 0.2262(7) -0.0115(3) 0.081(5) Uiso 0.40 1 d P C 2
C7 C 0.7246(4) -0.0388(4) 0.08037(15) 0.055(3) Uani 0.80 1 d P . .
C8 C 0.7702(9) -0.0282(9) 0.0698(3) 0.052(5) Uiso 0.40 1 d P D 1
O91 O 0.7966(9) -0.0430(9) 0.0765(3) 0.098(7) Uiso 0.40 1 d P D 1
O92 O 0.7862(9) 0.0046(9) 0.0583(3) 0.091(6) Uiso 0.40 1 d P D 1
C8B C 0.7528(11) -0.0484(11) 0.0645(4) 0.068(7) Uiso 0.40 1 d P D 2
O91B O 0.7732(8) -0.0695(8) 0.0683(3) 0.080(5) Uiso 0.40 1 d P D 2
O92B O 0.7642(8) -0.0216(8) 0.0508(3) 0.077(5) Uiso 0.40 1 d P D 2
C9 C 1.1242(4) 0.0913(4) 0.13088(13) 0.050(2) Uani 0.80 1 d P . .
C10 C 1.1161(10) 0.0840(10) 0.1096(4) 0.059(6) Uiso 0.40 1 d P E 1
O93 O 1.1236(8) 0.0558(8) 0.1019(3) 0.078(5) Uiso 0.40 1 d P E 1
O94 O 1.1087(9) 0.1140(9) 0.1013(3) 0.093(6) Uiso 0.40 1 d P E 1
C10B C 1.0944(11) 0.0682(11) 0.1134(4) 0.068(7) Uiso 0.40 1 d P E 2
O93B O 1.0931(9) 0.0324(9) 0.1067(3) 0.092(6) Uiso 0.40 1 d P E 2
O94B O 1.0750(8) 0.0888(8) 0.1063(3) 0.086(6) Uiso 0.40 1 d P E 2
O95 O 0.8329(4) -0.1696(4) 0.04872(15) 0.050(3) Uiso 0.50 1 d P . .
O96 O 0.8046(4) -0.0969(4) 0.04868(16) 0.054(3) Uiso 0.50 1 d P . .
O97 O 1.0052(4) 0.2005(4) 0.01202(16) 0.053(3) Uiso 0.50 1 d P . .
O98 O 0.8246(4) -0.2053(4) -0.02559(16) 0.054(3) Uiso 0.50 1 d P . .
O99 O 0.7719(5) -0.1187(5) 0.01303(19) 0.069(4) Uiso 0.50 1 d P . .
O100 O 0.9205(5) -0.1347(5) 0.07202(17) 0.060(3) Uiso 0.50 1 d P . .
O101 O 0.9193(5) 0.1378(5) 0.02535(19) 0.069(4) Uiso 0.50 1 d P . .
O102 O 1.0394(6) -0.0151(6) 0.0860(2) 0.076(4) Uiso 0.50 1 d P . .
O103 O 0.8596(6) 0.0448(6) 0.0497(2) 0.082(4) Uiso 0.50 1 d P . .
O104 O 0.8701(7) -0.0190(7) 0.0714(2) 0.094(5) Uiso 0.50 1 d P . .
O105 O 0.955(2) 0.140(2) 0.0019(8) 0.31(3) Uiso 0.50 1 d P . .
O106 O 0.825(2) -0.123(2) 0.0296(7) 0.28(2) Uiso 0.50 1 d P . .
O107 O 0.4136(5) -0.1545(5) -0.0122(2) 0.066(3) Uiso 0.50 1 d P . .
O108 O 0.5024(5) 0.0054(5) 0.02004(17) 0.129(4) Uiso 1 1 d . . .
O109 O 0.7096(6) 0.2871(6) 0.0244(2) 0.173(6) Uiso 1 1 d . . .
O110 O 1.2934(5) 0.2153(6) 0.1637(2) 0.071(4) Uiso 0.50 1 d P . .
O111 O 0.4662(6) -0.4591(6) 0.0414(2) 0.179(6) Uiso 1 1 d . . .
O112 O 0.9472(7) 0.3808(7) 0.1370(3) 0.093(5) Uiso 0.50 1 d P . .
O113 O 0.7766(6) 0.1462(6) 0.1417(2) 0.081(4) Uiso 0.50 1 d P . .
O114 O 0.6809(7) 0.1878(7) 0.1158(3) 0.098(5) Uiso 0.50 1 d P . .
O115 O 0.8456(7) 0.1016(7) 0.1228(3) 0.103(6) Uiso 0.50 1 d P . .
O116 O 0.5922(9) -0.1687(9) 0.1611(3) 0.122(7) Uiso 0.50 1 d P . .
O117 O 0.6190(11) 0.2388(10) 0.0316(4) 0.291(12) Uiso 1 1 d . . .
O118 O 0.6880(10) 0.2278(9) 0.0834(3) 0.126(8) Uiso 0.50 1 d P . .
O119 O 1.1425(9) 0.2589(9) 0.2014(3) 0.128(8) Uiso 0.50 1 d P . .
O120 O 0.6221(10) -0.1626(10) 0.0675(4) 0.137(8) Uiso 0.50 1 d P . .
O121 O 0.7142(13) 0.3061(13) -0.0105(5) 0.188(13) Uiso 0.50 1 d P . .
O122 O 0.7623(11) 0.3094(11) 0.1139(4) 0.157(10) Uiso 0.50 1 d P . .
O123 O 0.6645(8) -0.3589(8) 0.0421(3) 0.116(7) Uiso 0.50 1 d P . .
O124 O 0.8225(10) 0.2243(10) -0.0416(4) 0.148(9) Uiso 0.50 1 d P . .
O125 O 0.4164(12) -0.1732(12) 0.0264(4) 0.170(11) Uiso 0.50 1 d P . .
O126 O 0.4425(13) -0.4003(13) 0.0836(5) 0.190(13) Uiso 0.50 1 d P . .
O127 O 0.5603(11) -0.1248(11) 0.0569(4) 0.156(10) Uiso 0.50 1 d P . .
O128 O 0.4312(13) -0.3281(13) 0.0398(5) 0.188(13) Uiso 0.50 1 d P . .
O129 O 0.9376(13) 0.4153(12) 0.0393(5) 0.174(12) Uiso 0.50 1 d P . .
O130 O 1.1747(12) -0.1063(11) 0.2470(4) 0.164(11) Uiso 0.50 1 d P . .
O131 O 0.9741(13) 0.3133(12) 0.0665(5) 0.172(11) Uiso 0.50 1 d P . .
O132 O 0.5413(17) -0.4058(17) 0.1217(6) 0.241(19) Uiso 0.50 1 d P . .
O133 O 1.0299(16) 0.4104(16) 0.1628(6) 0.228(17) Uiso 0.50 1 d P . .
O134 O 0.5866(16) -0.2997(16) 0.1604(6) 0.229(17) Uiso 0.50 1 d P . .
O135 O 0.6690(13) -0.4384(13) 0.0594(5) 0.183(12) Uiso 0.50 1 d P . .
O136 O 0.5682(13) -0.1877(13) 0.0783(5) 0.186(13) Uiso 0.50 1 d P . .
O137 O 1.2969(10) 0.1884(10) 0.1688(4) 0.133(8) Uiso 0.50 1 d P . .
O138 O 1.0128(13) 0.0430(13) 0.1573(5) 0.189(13) Uiso 0.50 1 d P . .
O139 O 0.8043(9) 0.1691(9) 0.1503(3) 0.122(7) Uiso 0.50 1 d P . .
O140 O 1.1333(14) 0.2990(15) 0.1960(5) 0.203(14) Uiso 0.50 1 d P . .
O141 O 0.8874(11) 0.2698(12) -0.0496(4) 0.163(11) Uiso 0.50 1 d P . .
O142 O 1.014(2) 0.0545(19) 0.1807(8) 0.27(2) Uiso 0.50 1 d P . .
O143 O 1.0379(14) 0.2994(14) 0.1921(5) 0.195(14) Uiso 0.50 1 d P . .
O144 O 0.9082(14) 0.4360(14) 0.0374(5) 0.193(13) Uiso 0.50 1 d P . .
O145 O 0.7711(16) 0.0828(15) 0.1124(6) 0.223(17) Uiso 0.50 1 d P . .
O146 O 0.6115(13) -0.2622(13) 0.1928(5) 0.188(13) Uiso 0.50 1 d P . .
O147 O 0.675(2) 0.262(2) 0.1301(7) 0.26(2) Uiso 0.50 1 d P . .
O148 O 0.4076(12) -0.1567(12) -0.0006(5) 0.160(11) Uiso 0.50 1 d P . .
O149 O 1.1374(17) -0.0932(17) 0.2631(6) 0.232(18) Uiso 0.50 1 d P . .
O150 O 0.6554(17) 0.2037(17) 0.0741(6) 0.224(17) Uiso 0.50 1 d P . .
O151 O 0.6876(18) 0.0984(19) 0.1280(6) 0.238(19) Uiso 0.50 1 d P . .
O152 O 0.717(3) 0.317(3) 0.1271(10) 0.36(3) Uiso 0.50 1 d P . .
O153 O 1.0189(18) 0.4522(18) 0.0643(7) 0.25(2) Uiso 0.50 1 d P . .
O154 O 0.6955(14) 0.1365(16) 0.1258(5) 0.193(14) Uiso 0.50 1 d P . .
O155 O 0.5304(17) -0.1924(17) 0.1434(6) 0.240(18) Uiso 0.50 1 d P . .
O156 O 1.1918(16) -0.1658(16) 0.2506(6) 0.222(16) Uiso 0.50 1 d P . .
O157 O 0.8616(15) 0.3548(15) 0.1050(5) 0.215(16) Uiso 0.50 1 d P . .
O158 O 0.9560(12) 0.3401(12) 0.1617(5) 0.172(11) Uiso 0.50 1 d P . .
O159 O 0.499(2) -0.278(2) 0.1191(9) 0.33(3) Uiso 0.50 1 d P . .
O160 O 0.6667 0.3333 0.0809(18) 0.38(6) Uiso 0.50 3 d SP . .
O161 O 1.0391(19) 0.3485(18) 0.1766(7) 0.26(2) Uiso 0.50 1 d P . .
O162 O 0.9295(19) 0.3649(19) 0.0943(7) 0.27(2) Uiso 0.50 1 d P . .
O163 O 0.505(2) -0.095(2) 0.0670(7) 0.27(2) Uiso 0.50 1 d P . .
O164 O 0.4729(19) -0.1898(18) 0.0365(7) 0.26(2) Uiso 0.50 1 d P . .
O165 O 0.7095(17) -0.3809(17) 0.0514(6) 0.228(17) Uiso 0.50 1 d P . .
O166 O 0.9677(18) 0.3313(16) 0.1777(7) 0.232(18) Uiso 0.50 1 d P . .
O167 O 0.496(2) -0.257(2) 0.0617(9) 0.32(3) Uiso 0.50 1 d P . .
O168 O 0.6131(18) 0.2153(17) 0.1263(6) 0.234(18) Uiso 0.50 1 d P . .
O169 O 0.852(2) 0.423(2) 0.1147(7) 0.28(2) Uiso 0.50 1 d P . .
O170 O 0.5475(11) -0.3247(11) 0.1361(4) 0.154(10) Uiso 0.50 1 d P . .

loop_
_atom_site_aniso_label
_atom_site_aniso_U_11
_atom_site_aniso_U_22
_atom_site_aniso_U_33
_atom_site_aniso_U_23
_atom_site_aniso_U_13
_atom_site_aniso_U_12
Mo1 0.0222(2) 0.0236(2) 0.0363(3) 0.00006(19) 0.00188(19) 0.0073(2)
Mo2 0.0205(2) 0.0257(3) 0.0358(3) 0.0006(2) 0.00165(19) 0.0083(2)
Mo3 0.0285(3) 0.0283(3) 0.0402(5) 0.0004(2) 0.0006(2) 0.0158(2)
Mo4 0.0251(3) 0.0320(3) 0.0351(4) 0.0029(3) 0.0022(2) 0.0153(2)
Mo5 0.0290(3) 0.0263(3) 0.0370(4) -0.0003(2) 0.0000(2) 0.0147(2)
Mo6 0.0241(3) 0.0305(3) 0.0350(3) -0.0013(2) -0.0033(2) 0.0120(2)
Mo7 0.0286(3) 0.0225(3) 0.0324(3) 0.0004(2) -0.0032(2) 0.0076(2)
Mo8 0.0242(3) 0.0302(3) 0.0339(3) -0.0013(2) -0.0037(2) 0.0106(2)
Mo9 0.0355(3) 0.0266(3) 0.0367(3) 0.0022(2) -0.0039(2) 0.0162(2)
Mo10 0.0363(3) 0.0271(3) 0.0376(3) 0.0018(2) -0.0038(2) 0.0177(2)
Mo11 0.0350(3) 0.0311(3) 0.0315(3) -0.0020(2) -0.0031(2) 0.0192(2)
Mo12 0.0242(3) 0.0277(3) 0.0327(5) 0.0009(3) 0.0009(2) 0.0130(2)
Mo13 0.0268(5) 0.0236(3) 0.0330(4) 0.0004(2) -0.0028(3) 0.0097(3)
Mo14 0.0374(3) 0.0322(3) 0.0313(3) -0.0015(2) -0.0030(2) 0.0214(2)
Mo15 0.0275(4) 0.0221(3) 0.0332(3) 0.0003(2) -0.0027(2) 0.0100(2)
Mo16 0.0235(3) 0.0301(4) 0.0318(4) 0.0009(3) 0.0008(2) 0.0134(2)
Mo17 0.0255(3) 0.0314(4) 0.0344(6) 0.0030(4) 0.0021(3) 0.0153(3)
Mo18 0.0280(5) 0.0205(3) 0.0315(3) -0.0002(2) -0.0012(2) 0.0086(3)
Mo19 0.0251(3) 0.0292(4) 0.0333(6) 0.0006(3) 0.0012(2) 0.0140(3)
Mo20 0.0246(4) 0.0239(3) 0.0322(3) 0.0000(2) -0.0015(2) 0.0080(3)
Mo21 0.0306(4) 0.0260(3) 0.0327(5) -0.0002(3) -0.0010(3) 0.0159(3)
Mo22 0.0248(4) 0.0219(3) 0.0320(3) -0.0004(2) -0.0008(2) 0.0071(3)
O1 0.030(2) 0.025(2) 0.034(2) 0.0001(17) -0.0024(17) 0.0052(18)
O2 0.029(2) 0.029(2) 0.047(3) 0.0022(19) 0.0001(19) 0.013(2)
O3 0.027(2) 0.033(2) 0.041(2) 0.0094(18) 0.0040(18) 0.0168(19)
O4 0.025(2) 0.035(2) 0.037(2) 0.0046(18) 0.0026(17) 0.0155(19)
O5 0.034(2) 0.035(3) 0.038(2) 0.0017(19) -0.0081(19) 0.011(2)
O6 0.024(2) 0.033(2) 0.036(2) -0.0033(18) 0.0003(17) 0.0064(19)
O7 0.043(3) 0.023(2) 0.052(3) 0.003(2) -0.014(2) 0.011(2)
O8 0.033(2) 0.024(2) 0.039(2) -0.0027(17) -0.0029(18) 0.0096(19)
O9 0.029(2) 0.025(2) 0.035(2) 0.0010(17) -0.0042(17) 0.0054(18)
O10 0.035(2) 0.027(2) 0.038(2) -0.0010(18) -0.0033(19) 0.011(2)
O11 0.024(2) 0.026(2) 0.038(2) 0.0013(17) 0.0032(17) 0.0023(18)
O12 0.025(2) 0.038(3) 0.043(3) 0.004(2) -0.0029(18) 0.012(2)
O13 0.029(2) 0.038(3) 0.049(3) 0.003(2) 0.0006(19) 0.019(2)
O14 0.030(2) 0.037(3) 0.034(2) -0.0003(18) -0.0033(18) 0.010(2)
O15 0.034(2) 0.024(2) 0.035(2) 0.0004(17) -0.0041(18) 0.0078(19)
O16 0.029(2) 0.034(2) 0.045(3) 0.005(2) -0.0047(19) 0.010(2)
O17 0.034(2) 0.023(2) 0.036(2) 0.0030(17) -0.0017(18) 0.0037(19)
O18 0.025(2) 0.034(2) 0.038(2) 0.0043(19) -0.0005(18) 0.0057(19)
O19 0.030(2) 0.032(2) 0.048(3) 0.000(2) 0.001(2) 0.013(2)
O20 0.048(3) 0.042(3) 0.039(2) -0.003(2) -0.004(2) 0.031(2)
O21 0.031(2) 0.022(2) 0.036(2) -0.0021(17) -0.0065(18) 0.0055(18)
O22 0.024(2) 0.034(2) 0.040(2) 0.0074(18) 0.0037(17) 0.0145(19)
O23 0.025(2) 0.040(3) 0.040(2) 0.004(2) -0.0028(18) 0.009(2)
O24 0.026(2) 0.031(2) 0.042(2) 0.0050(18) 0.0028(18) 0.0143(19)
O25 0.047(3) 0.029(2) 0.042(3) 0.0011(19) -0.007(2) 0.020(2)
O26 0.026(2) 0.034(2) 0.040(2) 0.0045(18) 0.0050(18) 0.0158(19)
O27 0.041(3) 0.029(2) 0.034(2) 0.0002(18) 0.0015(19) 0.010(2)
O28 0.041(3) 0.028(2) 0.040(3) 0.0021(19) -0.004(2) 0.013(2)
O29 0.039(3) 0.029(2) 0.035(2) 0.0010(18) -0.0031(19) 0.014(2)
O30 0.039(3) 0.044(3) 0.038(3) -0.003(2) -0.001(2) 0.020(2)
O31 0.030(2) 0.040(3) 0.039(2) 0.0067(19) 0.0028(18) 0.018(2)
O32 0.035(2) 0.037(3) 0.048(3) 0.008(2) 0.003(2) 0.022(2)
O33 0.039(3) 0.021(2) 0.040(2) -0.0014(17) -0.0051(19) 0.0106(19)
O34 0.038(3) 0.029(2) 0.034(2) -0.0025(18) -0.0023(19) 0.009(2)
O35 0.029(2) 0.032(2) 0.035(2) 0.0037(18) 0.0020(18) 0.0055(19)
O36 0.030(2) 0.032(2) 0.049(3) 0.005(2) -0.0003(19) 0.014(2)
O37 0.030(2) 0.031(2) 0.058(3) 0.004(2) 0.003(2) 0.014(2)
O38 0.045(3) 0.041(3) 0.050(3) 0.001(2) -0.001(2) 0.025(2)
O39 0.029(2) 0.042(3) 0.047(3) 0.007(2) 0.0067(19) 0.020(2)
O40 0.033(3) 0.037(3) 0.048(3) -0.003(2) -0.003(2) 0.016(2)
O41 0.044(3) 0.035(3) 0.039(2) -0.0069(19) -0.008(2) 0.023(2)
O42 0.051(3) 0.035(2) 0.038(2) -0.0029(19) -0.007(2) 0.029(2)
O43 0.042(3) 0.041(3) 0.041(3) -0.004(2) -0.001(2) 0.022(2)
O44 0.044(3) 0.038(3) 0.044(3) 0.001(2) -0.001(2) 0.021(2)
O45 0.039(3) 0.042(3) 0.049(3) -0.004(2) -0.006(2) 0.024(2)
O46 0.043(3) 0.035(3) 0.046(3) -0.004(2) -0.004(2) 0.019(2)
O47 0.034(3) 0.034(2) 0.054(3) 0.007(2) 0.008(2) 0.021(2)
O48 0.043(3) 0.032(2) 0.045(3) -0.0003(19) -0.005(2) 0.024(2)
O49 0.045(3) 0.045(3) 0.041(3) 0.001(2) -0.001(2) 0.025(2)
O50 0.033(2) 0.035(2) 0.041(3) 0.0035(19) -0.0010(19) 0.017(2)
O51 0.029(2) 0.035(2) 0.044(3) 0.0023(19) -0.0021(19) 0.015(2)
O52 0.037(3) 0.045(3) 0.041(3) -0.001(2) -0.001(2) 0.020(2)
O53 0.044(3) 0.039(3) 0.042(3) -0.001(2) 0.003(2) 0.021(2)
O54 0.042(3) 0.037(3) 0.048(3) 0.000(2) -0.001(2) 0.022(2)
O55 0.038(3) 0.043(3) 0.051(3) 0.003(2) 0.001(2) 0.022(2)
O56 0.036(3) 0.040(3) 0.043(3) 0.000(2) 0.002(2) 0.019(2)
O57 0.032(2) 0.031(2) 0.051(3) 0.000(2) 0.004(2) 0.015(2)
O58 0.048(3) 0.047(3) 0.043(3) 0.005(2) 0.005(2) 0.026(3)
O59 0.043(3) 0.043(3) 0.041(3) -0.004(2) -0.002(2) 0.020(2)
O60 0.039(3) 0.042(3) 0.041(3) 0.000(2) 0.005(2) 0.021(2)
O61 0.040(3) 0.043(3) 0.045(3) -0.001(2) -0.002(2) 0.022(2)
O62 0.049(3) 0.050(3) 0.045(3) -0.006(2) -0.001(2) 0.026(3)
O63 0.038(3) 0.042(3) 0.053(3) -0.002(2) 0.001(2) 0.022(2)
O64 0.043(3) 0.048(3) 0.054(3) 0.002(2) 0.001(2) 0.027(3)
O65 0.042(3) 0.042(3) 0.055(3) -0.001(2) 0.002(2) 0.024(2)
O66 0.042(3) 0.041(3) 0.045(3) -0.007(2) -0.002(2) 0.020(2)
O67 0.047(3) 0.049(3) 0.050(3) -0.006(2) -0.002(2) 0.025(3)
O68 0.047(3) 0.055(3) 0.048(3) -0.006(2) 0.001(2) 0.029(3)
O69 0.043(3) 0.054(3) 0.045(3) 0.000(2) -0.006(2) 0.018(3)
O70 0.050(3) 0.046(3) 0.048(3) -0.010(2) -0.002(2) 0.023(3)
O71 0.046(3) 0.052(3) 0.045(3) 0.001(2) 0.000(2) 0.018(3)
O72 0.039(3) 0.047(3) 0.055(3) -0.006(2) -0.001(2) 0.023(2)
O73 0.043(3) 0.041(3) 0.058(3) -0.002(2) 0.002(2) 0.020(2)
O74 0.050(3) 0.056(3) 0.052(3) -0.018(3) -0.007(2) 0.027(3)
O75 0.047(3) 0.064(4) 0.060(3) -0.014(3) -0.009(3) 0.035(3)
O76 0.042(3) 0.033(3) 0.072(4) 0.007(2) 0.009(3) 0.018(2)
O77 0.037(3) 0.036(3) 0.044(3) -0.001(2) -0.002(2) 0.013(2)
O78 0.039(3) 0.042(3) 0.071(4) 0.006(3) 0.010(3) 0.022(2)
O79 0.060(4) 0.053(3) 0.050(3) -0.010(2) -0.008(3) 0.035(3)
O80 0.059(4) 0.055(3) 0.048(3) 0.000(2) -0.007(3) 0.034(3)
O81 0.056(4) 0.056(4) 0.056(3) 0.019(3) 0.012(3) 0.031(3)
O82 0.053(3) 0.060(4) 0.065(4) 0.008(3) 0.005(3) 0.038(3)
O83 0.035(3) 0.039(3) 0.051(3) -0.003(2) -0.001(2) 0.018(2)
O84 0.041(3) 0.044(3) 0.060(3) 0.001(2) 0.005(2) 0.022(2)
C1 0.031(4) 0.049(5) 0.035(4) 0.005(4) 0.003(3) 0.004(4)
C3 0.048(6) 0.065(7) 0.060(6) -0.029(5) -0.014(5) 0.037(5)
C5 0.038(5) 0.026(4) 0.075(7) 0.008(4) 0.018(4) 0.019(4)
C7 0.054(6) 0.065(7) 0.059(6) 0.022(5) 0.020(5) 0.041(6)
C9 0.065(7) 0.057(6) 0.043(5) -0.013(4) -0.018(5) 0.041(6)

_geom_special_details            
;
All esds (except the esd in the dihedral angle between two l.s. planes)
are estimated using the full covariance matrix. The cell esds are taken
into account individually in the estimation of esds in distances, angles
and torsion angles; correlations between esds in cell parameters are only
used when they are defined by crystal symmetry. An approximate (isotropic)
treatment of cell esds is used for estimating esds involving l.s. planes.
;

loop_
_geom_bond_atom_site_label_1
_geom_bond_atom_site_label_2
_geom_bond_distance
_geom_bond_site_symmetry_2
_geom_bond_publ_flag
Mo1 O57 1.686(5) . ?
Mo1 O18 1.943(5) . ?
Mo1 O6 1.944(4) . ?
Mo1 O35 2.049(4) . ?
Mo1 O11 2.052(4) . ?
Mo1 O78 2.345(5) . ?
Mo1 Mo2 2.5835(7) . ?
Mo2 O19 1.683(5) . ?
Mo2 O6 1.943(4) . ?
Mo2 O18 1.946(5) . ?
Mo2 O33 2.041(5) 11_665 ?
Mo2 O8 2.052(4) 11_665 ?
Mo2 O76 2.338(5) . ?
Mo3 M3B 0.859(19) . ?
Mo3 O45 1.673(5) . ?
Mo3 O47 1.947(5) . ?
Mo3 O37 1.947(5) . ?
Mo3 O13 2.050(5) . ?
Mo3 O32 2.056(5) . ?
Mo3 O79 2.349(5) . ?
Mo3 Mo5 2.5878(8) . ?
Mo3 M5B 2.747(16) . ?
M3B O79 1.49(2) . ?
M3B O47 1.945(16) . ?
M3B O32 2.009(16) . ?
M3B O37 2.035(16) . ?
M3B O13 2.090(16) . ?
M3B C9 2.34(2) . ?
M3B M5B 2.55(2) . ?
M3B Mo5 2.677(15) . ?
Mo4 M4B 0.79(4) . ?
Mo4 O50 1.664(5) . ?
Mo4 O3 1.998(4) . ?
Mo4 O4 1.999(4) . ?
Mo4 O26 2.001(5) . ?
Mo4 O22 2.009(4) . ?
Mo4 O24 2.012(4) . ?
Mo4 O56 2.323(5) . ?
M4B O56 1.53(4) . ?
M4B O24 2.01(3) . ?
M4B O26 2.04(3) . ?
M4B O22 2.04(3) . ?
M4B O3 2.07(3) . ?
M4B O4 2.07(3) . ?
M4B O50 2.46(4) . ?
M4B M12B 3.16(3) . ?
M4B M19B 3.19(3) . ?
M4B M16B 3.20(3) . ?
Mo5 M5B 0.882(19) . ?
Mo5 O46 1.683(5) . ?
Mo5 O37 1.938(5) . ?
Mo5 O47 1.949(5) . ?
Mo5 O2 2.048(5) 3_765 ?
Mo5 O36 2.050(5) 3_765 ?
Mo5 O80 2.338(6) . ?
M5B O80 1.47(2) . ?
M5B O36 1.950(16) 3_765 ?
M5B O47 1.975(17) . ?
M5B O2 2.062(17) 3_765 ?
M5B O37 2.096(17) . ?
M5B C9 2.37(2) . ?
Mo6 M6B 0.857(18) . ?
Mo6 O52 1.677(5) . ?
Mo6 O23 1.942(5) . ?
Mo6 O16 1.942(5) . ?
Mo6 O12 2.053(5) . ?
Mo6 O51 2.055(5) . ?
Mo6 O74 2.346(6) . ?
Mo6 Mo8 2.5889(8) . ?
Mo6 M8B 2.668(14) . ?
M6B O74 1.495(19) . ?
M6B O16 1.974(15) . ?
M6B O51 1.978(15) . ?
M6B O12 2.048(15) . ?
M6B O23 2.069(16) . ?
M6B C3 2.393(19) . ?
M6B M8B 2.54(2) . ?
M6B Mo8 2.730(15) . ?
Mo7 Mo7B 0.82(4) . ?
Mo7 O10 1.670(5) . ?
Mo7 O9 2.003(4) . ?
Mo7 O17 2.009(5) . ?
Mo7 O15 2.010(4) . ?
Mo7 O1 2.011(4) . ?
Mo7 O21 2.013(4) . ?
Mo7 O77 2.331(5) . ?
Mo7B O77 1.51(4) . ?
Mo7B O17 2.02(3) . ?
Mo7B O15 2.03(3) . ?
Mo7B O1 2.07(3) . ?
Mo7B O21 2.07(3) . ?
Mo7B O9 2.09(3) . ?
Mo7B O10 2.49(4) . ?
Mo7B M18B 3.17(3) . ?
Mo7B M15B 3.19(3) . ?
Mo7B M22B 3.19(3) . ?
Mo8 M8B 0.826(19) . ?
Mo8 O30 1.668(5) . ?
Mo8 O16 1.941(5) . ?
Mo8 O23 1.945(5) . ?
Mo8 O5 2.052(5) . ?
Mo8 O14 2.053(5) . ?
Mo8 O75 2.356(6) . ?
M8B O75 1.53(2) . ?
M8B O16 1.937(15) . ?
M8B O5 2.006(15) . ?
M8B O23 2.020(15) . ?
M8B O14 2.074(15) . ?
M8B C3 2.39(2) . ?
M8B O30 2.49(2) . ?
Mo9 O44 1.684(5) . ?
Mo9 O7 1.937(5) . ?
Mo9 O25 1.943(5) . ?
Mo9 O29 2.051(5) . ?
Mo9 O28 2.053(5) . ?
Mo9 O82 2.328(6) . ?
Mo9 Mo10 2.5874(8) . ?
Mo10 O38 1.682(5) . ?
Mo10 O7 1.941(5) . ?
Mo10 O25 1.942(5) . ?
Mo10 O48 2.047(5) . ?
Mo10 O39 2.060(5) 2_645 ?
Mo10 O81 2.337(6) . ?
Mo11 O61 1.685(5) . ?
Mo11 O20 1.945(5) . ?
Mo11 O42 1.949(5) . ?
Mo11 O31 2.042(5) 2_645 ?
Mo11 O41 2.051(5) . ?
Mo11 O71 2.358(6) . ?
Mo11 Mo14 2.5849(8) . ?
Mo12 M12B 0.68(3) . ?
Mo12 O60 1.691(5) . ?
Mo12 O51 1.787(5) . ?
Mo12 O36 1.794(5) . ?
Mo12 O22 2.055(4) . ?
Mo12 O24 2.055(4) . ?
Mo12 O70 2.417(5) . ?
M12B O70 1.74(3) . ?
M12B O51 1.800(18) . ?
M12B O36 1.834(18) . ?
M12B O22 2.016(17) . ?
M12B O24 2.035(17) . ?
M12B O60 2.37(3) . ?
Mo13 M13B 0.648(10) . ?
Mo13 O63 1.698(5) . ?
Mo13 O28 1.780(5) . ?
Mo13 O5 1.793(5) . ?
Mo13 O21 2.057(4) . ?
Mo13 O9 2.060(4) . ?
Mo13 O64 2.411(6) . ?
M13B O64 1.763(12) . ?
M13B O5 1.795(7) . ?
M13B O28 1.808(7) . ?
M13B O9 2.025(7) . ?
M13B O21 2.044(7) . ?
M13B O63 2.344(12) . ?
Mo14 O49 1.690(5) . ?
Mo14 O20 1.941(5) . ?
Mo14 O42 1.944(5) . ?
Mo14 O27 2.043(5) 12_545 ?
Mo14 O34 2.046(5) 12_545 ?
Mo14 O69 2.329(6) . ?
Mo15 M15B 0.717(9) . ?
Mo15 O40 1.689(5) . ?
Mo15 O29 1.793(4) . ?
Mo15 O33 1.795(4) . ?
Mo15 O21 2.055(4) . ?
Mo15 O15 2.068(4) . ?
Mo15 O65 2.414(5) . ?
M15B O65 1.698(11) . ?
M15B O29 1.810(7) . ?
M15B O33 1.815(7) . ?
M15B O21 2.046(7) . ?
M15B O15 2.058(7) . ?
M15B O40 2.404(11) . ?
Mo16 M16B 0.678(16) . ?
Mo16 O43 1.696(5) . ?
Mo16 O12 1.791(5) . ?
Mo16 O31 1.797(5) . ?
Mo16 O22 2.059(4) . ?
Mo16 O4 2.064(4) . ?
Mo16 O62 2.415(5) . ?
M16B O62 1.737(17) . ?
M16B O12 1.803(10) . ?
M16B O31 1.834(10) . ?
M16B O22 2.021(10) . ?
M16B O4 2.041(10) . ?
M16B O43 2.371(17) . ?
Mo17 M17B 0.662(7) . ?
Mo17 O59 1.696(5) . ?
Mo17 O39 1.780(5) . ?
Mo17 O32 1.787(5) . ?
Mo17 O3 2.061(4) . ?
Mo17 O26 2.064(4) . ?
Mo17 O68 2.394(6) . ?
M17B O68 1.733(9) . ?
M17B O32 1.785(6) . ?
M17B O39 1.801(6) . ?
M17B O26 2.047(6) . ?
M17B O3 2.062(6) . ?
M17B O59 2.357(9) . ?
Mo18 M18B 0.617(11) . ?
Mo18 O54 1.699(5) . ?
Mo18 O27 1.789(5) . ?
Mo18 O8 1.795(4) . ?
Mo18 O17 2.047(4) . ?
Mo18 O15 2.052(4) . ?
Mo18 O73 2.390(6) . ?
M18B O73 1.775(14) . ?
M18B O8 1.777(7) . ?
M18B O27 1.842(8) . ?
M18B O15 1.994(7) . ?
M18B O17 2.042(7) . ?
M18B O54 2.312(14) . ?
Mo19 M19B 0.660(12) . ?
Mo19 O66 1.690(5) . ?
Mo19 O13 1.792(5) . ?
Mo19 O2 1.798(5) . ?
Mo19 O24 2.057(5) . ?
Mo19 O26 2.058(4) . ?
Mo19 O67 2.415(5) . ?
M19B O67 1.755(14) . ?
M19B O2 1.802(8) . ?
M19B O13 1.806(8) . ?
M19B O24 2.038(8) . ?
M19B O26 2.045(8) . ?
M19B O66 2.349(14) . ?
Mo20 M20B 0.704(7) . ?
Mo20 O55 1.693(5) . ?
Mo20 O14 1.786(5) . ?
Mo20 O35 1.789(4) . ?
Mo20 O1 2.052(4) . ?
Mo20 O9 2.055(4) . ?
Mo20 O72 2.407(5) . ?
M20B O72 1.705(10) . ?
M20B O14 1.789(6) . ?
M20B O35 1.812(6) . ?
M20B O9 2.046(6) . ?
M20B O1 2.055(6) . ?
M20B O55 2.396(10) . ?
Mo21 M21B 0.687(10) . ?
Mo21 O53 1.689(5) . ?
Mo21 O41 1.783(5) . ?
Mo21 O48 1.791(5) . ?
Mo21 O3 2.053(4) 2_645 ?
Mo21 O4 2.056(4) 2_645 ?
Mo21 O58 2.408(5) . ?
M21B O58 1.722(12) . ?
M21B O48 1.794(7) . ?
M21B O41 1.799(8) . ?
M21B O3 2.038(7) 2_645 ?
M21B O4 2.051(7) 2_645 ?
M21B O53 2.375(12) . ?
Mo22 M22B 0.654(11) . ?
Mo22 O83 1.702(5) . ?
Mo22 O11 1.784(4) . ?
Mo22 O34 1.794(5) . ?
Mo22 O17 2.058(4) . ?
Mo22 O1 2.062(4) . ?
Mo22 O84 2.409(6) . ?
M22B O84 1.756(13) . ?
M22B O11 1.795(8) . ?
M22B O34 1.823(8) . ?
M22B O1 2.022(7) . ?
M22B O17 2.038(7) . ?
M22B O83 2.354(13) . ?
O2 Mo5 2.048(5) 2_645 ?
O2 M5B 2.062(17) 2_645 ?
O3 M21B 2.038(7) 3_765 ?
O3 Mo21 2.053(4) 3_765 ?
O4 M21B 2.051(7) 3_765 ?
O4 Mo21 2.056(4) 3_765 ?
O8 Mo2 2.051(4) 12_545 ?
O27 Mo14 2.043(5) 11_665 ?
O31 Mo11 2.042(5) 3_765 ?
O33 Mo2 2.041(5) 12_545 ?
O34 Mo14 2.046(5) 11_665 ?
O36 M5B 1.950(16) 2_645 ?
O36 Mo5 2.050(5) 2_645 ?
O39 Mo10 2.060(5) 3_765 ?
O69 C1 1.258(11) . ?
O71 C1 1.253(10) . ?
O74 C3 1.274(11) . ?
O75 C3 1.246(11) . ?
O76 C5 1.270(10) . ?
O78 C5 1.224(10) . ?
O79 C9 1.233(11) . ?
O80 C9 1.282(11) . ?
O81 C7 1.258(12) . ?
O82 C7 1.256(12) . ?
C1 C2 1.53(2) . ?
C1 C2B 1.63(3) . ?
C2 O85 1.20(3) . ?
C2 O86 1.26(3) . ?
C2B O85B 1.19(3) . ?
C2B O86B 1.20(3) . ?
C3 C4 1.54(3) . ?
C3 C4B 1.55(3) . ?
C4 O88 1.24(3) . ?
C4 O87 1.26(3) . ?
C4B O88B 1.19(3) . ?
C4B O87B 1.25(3) . ?
C5 C6B 1.59(3) . ?
C5 C6 1.59(3) . ?
C6 O89 1.22(3) . ?
C6 O90 1.23(3) . ?
C6B O90B 1.22(3) . ?
C6B O89B 1.23(3) . ?
C7 C8 1.56(2) . ?
C7 C8B 1.61(3) . ?
C8 O92 1.26(3) . ?
C8 O91 1.28(3) . ?
C8B O91B 1.20(3) . ?
C8B O92B 1.26(3) . ?
C9 C10B 1.56(3) . ?
C9 C10 1.58(3) . ?
C10 O93 1.20(3) . ?
C10 O94 1.27(3) . ?
C10B O94B 1.24(3) . ?
C10B O93B 1.25(3) . ?
O107 O148 0.87(3) . ?
O110 O137 1.01(3) . ?
O113 O139 1.05(3) . ?
O118 O150 1.18(5) . ?
O119 O140 1.53(4) . ?
O120 O136 1.72(4) . ?
O127 O141 1.79(4) 12_545 ?
O129 O144 1.43(4) . ?
O138 O142 1.75(6) . ?
O141 O127 1.79(4) 11_665 ?
O147 O152 1.64(8) . ?
O151 O154 1.15(5) . ?
O158 O166 1.31(5) . ?

loop_
_geom_angle_atom_site_label_1
_geom_angle_atom_site_label_2
_geom_angle_atom_site_label_3
_geom_angle
_geom_angle_site_symmetry_1
_geom_angle_site_symmetry_3
_geom_angle_publ_flag
O57 Mo1 O18 104.1(2) . . ?
O57 Mo1 O6 103.9(2) . . ?
O18 Mo1 O6 95.00(19) . . ?
O57 Mo1 O35 97.3(2) . . ?
O18 Mo1 O35 85.93(19) . . ?
O6 Mo1 O35 157.9(2) . . ?
O57 Mo1 O11 97.2(2) . . ?
O18 Mo1 O11 157.7(2) . . ?
O6 Mo1 O11 86.04(18) . . ?
O35 Mo1 O11 84.97(18) . . ?
O57 Mo1 O78 173.3(2) . . ?
O18 Mo1 O78 80.3(2) . . ?
O6 Mo1 O78 80.5(2) . . ?
O35 Mo1 O78 77.8(2) . . ?
O11 Mo1 O78 77.9(2) . . ?
O57 Mo1 Mo2 100.47(16) . . ?
O18 Mo1 Mo2 48.41(13) . . ?
O6 Mo1 Mo2 48.33(13) . . ?
O35 Mo1 Mo2 133.74(13) . . ?
O11 Mo1 Mo2 133.76(13) . . ?
O78 Mo1 Mo2 86.24(13) . . ?
O19 Mo2 O6 104.1(2) . . ?
O19 Mo2 O18 103.6(2) . . ?
O6 Mo2 O18 94.94(19) . . ?
O19 Mo2 O33 97.6(2) . 11_665 ?
O6 Mo2 O33 86.19(18) . 11_665 ?
O18 Mo2 O33 157.8(2) . 11_665 ?
O19 Mo2 O8 96.7(2) . 11_665 ?
O6 Mo2 O8 158.3(2) . 11_665 ?
O18 Mo2 O8 86.30(18) . 11_665 ?
O33 Mo2 O8 84.72(18) 11_665 11_665 ?
O19 Mo2 O76 173.5(2) . . ?
O6 Mo2 O76 80.3(2) . . ?
O18 Mo2 O76 80.7(2) . . ?
O33 Mo2 O76 77.7(2) 11_665 . ?
O8 Mo2 O76 78.5(2) 11_665 . ?
O19 Mo2 Mo1 100.23(16) . . ?
O6 Mo2 Mo1 48.36(13) . . ?
O18 Mo2 Mo1 48.32(13) . . ?
O33 Mo2 Mo1 133.95(13) 11_665 . ?
O8 Mo2 Mo1 134.09(13) 11_665 . ?
O76 Mo2 Mo1 86.32(13) . . ?
M3B Mo3 O45 171.5(10) . . ?
M3B Mo3 O47 77.1(10) . . ?
O45 Mo3 O47 104.8(2) . . ?
M3B Mo3 O37 83.3(10) . . ?
O45 Mo3 O37 104.7(2) . . ?
O47 Mo3 O37 94.6(2) . . ?
M3B Mo3 O13 80.6(10) . . ?
O45 Mo3 O13 96.8(2) . . ?
O47 Mo3 O13 157.5(2) . . ?
O37 Mo3 O13 86.2(2) . . ?
M3B Mo3 O32 74.7(10) . . ?
O45 Mo3 O32 97.0(2) . . ?
O47 Mo3 O32 86.1(2) . . ?
O37 Mo3 O32 157.3(2) . . ?
O13 Mo3 O32 84.82(19) . . ?
M3B Mo3 O79 4.3(11) . . ?
O45 Mo3 O79 172.7(2) . . ?
O47 Mo3 O79 80.2(2) . . ?
O37 Mo3 O79 80.0(2) . . ?
O13 Mo3 O79 77.8(2) . . ?
O32 Mo3 O79 77.8(2) . . ?
M3B Mo3 Mo5 86.5(10) . . ?
O45 Mo3 Mo5 100.96(18) . . ?
O47 Mo3 Mo5 48.42(14) . . ?
O37 Mo3 Mo5 48.09(14) . . ?
O13 Mo3 Mo5 133.73(14) . . ?
O32 Mo3 Mo5 133.91(14) . . ?
O79 Mo3 Mo5 86.32(14) . . ?
M3B Mo3 M5B 67.8(11) . . ?
O45 Mo3 M5B 119.6(4) . . ?
O47 Mo3 M5B 46.0(4) . . ?
O37 Mo3 M5B 49.5(4) . . ?
O13 Mo3 M5B 126.6(4) . . ?
O32 Mo3 M5B 123.5(4) . . ?
O79 Mo3 M5B 67.7(4) . . ?
Mo5 Mo3 M5B 18.7(4) . . ?
Mo3 M3B O79 173.2(17) . . ?
Mo3 M3B O47 77.4(11) . . ?
O79 M3B O47 107.4(9) . . ?
Mo3 M3B O32 80.9(11) . . ?
O79 M3B O32 103.9(9) . . ?
O47 M3B O32 87.4(7) . . ?
Mo3 M3B O37 71.9(10) . . ?
O79 M3B O37 102.8(9) . . ?
O47 M3B O37 91.9(7) . . ?
O32 M3B O37 152.2(11) . . ?
Mo3 M3B O13 75.4(10) . . ?
O79 M3B O13 100.0(9) . . ?
O47 M3B O13 152.6(11) . . ?
O32 M3B O13 85.0(6) . . ?
O37 M3B O13 82.9(6) . . ?
Mo3 M3B C9 151.3(14) . . ?
O79 M3B C9 27.8(5) . . ?
O47 M3B C9 87.2(7) . . ?
O32 M3B C9 122.9(9) . . ?
O37 M3B C9 84.8(7) . . ?
O13 M3B C9 118.9(8) . . ?
Mo3 M3B M5B 94.0(12) . . ?
O79 M3B M5B 85.8(9) . . ?
O47 M3B M5B 50.0(5) . . ?
O32 M3B M5B 136.8(8) . . ?
O37 M3B M5B 53.0(5) . . ?
O13 M3B M5B 135.4(8) . . ?
C9 M3B M5B 57.9(6) . . ?
Mo3 M3B Mo5 74.8(10) . . ?
O79 M3B Mo5 104.8(8) . . ?
O47 M3B Mo5 46.6(4) . . ?
O32 M3B Mo5 131.4(8) . . ?
O37 M3B Mo5 46.1(3) . . ?
O13 M3B Mo5 126.8(7) . . ?
C9 M3B Mo5 77.0(5) . . ?
M5B M3B Mo5 19.2(4) . . ?
M4B Mo4 O50 177(2) . . ?
M4B Mo4 O3 84.1(19) . . ?
O50 Mo4 O3 98.1(2) . . ?
M4B Mo4 O4 83.8(19) . . ?
O50 Mo4 O4 98.2(2) . . ?
O3 Mo4 O4 71.05(17) . . ?
M4B Mo4 O26 81.3(19) . . ?
O50 Mo4 O26 98.1(2) . . ?
O3 Mo4 O26 71.36(17) . . ?
O4 Mo4 O26 140.68(18) . . ?
M4B Mo4 O22 80.6(19) . . ?
O50 Mo4 O22 98.5(2) . . ?
O3 Mo4 O22 140.49(18) . . ?
O4 Mo4 O22 71.26(17) . . ?
O26 Mo4 O22 140.28(18) . . ?
M4B Mo4 O24 78.8(19) . . ?
O50 Mo4 O24 98.6(2) . . ?
O3 Mo4 O24 140.59(18) . . ?
O4 Mo4 O24 140.32(18) . . ?
O26 Mo4 O24 71.12(18) . . ?
O22 Mo4 O24 70.86(18) . . ?
M4B Mo4 O56 3(2) . . ?
O50 Mo4 O56 179.9(2) . . ?
O3 Mo4 O56 81.80(19) . . ?
O4 Mo4 O56 81.90(19) . . ?
O26 Mo4 O56 81.78(18) . . ?
O22 Mo4 O56 81.63(18) . . ?
O24 Mo4 O56 81.38(19) . . ?
Mo4 M4B O56 176(3) . . ?
Mo4 M4B O24 78(2) . . ?
O56 M4B O24 105.4(17) . . ?
Mo4 M4B O26 76(2) . . ?
O56 M4B O26 104.6(17) . . ?
O24 M4B O26 70.3(9) . . ?
Mo4 M4B O22 77(2) . . ?
O56 M4B O22 104.7(16) . . ?
O24 M4B O22 70.3(9) . . ?
O26 M4B O22 135.7(17) . . ?
Mo4 M4B O3 74(2) . . ?
O56 M4B O3 103.0(16) . . ?
O24 M4B O3 135.0(17) . . ?
O26 M4B O3 69.2(9) . . ?
O22 M4B O3 133.3(17) . . ?
Mo4 M4B O4 74(2) . . ?
O56 M4B O4 103.3(15) . . ?
O24 M4B O4 135.0(17) . . ?
O26 M4B O4 133.0(17) . . ?
O22 M4B O4 69.3(9) . . ?
O3 M4B O4 68.2(9) . . ?
Mo4 M4B O50 1.8(15) . . ?
O56 M4B O50 177.8(18) . . ?
O24 M4B O50 76.7(12) . . ?
O26 M4B O50 75.7(12) . . ?
O22 M4B O50 76.2(12) . . ?
O3 M4B O50 75.1(12) . . ?
O4 M4B O50 75.2(12) . . ?
Mo4 M4B M12B 92(2) . . ?
O56 M4B M12B 91.4(14) . . ?
O24 M4B M12B 38.8(6) . . ?
O26 M4B M12B 108.9(11) . . ?
O22 M4B M12B 38.4(6) . . ?
O3 M4B M12B 165.6(19) . . ?
O4 M4B M12B 107.4(11) . . ?
O50 M4B M12B 90.6(11) . . ?
Mo4 M4B M19B 91(2) . . ?
O56 M4B M19B 91.6(13) . . ?
O24 M4B M19B 38.4(5) . . ?
O26 M4B M19B 38.7(5) . . ?
O22 M4B M19B 108.4(10) . . ?
O3 M4B M19B 107.6(10) . . ?
O4 M4B M19B 165.1(18) . . ?
O50 M4B M19B 89.9(10) . . ?
M12B M4B M19B 73.0(6) . . ?
Mo4 M4B M16B 89(2) . . ?
O56 M4B M16B 89.8(12) . . ?
O24 M4B M16B 107.8(11) . . ?
O26 M4B M16B 165.5(18) . . ?
O22 M4B M16B 37.9(5) . . ?
O3 M4B M16B 106.5(10) . . ?
O4 M4B M16B 38.7(5) . . ?
O50 M4B M16B 89.9(10) . . ?
M12B M4B M16B 71.7(7) . . ?
M19B M4B M16B 144.7(9) . . ?
M5B Mo5 O46 166.9(10) . . ?
M5B Mo5 O37 87.6(10) . . ?
O46 Mo5 O37 104.6(2) . . ?
M5B Mo5 O47 78.7(10) . . ?
O46 Mo5 O47 104.7(2) . . ?
O37 Mo5 O47 94.8(2) . . ?
M5B Mo5 O2 78.5(10) . 3_765 ?
O46 Mo5 O2 97.2(2) . 3_765 ?
O37 Mo5 O2 86.2(2) . 3_765 ?
O47 Mo5 O2 157.1(2) . 3_765 ?
M5B Mo5 O36 71.0(10) . 3_765 ?
O46 Mo5 O36 96.4(2) . 3_765 ?
O37 Mo5 O36 158.1(2) . 3_765 ?
O47 Mo5 O36 85.86(19) . 3_765 ?
O2 Mo5 O36 84.92(19) 3_765 3_765 ?
M5B Mo5 O80 7.1(10) . . ?
O46 Mo5 O80 172.5(2) . . ?
O37 Mo5 O80 80.5(2) . . ?
O47 Mo5 O80 80.1(2) . . ?
O2 Mo5 O80 77.4(2) 3_765 . ?
O36 Mo5 O80 78.0(2) 3_765 . ?
M5B Mo5 Mo3 90.9(10) . . ?
O46 Mo5 Mo3 100.85(18) . . ?
O37 Mo5 Mo3 48.37(14) . . ?
O47 Mo5 Mo3 48.35(14) . . ?
O2 Mo5 Mo3 133.98(13) 3_765 . ?
O36 Mo5 Mo3 133.76(14) 3_765 . ?
O80 Mo5 Mo3 86.67(14) . . ?
M5B Mo5 M3B 72.2(11) . . ?
O46 Mo5 M3B 119.5(4) . . ?
O37 Mo5 M3B 49.2(4) . . ?
O47 Mo5 M3B 46.5(4) . . ?
O2 Mo5 M3B 126.2(4) 3_765 . ?
O36 Mo5 M3B 124.1(4) 3_765 . ?
O80 Mo5 M3B 68.0(4) . . ?
Mo3 Mo5 M3B 18.7(4) . . ?
Mo5 M5B O80 168.6(16) . . ?
Mo5 M5B O36 83.7(11) . 3_765 ?
O80 M5B O36 107.6(10) . 3_765 ?
Mo5 M5B O47 75.4(11) . . ?
O80 M5B O47 106.5(10) . . ?
O36 M5B O47 87.9(7) 3_765 . ?
Mo5 M5B O2 76.7(11) . 3_765 ?
O80 M5B O2 101.2(9) . 3_765 ?
O36 M5B O2 87.1(7) 3_765 3_765 ?
O47 M5B O2 152.0(11) . 3_765 ?
Mo5 M5B O37 67.5(10) . . ?
O80 M5B O37 101.1(9) . . ?
O36 M5B O37 150.8(11) 3_765 . ?
O47 M5B O37 89.3(7) . . ?
O2 M5B O37 81.9(6) 3_765 . ?
Mo5 M5B C9 144.2(14) . . ?
O80 M5B C9 28.1(5) . . ?
O36 M5B C9 126.1(9) 3_765 . ?
O47 M5B C9 85.5(7) . . ?
O2 M5B C9 119.3(8) 3_765 . ?
O37 M5B C9 82.6(6) . . ?
Mo5 M5B M3B 88.6(12) . . ?
O80 M5B M3B 84.6(9) . . ?
O36 M5B M3B 136.6(9) 3_765 . ?
O47 M5B M3B 48.9(5) . . ?
O2 M5B M3B 132.3(8) 3_765 . ?
O37 M5B M3B 50.8(5) . . ?
C9 M5B M3B 56.6(6) . . ?
Mo5 M5B Mo3 70.4(10) . . ?
O80 M5B Mo3 102.6(8) . . ?
O36 M5B Mo3 130.0(8) 3_765 . ?
O47 M5B Mo3 45.1(4) . . ?
O2 M5B Mo3 124.8(7) 3_765 . ?
O37 M5B Mo3 45.0(3) . . ?
C9 M5B Mo3 74.6(5) . . ?
M3B M5B Mo3 18.2(4) . . ?
M6B Mo6 O52 168.1(10) . . ?
M6B Mo6 O23 86.1(9) . . ?
O52 Mo6 O23 104.5(2) . . ?
M6B Mo6 O16 79.5(10) . . ?
O52 Mo6 O16 104.7(2) . . ?
O23 Mo6 O16 94.6(2) . . ?
M6B Mo6 O12 77.6(10) . . ?
O52 Mo6 O12 97.3(2) . . ?
O23 Mo6 O12 86.45(19) . . ?
O16 Mo6 O12 156.9(2) . . ?
M6B Mo6 O51 72.7(9) . . ?
O52 Mo6 O51 96.2(2) . . ?
O23 Mo6 O51 158.4(2) . . ?
O16 Mo6 O51 86.16(19) . . ?
O12 Mo6 O51 84.64(19) . . ?
M6B Mo6 O74 5.5(9) . . ?
O52 Mo6 O74 172.4(2) . . ?
O23 Mo6 O74 80.6(2) . . ?
O16 Mo6 O74 80.2(2) . . ?
O12 Mo6 O74 77.2(2) . . ?
O51 Mo6 O74 78.2(2) . . ?
M6B Mo6 Mo8 90.2(9) . . ?
O52 Mo6 Mo8 100.95(17) . . ?
O23 Mo6 Mo8 48.28(14) . . ?
O16 Mo6 Mo8 48.18(14) . . ?
O12 Mo6 Mo8 134.07(13) . . ?
O51 Mo6 Mo8 133.89(13) . . ?
O74 Mo6 Mo8 86.67(14) . . ?
M6B Mo6 M8B 72.2(10) . . ?
O52 Mo6 M8B 118.9(5) . . ?
O23 Mo6 M8B 48.9(3) . . ?
O16 Mo6 M8B 46.5(3) . . ?
O12 Mo6 M8B 126.4(4) . . ?
O51 Mo6 M8B 124.8(4) . . ?
O74 Mo6 M8B 68.7(4) . . ?
Mo8 Mo6 M8B 18.0(4) . . ?
Mo6 M6B O74 171.4(15) . . ?
Mo6 M6B O16 75.2(10) . . ?
O74 M6B O16 105.7(9) . . ?
Mo6 M6B O51 82.8(10) . . ?
O74 M6B O51 105.7(9) . . ?
O16 M6B O51 87.4(6) . . ?
Mo6 M6B O12 78.3(10) . . ?
O74 M6B O12 100.9(8) . . ?
O16 M6B O12 153.4(11) . . ?
O51 M6B O12 86.8(6) . . ?
Mo6 M6B O23 69.5(10) . . ?
O74 M6B O23 101.9(8) . . ?
O16 M6B O23 89.8(6) . . ?
O51 M6B O23 151.9(10) . . ?
O12 M6B O23 83.3(6) . . ?
Mo6 M6B C3 146.5(13) . . ?
O74 M6B C3 27.6(4) . . ?
O16 M6B C3 84.8(6) . . ?
O51 M6B C3 123.5(9) . . ?
O12 M6B C3 119.7(8) . . ?
O23 M6B C3 84.0(6) . . ?
Mo6 M6B M8B 89.1(11) . . ?
O74 M6B M8B 85.4(8) . . ?
O16 M6B M8B 48.9(5) . . ?
O51 M6B M8B 136.0(8) . . ?
O12 M6B M8B 133.7(8) . . ?
O23 M6B M8B 50.7(5) . . ?
C3 M6B M8B 57.8(6) . . ?
Mo6 M6B Mo8 71.5(9) . . ?
O74 M6B Mo8 102.8(7) . . ?
O16 M6B Mo8 45.3(3) . . ?
O51 M6B Mo8 130.0(7) . . ?
O12 M6B Mo8 126.6(7) . . ?
O23 M6B Mo8 45.3(3) . . ?
C3 M6B Mo8 75.3(5) . . ?
M8B M6B Mo8 17.6(4) . . ?
Mo7B Mo7 O10 177.3(19) . . ?
Mo7B Mo7 O9 84.4(18) . . ?
O10 Mo7 O9 98.3(2) . . ?
Mo7B Mo7 O17 79.3(17) . . ?
O10 Mo7 O17 98.6(2) . . ?
O9 Mo7 O17 140.49(18) . . ?
Mo7B Mo7 O15 79.5(18) . . ?
O10 Mo7 O15 98.2(2) . . ?
O9 Mo7 O15 140.75(18) . . ?
O17 Mo7 O15 70.73(18) . . ?
Mo7B Mo7 O1 82.4(18) . . ?
O10 Mo7 O1 98.7(2) . . ?
O9 Mo7 O1 71.26(18) . . ?
O17 Mo7 O1 71.02(17) . . ?
O15 Mo7 O1 139.97(18) . . ?
Mo7B Mo7 O21 82.6(18) . . ?
O10 Mo7 O21 98.1(2) . . ?
O9 Mo7 O21 71.13(17) . . ?
O17 Mo7 O21 140.35(18) . . ?
O15 Mo7 O21 71.43(17) . . ?
O1 Mo7 O21 140.54(18) . . ?
Mo7B Mo7 O77 2.5(19) . . ?
O10 Mo7 O77 179.7(2) . . ?
O9 Mo7 O77 81.97(19) . . ?
O17 Mo7 O77 81.28(19) . . ?
O15 Mo7 O77 81.55(19) . . ?
O1 Mo7 O77 81.47(19) . . ?
O21 Mo7 O77 81.92(19) . . ?
Mo7 Mo7B O77 176(3) . . ?
Mo7 Mo7B O17 77.2(19) . . ?
O77 Mo7B O17 105.8(15) . . ?
Mo7 Mo7B O15 77(2) . . ?
O77 Mo7B O15 106.1(16) . . ?
O17 Mo7B O15 70.1(9) . . ?
Mo7 Mo7B O1 74.5(19) . . ?
O77 Mo7B O1 104.1(15) . . ?
O17 Mo7B O1 69.6(9) . . ?
O15 Mo7B O1 134.6(16) . . ?
Mo7 Mo7B O21 74.3(18) . . ?
O77 Mo7B O21 104.6(15) . . ?
O17 Mo7B O21 134.8(16) . . ?
O15 Mo7B O21 69.9(9) . . ?
O1 Mo7B O21 132.3(16) . . ?
Mo7 Mo7B O9 72.6(18) . . ?
O77 Mo7B O9 103.6(15) . . ?
O17 Mo7B O9 133.2(16) . . ?
O15 Mo7B O9 133.3(16) . . ?
O1 Mo7B O9 68.4(9) . . ?
O21 Mo7B O9 68.3(8) . . ?
Mo7 Mo7B O10 1.8(13) . . ?
O77 Mo7B O10 178.0(17) . . ?
O17 Mo7B O10 75.8(11) . . ?
O15 Mo7B O10 75.5(11) . . ?
O1 Mo7B O10 75.2(11) . . ?
O21 Mo7B O10 74.8(11) . . ?
O9 Mo7B O10 74.4(11) . . ?
Mo7 Mo7B M18B 91.1(19) . . ?
O77 Mo7B M18B 92.8(12) . . ?
O17 Mo7B M18B 39.1(5) . . ?
O15 Mo7B M18B 37.7(5) . . ?
O1 Mo7B M18B 108.4(10) . . ?
O21 Mo7B M18B 107.3(10) . . ?
O9 Mo7B M18B 163.6(17) . . ?
O10 Mo7B M18B 89.2(9) . . ?
Mo7 Mo7B M15B 90.8(19) . . ?
O77 Mo7B M15B 90.6(12) . . ?
O17 Mo7B M15B 108.6(10) . . ?
O15 Mo7B M15B 38.9(5) . . ?
O1 Mo7B M15B 165.2(17) . . ?
O21 Mo7B M15B 38.9(5) . . ?
O9 Mo7B M15B 106.7(10) . . ?
O10 Mo7B M15B 90.1(9) . . ?
M18B Mo7B M15B 72.1(6) . . ?
Mo7 Mo7B M22B 89.6(19) . . ?
O77 Mo7B M22B 91.3(12) . . ?
O17 Mo7B M22B 38.3(5) . . ?
O15 Mo7B M22B 108.1(10) . . ?
O1 Mo7B M22B 38.1(5) . . ?
O21 Mo7B M22B 163.9(17) . . ?
O9 Mo7B M22B 106.3(10) . . ?
O10 Mo7B M22B 89.2(9) . . ?
M18B Mo7B M22B 73.4(6) . . ?
M15B Mo7B M22B 145.5(9) . . ?
M8B Mo8 O30 172.1(10) . . ?
M8B Mo8 O16 77.4(10) . . ?
O30 Mo8 O16 104.6(2) . . ?
M8B Mo8 O23 83.1(10) . . ?
O30 Mo8 O23 104.1(2) . . ?
O16 Mo8 O23 94.5(2) . . ?
M8B Mo8 O5 75.2(10) . . ?
O30 Mo8 O5 97.3(2) . . ?
O16 Mo8 O5 86.48(19) . . ?
O23 Mo8 O5 157.5(2) . . ?
M8B Mo8 O14 79.9(10) . . ?
O30 Mo8 O14 97.5(2) . . ?
O16 Mo8 O14 157.1(2) . . ?
O23 Mo8 O14 85.92(19) . . ?
O5 Mo8 O14 84.64(18) . . ?
M8B Mo8 O75 3.7(10) . . ?
O30 Mo8 O75 173.2(2) . . ?
O16 Mo8 O75 80.0(2) . . ?
O23 Mo8 O75 80.3(2) . . ?
O5 Mo8 O75 77.8(2) . . ?
O14 Mo8 O75 77.4(2) . . ?
M8B Mo8 Mo6 86.4(10) . . ?
O30 Mo8 Mo6 100.57(17) . . ?
O16 Mo8 Mo6 48.19(14) . . ?
O23 Mo8 Mo6 48.20(14) . . ?
O5 Mo8 Mo6 134.10(13) . . ?
O14 Mo8 Mo6 133.49(13) . . ?
O75 Mo8 Mo6 86.25(14) . . ?
M8B Mo8 M6B 68.1(10) . . ?
O30 Mo8 M6B 118.8(4) . . ?
O16 Mo8 M6B 46.3(3) . . ?
O23 Mo8 M6B 49.1(3) . . ?
O5 Mo8 M6B 124.4(4) . . ?
O14 Mo8 M6B 126.0(3) . . ?
O75 Mo8 M6B 68.0(4) . . ?
Mo6 Mo8 M6B 18.3(4) . . ?
Mo8 M8B O75 174.3(16) . . ?
Mo8 M8B O16 78.0(10) . . ?
O75 M8B O16 106.0(9) . . ?
Mo8 M8B O5 81.4(11) . . ?
O75 M8B O5 102.6(9) . . ?
O16 M8B O5 87.9(6) . . ?
Mo8 M8B O23 72.9(10) . . ?
O75 M8B O23 102.6(9) . . ?
O16 M8B O23 92.3(6) . . ?
O5 M8B O23 153.7(11) . . ?
Mo8 M8B O14 77.1(10) . . ?
O75 M8B O14 99.1(8) . . ?
O16 M8B O14 154.8(11) . . ?
O5 M8B O14 85.3(6) . . ?
O23 M8B O14 83.5(6) . . ?
Mo8 M8B C3 152.0(13) . . ?
O75 M8B C3 27.4(4) . . ?
O16 M8B C3 85.8(7) . . ?
O5 M8B C3 121.1(9) . . ?
O23 M8B C3 85.2(6) . . ?
O14 M8B C3 118.3(8) . . ?
Mo8 M8B O30 5.3(7) . . ?
O75 M8B O30 174.5(9) . . ?
O16 M8B O30 79.4(6) . . ?
O5 M8B O30 76.3(6) . . ?
O23 M8B O30 77.8(6) . . ?
O14 M8B O30 75.4(6) . . ?
C3 M8B O30 156.9(7) . . ?
Mo8 M8B M6B 94.3(12) . . ?
O75 M8B M6B 85.4(8) . . ?
O16 M8B M6B 50.1(5) . . ?
O5 M8B M6B 137.4(7) . . ?
O23 M8B M6B 52.5(5) . . ?
O14 M8B M6B 135.3(7) . . ?
C3 M8B M6B 58.0(6) . . ?
O30 M8B M6B 99.0(7) . . ?
Mo8 M8B Mo6 75.6(10) . . ?
O75 M8B Mo6 104.1(8) . . ?
O16 M8B Mo6 46.6(3) . . ?
O5 M8B Mo6 132.0(7) . . ?
O23 M8B Mo6 46.5(3) . . ?
O14 M8B Mo6 128.0(7) . . ?
C3 M8B Mo6 76.7(5) . . ?
O30 M8B Mo6 80.3(5) . . ?
M6B M8B Mo6 18.7(4) . . ?
O44 Mo9 O7 104.0(2) . . ?
O44 Mo9 O25 104.0(2) . . ?
O7 Mo9 O25 94.7(2) . . ?
O44 Mo9 O29 97.1(2) . . ?
O7 Mo9 O29 157.8(2) . . ?
O25 Mo9 O29 86.91(19) . . ?
O44 Mo9 O28 97.1(2) . . ?
O7 Mo9 O28 85.86(19) . . ?
O25 Mo9 O28 158.0(2) . . ?
O29 Mo9 O28 84.49(18) . . ?
O44 Mo9 O82 173.0(2) . . ?
O7 Mo9 O82 80.8(2) . . ?
O25 Mo9 O82 80.4(2) . . ?
O29 Mo9 O82 77.6(2) . . ?
O28 Mo9 O82 77.9(2) . . ?
O44 Mo9 Mo10 100.62(17) . . ?
O7 Mo9 Mo10 48.23(14) . . ?
O25 Mo9 Mo10 48.21(14) . . ?
O29 Mo9 Mo10 134.49(13) . . ?
O28 Mo9 Mo10 133.48(14) . . ?
O82 Mo9 Mo10 86.36(15) . . ?
O38 Mo10 O7 103.8(2) . . ?
O38 Mo10 O25 104.0(2) . . ?
O7 Mo10 O25 94.6(2) . . ?
O38 Mo10 O48 97.4(2) . . ?
O7 Mo10 O48 157.7(2) . . ?
O25 Mo10 O48 86.70(19) . . ?
O38 Mo10 O39 97.0(2) . 2_645 ?
O7 Mo10 O39 86.3(2) . 2_645 ?
O25 Mo10 O39 158.0(2) . 2_645 ?
O48 Mo10 O39 84.35(19) . 2_645 ?
O38 Mo10 O81 172.9(2) . . ?
O7 Mo10 O81 81.0(2) . . ?
O25 Mo10 O81 80.5(2) . . ?
O48 Mo10 O81 77.3(2) . . ?
O39 Mo10 O81 77.9(2) 2_645 . ?
O38 Mo10 Mo9 100.50(18) . . ?
O7 Mo10 Mo9 48.09(14) . . ?
O25 Mo10 Mo9 48.25(14) . . ?
O48 Mo10 Mo9 134.29(14) . . ?
O39 Mo10 Mo9 133.79(14) 2_645 . ?
O81 Mo10 Mo9 86.55(14) . . ?
O61 Mo11 O20 104.2(2) . . ?
O61 Mo11 O42 104.3(2) . . ?
O20 Mo11 O42 94.7(2) . . ?
O61 Mo11 O31 97.2(2) . 2_645 ?
O20 Mo11 O31 86.44(19) . 2_645 ?
O42 Mo11 O31 157.4(2) . 2_645 ?
O61 Mo11 O41 97.5(2) . . ?
O20 Mo11 O41 157.5(2) . . ?
O42 Mo11 O41 85.86(19) . . ?
O31 Mo11 O41 84.66(19) 2_645 . ?
O61 Mo11 O71 173.6(2) . . ?
O20 Mo11 O71 80.1(2) . . ?
O42 Mo11 O71 79.9(2) . . ?
O31 Mo11 O71 78.1(2) 2_645 . ?
O41 Mo11 O71 77.9(2) . . ?
O61 Mo11 Mo14 100.66(18) . . ?
O20 Mo11 Mo14 48.23(14) . . ?
O42 Mo11 Mo14 48.30(14) . . ?
O31 Mo11 Mo14 134.04(13) 2_645 . ?
O41 Mo11 Mo14 133.54(14) . . ?
O71 Mo11 Mo14 85.79(14) . . ?
M12B Mo12 O60 173.1(15) . . ?
M12B Mo12 O51 80.1(14) . . ?
O60 Mo12 O51 102.4(2) . . ?
M12B Mo12 O36 82.5(14) . . ?
O60 Mo12 O36 102.9(2) . . ?
O51 Mo12 O36 104.7(2) . . ?
M12B Mo12 O22 77.2(14) . . ?
O60 Mo12 O22 96.4(2) . . ?
O51 Mo12 O22 89.6(2) . . ?
O36 Mo12 O22 152.7(2) . . ?
M12B Mo12 O24 78.8(14) . . ?
O60 Mo12 O24 96.8(2) . . ?
O51 Mo12 O24 152.8(2) . . ?
O36 Mo12 O24 89.3(2) . . ?
O22 Mo12 O24 69.10(17) . . ?
M12B Mo12 O70 1.9(14) . . ?
O60 Mo12 O70 172.7(2) . . ?
O51 Mo12 O70 82.0(2) . . ?
O36 Mo12 O70 81.4(2) . . ?
O22 Mo12 O70 77.67(19) . . ?
O24 Mo12 O70 77.16(19) . . ?
Mo12 M12B O70 177(2) . . ?
Mo12 M12B O51 78.0(17) . . ?
O70 M12B O51 104.6(12) . . ?
Mo12 M12B O36 75.9(16) . . ?
O70 M12B O36 102.6(12) . . ?
O51 M12B O36 102.6(10) . . ?
Mo12 M12B O22 83.6(16) . . ?
O70 M12B O22 97.1(11) . . ?
O51 M12B O22 90.5(8) . . ?
O36 M12B O22 152.6(15) . . ?
Mo12 M12B O24 82.1(16) . . ?
O70 M12B O24 95.7(11) . . ?
O51 M12B O24 153.7(16) . . ?
O36 M12B O24 88.8(8) . . ?
O22 M12B O24 70.2(6) . . ?
Mo12 M12B O60 4.9(10) . . ?
O70 M12B O60 174.2(10) . . ?
O51 M12B O60 79.9(11) . . ?
O36 M12B O60 79.7(11) . . ?
O22 M12B O60 79.0(9) . . ?
O24 M12B O60 79.0(9) . . ?
Mo12 M12B M4B 98.4(17) . . ?
O70 M12B M4B 80.6(11) . . ?
O51 M12B M4B 128.7(9) . . ?
O36 M12B M4B 126.5(9) . . ?
O22 M12B M4B 38.9(6) . . ?
O24 M12B M4B 38.4(6) . . ?
O60 M12B M4B 93.7(10) . . ?
M13B Mo13 O63 174.2(5) . . ?
M13B Mo13 O28 82.0(5) . . ?
O63 Mo13 O28 102.5(3) . . ?
M13B Mo13 O5 79.8(5) . . ?
O63 Mo13 O5 102.4(3) . . ?
O28 Mo13 O5 104.9(2) . . ?
M13B Mo13 O21 79.8(5) . . ?
O63 Mo13 O21 96.5(2) . . ?
O28 Mo13 O21 89.1(2) . . ?
O5 Mo13 O21 153.3(2) . . ?
M13B Mo13 O9 77.8(5) . . ?
O63 Mo13 O9 96.7(2) . . ?
O28 Mo13 O9 152.5(2) . . ?
O5 Mo13 O9 89.79(19) . . ?
O21 Mo13 O9 69.13(17) . . ?
M13B Mo13 O64 2.0(5) . . ?
O63 Mo13 O64 173.3(2) . . ?
O28 Mo13 O64 81.3(2) . . ?
O5 Mo13 O64 81.8(2) . . ?
O21 Mo13 O64 77.9(2) . . ?
O9 Mo13 O64 77.88(19) . . ?
Mo13 M13B O64 177.3(7) . . ?
Mo13 M13B O5 79.4(6) . . ?
O64 M13B O5 103.3(5) . . ?
Mo13 M13B O28 77.2(6) . . ?
O64 M13B O28 101.9(5) . . ?
O5 M13B O28 103.7(4) . . ?
Mo13 M13B O9 83.9(6) . . ?
O64 M13B O9 96.1(4) . . ?
O5 M13B O9 90.9(3) . . ?
O28 M13B O9 153.4(6) . . ?
Mo13 M13B O21 82.0(6) . . ?
O64 M13B O21 95.4(4) . . ?
O5 M13B O21 154.6(6) . . ?
O28 M13B O21 88.7(3) . . ?
O9 M13B O21 70.1(2) . . ?
Mo13 M13B O63 4.2(4) . . ?
O64 M13B O63 174.3(4) . . ?
O5 M13B O63 81.0(4) . . ?
O28 M13B O63 80.4(4) . . ?
O9 M13B O63 80.0(4) . . ?
O21 M13B O63 79.3(4) . . ?
O49 Mo14 O20 104.1(2) . . ?
O49 Mo14 O42 104.2(2) . . ?
O20 Mo14 O42 95.0(2) . . ?
O49 Mo14 O27 96.8(2) . 12_545 ?
O20 Mo14 O27 85.70(19) . 12_545 ?
O42 Mo14 O27 158.1(2) . 12_545 ?
O49 Mo14 O34 97.5(2) . 12_545 ?
O20 Mo14 O34 157.3(2) . 12_545 ?
O42 Mo14 O34 86.18(19) . 12_545 ?
O27 Mo14 O34 84.96(19) 12_545 12_545 ?
O49 Mo14 O69 172.8(2) . . ?
O20 Mo14 O69 80.7(2) . . ?
O42 Mo14 O69 80.4(2) . . ?
O27 Mo14 O69 78.0(2) 12_545 . ?
O34 Mo14 O69 77.2(2) 12_545 . ?
O49 Mo14 Mo11 100.53(17) . . ?
O20 Mo14 Mo11 48.37(14) . . ?
O42 Mo14 Mo11 48.48(13) . . ?
O27 Mo14 Mo11 133.54(14) 12_545 . ?
O34 Mo14 Mo11 134.02(14) 12_545 . ?
O69 Mo14 Mo11 86.66(13) . . ?
M15B Mo15 O40 175.0(5) . . ?
M15B Mo15 O29 79.8(4) . . ?
O40 Mo15 O29 103.4(2) . . ?
M15B Mo15 O33 80.1(5) . . ?
O40 Mo15 O33 102.6(2) . . ?
O29 Mo15 O33 104.7(2) . . ?
M15B Mo15 O21 79.2(5) . . ?
O40 Mo15 O21 96.8(2) . . ?
O29 Mo15 O21 89.44(19) . . ?
O33 Mo15 O21 152.4(2) . . ?
M15B Mo15 O15 79.2(5) . . ?
O40 Mo15 O15 96.5(2) . . ?
O29 Mo15 O15 152.6(2) . . ?
O33 Mo15 O15 88.85(19) . . ?
O21 Mo15 O15 69.43(17) . . ?
M15B Mo15 O65 2.2(5) . . ?
O40 Mo15 O65 172.8(2) . . ?
O29 Mo15 O65 81.0(2) . . ?
O33 Mo15 O65 81.5(2) . . ?
O21 Mo15 O65 77.35(19) . . ?
O15 Mo15 O65 77.55(19) . . ?
Mo15 M15B O65 176.9(7) . . ?
Mo15 M15B O29 77.2(5) . . ?
O65 M15B O29 104.4(5) . . ?
Mo15 M15B O33 77.0(5) . . ?
O65 M15B O33 105.0(4) . . ?
O29 M15B O33 103.2(4) . . ?
Mo15 M15B O21 80.7(5) . . ?
O65 M15B O21 96.7(4) . . ?
O29 M15B O21 89.3(3) . . ?
O33 M15B O21 151.1(5) . . ?
Mo15 M15B O15 80.8(5) . . ?
O65 M15B O15 96.8(4) . . ?
O29 M15B O15 151.8(5) . . ?
O33 M15B O15 88.6(3) . . ?
O21 M15B O15 69.8(3) . . ?
Mo15 M15B O40 3.5(3) . . ?
O65 M15B O40 173.4(4) . . ?
O29 M15B O40 79.5(4) . . ?
O33 M15B O40 78.9(4) . . ?
O21 M15B O40 77.9(3) . . ?
O15 M15B O40 77.8(3) . . ?
Mo15 M15B Mo7B 96.9(8) . . ?
O65 M15B Mo7B 80.0(7) . . ?
O29 M15B Mo7B 128.0(5) . . ?
O33 M15B Mo7B 126.1(5) . . ?
O21 M15B Mo7B 39.5(5) . . ?
O15 M15B Mo7B 38.2(5) . . ?
O40 M15B Mo7B 93.4(7) . . ?
M16B Mo16 O43 173.2(7) . . ?
M16B Mo16 O12 80.1(7) . . ?
O43 Mo16 O12 102.8(2) . . ?
M16B Mo16 O31 82.4(7) . . ?
O43 Mo16 O31 102.6(2) . . ?
O12 Mo16 O31 104.6(2) . . ?
M16B Mo16 O22 77.3(7) . . ?
O43 Mo16 O22 96.5(2) . . ?
O12 Mo16 O22 89.7(2) . . ?
O31 Mo16 O22 152.8(2) . . ?
M16B Mo16 O4 78.6(7) . . ?
O43 Mo16 O4 96.7(2) . . ?
O12 Mo16 O4 152.6(2) . . ?
O31 Mo16 O4 89.48(19) . . ?
O22 Mo16 O4 68.98(17) . . ?
M16B Mo16 O62 0.9(9) . . ?
O43 Mo16 O62 173.4(2) . . ?
O12 Mo16 O62 80.8(2) . . ?
O31 Mo16 O62 81.6(2) . . ?
O22 Mo16 O62 77.92(19) . . ?
O4 Mo16 O62 78.12(19) . . ?
Mo16 M16B O62 178.8(13) . . ?
Mo16 M16B O12 78.1(9) . . ?
O62 M16B O12 102.8(7) . . ?
Mo16 M16B O31 76.1(9) . . ?
O62 M16B O31 102.8(6) . . ?
O12 M16B O31 102.6(5) . . ?
Mo16 M16B O22 83.6(8) . . ?
O62 M16B O22 97.3(6) . . ?
O12 M16B O22 90.5(4) . . ?
O31 M16B O22 152.8(8) . . ?
Mo16 M16B O4 82.4(8) . . ?
O62 M16B O4 96.9(6) . . ?
O12 M16B O4 154.0(8) . . ?
O31 M16B O4 89.2(4) . . ?
O22 M16B O4 70.2(3) . . ?
Mo16 M16B O43 4.8(5) . . ?
O62 M16B O43 175.4(5) . . ?
O12 M16B O43 80.3(6) . . ?
O31 M16B O43 79.7(6) . . ?
O22 M16B O43 79.2(5) . . ?
O4 M16B O43 79.1(5) . . ?
Mo16 M16B M4B 99.1(11) . . ?
O62 M16B M4B 81.1(8) . . ?
O12 M16B M4B 127.8(6) . . ?
O31 M16B M4B 127.7(6) . . ?
O22 M16B M4B 38.2(6) . . ?
O4 M16B M4B 39.3(6) . . ?
O43 M16B M4B 94.3(8) . . ?
M17B Mo17 O59 175.3(4) . . ?
M17B Mo17 O39 81.1(4) . . ?
O59 Mo17 O39 102.6(3) . . ?
M17B Mo17 O32 79.1(4) . . ?
O59 Mo17 O32 102.5(3) . . ?
O39 Mo17 O32 104.7(2) . . ?
M17B Mo17 O3 80.9(4) . . ?
O59 Mo17 O3 96.2(2) . . ?
O39 Mo17 O3 89.6(2) . . ?
O32 Mo17 O3 153.1(2) . . ?
M17B Mo17 O26 79.3(4) . . ?
O59 Mo17 O26 96.3(2) . . ?
O39 Mo17 O26 152.8(2) . . ?
O32 Mo17 O26 89.8(2) . . ?
O3 Mo17 O26 68.87(18) . . ?
M17B Mo17 O68 2.7(4) . . ?
O59 Mo17 O68 173.1(2) . . ?
O39 Mo17 O68 81.6(2) . . ?
O32 Mo17 O68 81.4(2) . . ?
O3 Mo17 O68 78.2(2) . . ?
O26 Mo17 O68 77.95(19) . . ?
Mo17 M17B O68 176.3(5) . . ?
Mo17 M17B O32 79.6(4) . . ?
O68 M17B O32 103.7(4) . . ?
Mo17 M17B O39 77.6(4) . . ?
O68 M17B O39 103.1(4) . . ?
O32 M17B O39 104.0(3) . . ?
Mo17 M17B O26 82.2(4) . . ?
O68 M17B O26 96.0(3) . . ?
O32 M17B O26 90.4(3) . . ?
O39 M17B O26 152.4(4) . . ?
Mo17 M17B O3 80.7(4) . . ?
O68 M17B O3 95.7(3) . . ?
O32 M17B O3 153.3(4) . . ?
O39 M17B O3 89.0(3) . . ?
O26 M17B O3 69.2(2) . . ?
Mo17 M17B O59 3.4(3) . . ?
O68 M17B O59 173.4(3) . . ?
O32 M17B O59 80.7(3) . . ?
O39 M17B O59 80.3(3) . . ?
O26 M17B O59 79.0(3) . . ?
O3 M17B O59 78.6(3) . . ?
M18B Mo18 O54 172.1(5) . . ?
M18B Mo18 O27 85.1(5) . . ?
O54 Mo18 O27 102.3(3) . . ?
M18B Mo18 O8 78.4(6) . . ?
O54 Mo18 O8 101.8(2) . . ?
O27 Mo18 O8 104.7(2) . . ?
M18B Mo18 O17 80.9(5) . . ?
O54 Mo18 O17 96.4(2) . . ?
O27 Mo18 O17 90.1(2) . . ?
O8 Mo18 O17 153.3(2) . . ?
M18B Mo18 O15 75.9(5) . . ?
O54 Mo18 O15 96.2(2) . . ?
O27 Mo18 O15 153.7(2) . . ?
O8 Mo18 O15 89.44(19) . . ?
O17 Mo18 O15 69.15(17) . . ?
M18B Mo18 O73 4.4(6) . . ?
O54 Mo18 O73 173.0(2) . . ?
O27 Mo18 O73 81.9(2) . . ?
O8 Mo18 O73 82.2(2) . . ?
O17 Mo18 O73 77.9(2) . . ?
O15 Mo18 O73 78.1(2) . . ?
Mo18 M18B O73 174.1(8) . . ?
Mo18 M18B O8 81.7(7) . . ?
O73 M18B O8 103.4(6) . . ?
Mo18 M18B O27 75.4(6) . . ?
O73 M18B O27 100.2(5) . . ?
O8 M18B O27 103.2(4) . . ?
Mo18 M18B O15 86.6(6) . . ?
O73 M18B O15 96.2(5) . . ?
O8 M18B O15 91.8(3) . . ?
O27 M18B O15 154.3(6) . . ?
Mo18 M18B O17 81.8(6) . . ?
O73 M18B O17 94.2(4) . . ?
O8 M18B O17 156.3(6) . . ?
O27 M18B O17 88.8(3) . . ?
O15 M18B O17 70.4(3) . . ?
Mo18 M18B O54 5.8(4) . . ?
O73 M18B O54 174.0(4) . . ?
O8 M18B O54 82.0(5) . . ?
O27 M18B O54 80.9(5) . . ?
O15 M18B O54 80.8(4) . . ?
O17 M18B O54 79.9(4) . . ?
Mo18 M18B Mo7B 99.8(9) . . ?
O73 M18B Mo7B 79.5(8) . . ?
O8 M18B Mo7B 129.3(5) . . ?
O27 M18B Mo7B 126.4(5) . . ?
O15 M18B Mo7B 38.4(5) . . ?
O17 M18B Mo7B 38.7(5) . . ?
O54 M18B Mo7B 95.1(7) . . ?
M19B Mo19 O66 175.4(6) . . ?
M19B Mo19 O13 80.6(6) . . ?
O66 Mo19 O13 102.5(2) . . ?
M19B Mo19 O2 79.8(6) . . ?
O66 Mo19 O2 102.5(2) . . ?
O13 Mo19 O2 104.3(2) . . ?
M19B Mo19 O24 79.1(6) . . ?
O66 Mo19 O24 96.8(2) . . ?
O13 Mo19 O24 152.7(2) . . ?
O2 Mo19 O24 89.8(2) . . ?
M19B Mo19 O26 79.6(6) . . ?
O66 Mo19 O26 97.0(2) . . ?
O13 Mo19 O26 89.5(2) . . ?
O2 Mo19 O26 152.9(2) . . ?
O24 Mo19 O26 69.09(18) . . ?
M19B Mo19 O67 1.9(6) . . ?
O66 Mo19 O67 173.5(2) . . ?
O13 Mo19 O67 81.6(2) . . ?
O2 Mo19 O67 81.1(2) . . ?
O24 Mo19 O67 77.66(19) . . ?
O26 Mo19 O67 77.95(19) . . ?
Mo19 M19B O67 177.4(8) . . ?
Mo19 M19B O2 79.1(7) . . ?
O67 M19B O2 102.7(6) . . ?
Mo19 M19B O13 78.2(7) . . ?
O67 M19B O13 103.1(6) . . ?
O2 M19B O13 103.5(4) . . ?
Mo19 M19B O24 82.4(7) . . ?
O67 M19B O24 95.7(5) . . ?
O2 M19B O24 90.3(4) . . ?
O13 M19B O24 153.4(7) . . ?
Mo19 M19B O26 81.9(7) . . ?
O67 M19B O26 95.8(5) . . ?
O2 M19B O26 154.1(7) . . ?
O13 M19B O26 89.5(4) . . ?
O24 M19B O26 69.7(3) . . ?
Mo19 M19B O66 3.3(4) . . ?
O67 M19B O66 174.1(4) . . ?
O2 M19B O66 80.8(5) . . ?
O13 M19B O66 80.5(5) . . ?
O24 M19B O66 79.4(4) . . ?
O26 M19B O66 79.4(4) . . ?
Mo19 M19B M4B 97.1(10) . . ?
O67 M19B M4B 80.3(8) . . ?
O2 M19B M4B 127.3(6) . . ?
O13 M19B M4B 127.3(6) . . ?
O24 M19B M4B 37.8(5) . . ?
O26 M19B M4B 38.5(6) . . ?
O66 M19B M4B 93.8(8) . . ?
M20B Mo20 O55 175.7(4) . . ?
M20B Mo20 O14 78.9(4) . . ?
O55 Mo20 O14 102.7(2) . . ?
M20B Mo20 O35 80.5(4) . . ?
O55 Mo20 O35 102.7(2) . . ?
O14 Mo20 O35 104.3(2) . . ?
M20B Mo20 O1 80.4(4) . . ?
O55 Mo20 O1 96.8(2) . . ?
O14 Mo20 O1 152.7(2) . . ?
O35 Mo20 O1 89.58(19) . . ?
M20B Mo20 O9 79.4(4) . . ?
O55 Mo20 O9 96.6(2) . . ?
O14 Mo20 O9 89.4(2) . . ?
O35 Mo20 O9 153.0(2) . . ?
O1 Mo20 O9 69.40(17) . . ?
M20B Mo20 O72 3.0(4) . . ?
O55 Mo20 O72 173.1(2) . . ?
O14 Mo20 O72 81.5(2) . . ?
O35 Mo20 O72 81.2(2) . . ?
O1 Mo20 O72 77.44(19) . . ?
O9 Mo20 O72 77.9(2) . . ?
Mo20 M20B O72 175.7(6) . . ?
Mo20 M20B O14 78.4(4) . . ?
O72 M20B O14 105.3(4) . . ?
Mo20 M20B O35 77.0(4) . . ?
O72 M20B O35 103.9(4) . . ?
O14 M20B O35 103.2(3) . . ?
Mo20 M20B O9 80.9(4) . . ?
O72 M20B O9 97.0(4) . . ?
O14 M20B O9 89.6(3) . . ?
O35 M20B O9 151.4(5) . . ?
Mo20 M20B O1 79.9(4) . . ?
O72 M20B O1 96.0(3) . . ?
O14 M20B O1 151.9(5) . . ?
O35 M20B O1 88.9(3) . . ?
O9 M20B O1 69.5(2) . . ?
Mo20 M20B O55 3.0(3) . . ?
O72 M20B O55 173.1(3) . . ?
O14 M20B O55 79.6(3) . . ?
O35 M20B O55 79.3(3) . . ?
O9 M20B O55 78.1(3) . . ?
O1 M20B O55 77.9(3) . . ?
M21B Mo21 O53 175.4(5) . . ?
M21B Mo21 O41 80.3(5) . . ?
O53 Mo21 O41 102.7(2) . . ?
M21B Mo21 O48 79.2(5) . . ?
O53 Mo21 O48 103.2(2) . . ?
O41 Mo21 O48 104.4(2) . . ?
M21B Mo21 O3 79.1(5) . 2_645 ?
O53 Mo21 O3 96.9(2) . 2_645 ?
O41 Mo21 O3 152.3(2) . 2_645 ?
O48 Mo21 O3 89.7(2) . 2_645 ?
M21B Mo21 O4 80.0(5) . 2_645 ?
O53 Mo21 O4 96.5(2) . 2_645 ?
O41 Mo21 O4 89.5(2) . 2_645 ?
O48 Mo21 O4 152.5(2) . 2_645 ?
O3 Mo21 O4 68.84(17) 2_645 2_645 ?
M21B Mo21 O58 2.5(5) . . ?
O53 Mo21 O58 173.0(2) . . ?
O41 Mo21 O58 81.3(2) . . ?
O48 Mo21 O58 81.2(2) . . ?
O3 Mo21 O58 77.45(19) 2_645 . ?
O4 Mo21 O58 77.61(19) 2_645 . ?
Mo21 M21B O58 176.5(7) . . ?
Mo21 M21B O48 78.7(6) . . ?
O58 M21B O48 104.0(5) . . ?
Mo21 M21B O41 77.6(6) . . ?
O58 M21B O41 103.7(5) . . ?
O48 M21B O41 103.6(4) . . ?
Mo21 M21B O3 81.6(5) . 2_645 ?
O58 M21B O3 96.1(4) . 2_645 ?
O48 M21B O3 90.1(3) . 2_645 ?
O41 M21B O3 152.1(5) . 2_645 ?
Mo21 M21B O4 80.8(5) . 2_645 ?
O58 M21B O4 95.9(4) . 2_645 ?
O48 M21B O4 152.7(5) . 2_645 ?
O41 M21B O4 89.2(3) . 2_645 ?
O3 M21B O4 69.2(3) 2_645 2_645 ?
Mo21 M21B O53 3.3(4) . . ?
O58 M21B O53 173.3(4) . . ?
O48 M21B O53 80.4(4) . . ?
O41 M21B O53 79.7(4) . . ?
O3 M21B O53 78.8(4) 2_645 . ?
O4 M21B O53 78.3(4) 2_645 . ?
M22B Mo22 O83 173.5(5) . . ?
M22B Mo22 O11 80.4(5) . . ?
O83 Mo22 O11 102.5(2) . . ?
M22B Mo22 O34 82.1(5) . . ?
O83 Mo22 O34 102.6(2) . . ?
O11 Mo22 O34 104.7(2) . . ?
M22B Mo22 O17 79.1(5) . . ?
O83 Mo22 O17 96.3(2) . . ?
O11 Mo22 O17 152.8(2) . . ?
O34 Mo22 O17 89.9(2) . . ?
M22B Mo22 O1 77.3(5) . . ?
O83 Mo22 O1 96.8(2) . . ?
O11 Mo22 O1 89.20(19) . . ?
O34 Mo22 O1 152.8(2) . . ?
O17 Mo22 O1 69.06(17) . . ?
M22B Mo22 O84 1.4(6) . . ?
O83 Mo22 O84 172.9(2) . . ?
O11 Mo22 O84 81.8(2) . . ?
O34 Mo22 O84 81.5(2) . . ?
O17 Mo22 O84 77.8(2) . . ?
O1 Mo22 O84 77.5(2) . . ?
Mo22 M22B O84 178.1(8) . . ?
Mo22 M22B O11 78.5(6) . . ?
O84 M22B O11 103.4(5) . . ?
Mo22 M22B O34 77.1(6) . . ?
O84 M22B O34 102.1(5) . . ?
O11 M22B O34 103.1(4) . . ?
Mo22 M22B O1 84.3(6) . . ?
O84 M22B O1 95.9(5) . . ?
O11 M22B O1 90.2(3) . . ?
O34 M22B O1 154.3(6) . . ?
Mo22 M22B O17 82.6(6) . . ?
O84 M22B O17 95.7(5) . . ?
O11 M22B O17 154.0(6) . . ?
O34 M22B O17 89.7(3) . . ?
O1 M22B O17 70.2(3) . . ?
Mo22 M22B O83 4.7(4) . . ?
O84 M22B O83 174.3(4) . . ?
O11 M22B O83 80.7(5) . . ?
O34 M22B O83 80.5(5) . . ?
O1 M22B O83 80.0(4) . . ?
O17 M22B O83 79.2(4) . . ?
Mo22 M22B Mo7B 99.1(9) . . ?
O84 M22B Mo7B 79.9(7) . . ?
O11 M22B Mo7B 128.6(5) . . ?
O34 M22B Mo7B 126.7(5) . . ?
O1 M22B Mo7B 39.2(5) . . ?
O17 M22B Mo7B 38.0(5) . . ?
O83 M22B Mo7B 94.5(7) . . ?
Mo7 O1 M22B 109.5(3) . . ?
Mo7 O1 Mo20 107.9(2) . . ?
M22B O1 Mo20 142.6(3) . . ?
Mo7 O1 M20B 108.9(2) . . ?
M22B O1 M20B 135.3(4) . . ?
Mo20 O1 M20B 19.7(2) . . ?
Mo7 O1 Mo22 108.1(2) . . ?
M22B O1 Mo22 18.4(3) . . ?
Mo20 O1 Mo22 140.4(2) . . ?
M20B O1 Mo22 142.8(3) . . ?
Mo7 O1 Mo7B 23.1(10) . . ?
M22B O1 Mo7B 102.7(8) . . ?
Mo20 O1 Mo7B 110.7(7) . . ?
M20B O1 Mo7B 103.6(8) . . ?
Mo22 O1 Mo7B 108.9(7) . . ?
Mo19 O2 M19B 21.1(4) . . ?
Mo19 O2 Mo5 154.7(3) . 2_645 ?
M19B O2 Mo5 149.0(4) . 2_645 ?
Mo19 O2 M5B 141.9(6) . 2_645 ?
M19B O2 M5B 127.0(7) . 2_645 ?
Mo5 O2 M5B 24.8(5) 2_645 2_645 ?
Mo4 O3 M21B 109.8(3) . 3_765 ?
Mo4 O3 Mo21 108.5(2) . 3_765 ?
M21B O3 Mo21 19.3(3) 3_765 3_765 ?
Mo4 O3 Mo17 108.5(2) . . ?
M21B O3 Mo17 141.5(3) 3_765 . ?
Mo21 O3 Mo17 139.9(2) 3_765 . ?
Mo4 O3 M17B 109.2(2) . . ?
M21B O3 M17B 134.4(3) 3_765 . ?
Mo21 O3 M17B 142.1(3) 3_765 . ?
Mo17 O3 M17B 18.49(18) . . ?
Mo4 O3 M4B 22.4(11) . . ?
M21B O3 M4B 104.2(8) 3_765 . ?
Mo21 O3 M4B 110.7(8) 3_765 . ?
Mo17 O3 M4B 109.4(8) . . ?
M17B O3 M4B 102.8(8) . . ?
Mo4 O4 M16B 108.8(3) . . ?
Mo4 O4 M21B 109.3(3) . 3_765 ?
M16B O4 M21B 134.8(4) . 3_765 ?
Mo4 O4 Mo21 108.4(2) . 3_765 ?
M16B O4 Mo21 142.6(3) . 3_765 ?
M21B O4 Mo21 19.3(3) 3_765 3_765 ?
Mo4 O4 Mo16 108.4(2) . . ?
M16B O4 Mo16 19.0(4) . . ?
M21B O4 Mo16 142.0(3) 3_765 . ?
Mo21 O4 Mo16 140.1(2) 3_765 . ?
Mo4 O4 M4B 22.4(11) . . ?
M16B O4 M4B 102.0(9) . . ?
M21B O4 M4B 103.8(8) 3_765 . ?
Mo21 O4 M4B 110.7(8) 3_765 . ?
Mo16 O4 M4B 109.2(8) . . ?
Mo13 O5 M13B 20.8(3) . . ?
Mo13 O5 M8B 146.0(5) . . ?
M13B O5 M8B 130.0(7) . . ?
Mo13 O5 Mo8 155.0(3) . . ?
M13B O5 Mo8 148.9(4) . . ?
M8B O5 Mo8 23.4(6) . . ?
Mo2 O6 Mo1 83.31(18) . . ?
Mo9 O7 Mo10 83.68(19) . . ?
M18B O8 Mo18 19.9(4) . . ?
M18B O8 Mo2 147.8(4) . 12_545 ?
Mo18 O8 Mo2 155.5(3) . 12_545 ?
Mo7 O9 M13B 109.7(2) . . ?
Mo7 O9 M20B 109.6(2) . . ?
M13B O9 M20B 133.9(4) . . ?
Mo7 O9 Mo20 108.1(2) . . ?
M13B O9 Mo20 142.0(3) . . ?
M20B O9 Mo20 19.8(2) . . ?
Mo7 O9 Mo13 108.5(2) . . ?
M13B O9 Mo13 18.2(3) . . ?
M20B O9 Mo13 141.5(3) . . ?
Mo20 O9 Mo13 140.3(2) . . ?
Mo7 O9 Mo7B 23.0(10) . . ?
M13B O9 Mo7B 103.6(8) . . ?
M20B O9 Mo7B 103.2(8) . . ?
Mo20 O9 Mo7B 109.8(7) . . ?
Mo13 O9 Mo7B 109.9(7) . . ?
Mo7 O10 Mo7B 0.9(6) . . ?
Mo22 O11 M22B 21.1(4) . . ?
Mo22 O11 Mo1 155.7(3) . . ?
M22B O11 Mo1 148.8(4) . . ?
Mo16 O12 M16B 21.7(5) . . ?
Mo16 O12 M6B 143.5(5) . . ?
M16B O12 M6B 127.6(7) . . ?
Mo16 O12 Mo6 155.1(3) . . ?
M16B O12 Mo6 148.7(5) . . ?
M6B O12 Mo6 24.1(5) . . ?
Mo19 O13 M19B 21.1(4) . . ?
Mo19 O13 Mo3 155.8(3) . . ?
M19B O13 Mo3 149.1(4) . . ?
Mo19 O13 M3B 143.9(5) . . ?
M19B O13 M3B 128.1(7) . . ?
Mo3 O13 M3B 23.9(5) . . ?
Mo20 O14 M20B 22.7(2) . . ?
Mo20 O14 Mo8 156.0(3) . . ?
M20B O14 Mo8 148.7(3) . . ?
Mo20 O14 M8B 145.3(5) . . ?
M20B O14 M8B 128.4(6) . . ?
Mo8 O14 M8B 23.1(5) . . ?
M18B O15 Mo7 110.3(3) . . ?
M18B O15 Mo7B 103.9(8) . . ?
Mo7 O15 Mo7B 23.4(10) . . ?
M18B O15 Mo18 17.5(3) . . ?
Mo7 O15 Mo18 108.3(2) . . ?
Mo7B O15 Mo18 109.3(7) . . ?
M18B O15 M15B 134.7(4) . . ?
Mo7 O15 M15B 108.8(3) . . ?
Mo7B O15 M15B 102.9(8) . . ?
Mo18 O15 M15B 142.6(3) . . ?
M18B O15 Mo15 142.0(3) . . ?
Mo7 O15 Mo15 107.7(2) . . ?
Mo7B O15 Mo15 110.1(7) . . ?
Mo18 O15 Mo15 140.6(2) . . ?
M15B O15 Mo15 20.0(3) . . ?
M8B O16 Mo6 86.9(5) . . ?
M8B O16 Mo8 24.6(6) . . ?
Mo6 O16 Mo8 83.63(19) . . ?
M8B O16 M6B 81.0(6) . . ?
Mo6 O16 M6B 25.3(5) . . ?
Mo8 O16 M6B 88.4(5) . . ?
Mo7 O17 Mo7B 23.5(10) . . ?
Mo7 O17 M22B 108.9(3) . . ?
Mo7B O17 M22B 103.7(8) . . ?
Mo7 O17 M18B 108.3(2) . . ?
Mo7B O17 M18B 102.2(8) . . ?
M22B O17 M18B 137.4(4) . . ?
Mo7 O17 Mo18 108.5(2) . . ?
Mo7B O17 Mo18 109.6(8) . . ?
M22B O17 Mo18 142.5(3) . . ?
M18B O17 Mo18 17.4(3) . . ?
Mo7 O17 Mo22 108.3(2) . . ?
Mo7B O17 Mo22 110.8(8) . . ?
M22B O17 Mo22 18.4(3) . . ?
M18B O17 Mo22 143.3(3) . . ?
Mo18 O17 Mo22 139.7(2) . . ?
Mo1 O18 Mo2 83.27(18) . . ?
Mo14 O20 Mo11 83.41(18) . . ?
Mo7 O21 M15B 109.2(2) . . ?
Mo7 O21 M13B 108.5(2) . . ?
M15B O21 M13B 135.2(4) . . ?
Mo7 O21 Mo15 108.1(2) . . ?
M15B O21 Mo15 20.1(3) . . ?
M13B O21 Mo15 143.2(3) . . ?
Mo7 O21 Mo13 108.3(2) . . ?
M15B O21 Mo13 142.2(3) . . ?
M13B O21 Mo13 18.2(3) . . ?
Mo15 O21 Mo13 140.5(2) . . ?
Mo7 O21 Mo7B 23.1(10) . . ?
M15B O21 Mo7B 101.7(8) . . ?
M13B O21 Mo7B 103.5(8) . . ?
Mo15 O21 Mo7B 108.8(7) . . ?
Mo13 O21 Mo7B 110.7(7) . . ?
Mo4 O22 M12B 109.6(5) . . ?
Mo4 O22 M16B 109.1(3) . . ?
M12B O22 M16B 134.5(7) . . ?
Mo4 O22 M4B 22.6(11) . . ?
M12B O22 M4B 102.7(10) . . ?
M16B O22 M4B 103.9(8) . . ?
Mo4 O22 Mo12 108.3(2) . . ?
M12B O22 Mo12 19.2(9) . . ?
M16B O22 Mo12 142.3(3) . . ?
M4B O22 Mo12 109.1(8) . . ?
Mo4 O22 Mo16 108.3(2) . . ?
M12B O22 Mo16 141.9(5) . . ?
M16B O22 Mo16 19.1(4) . . ?
M4B O22 Mo16 110.8(8) . . ?
Mo12 O22 Mo16 140.1(2) . . ?
Mo6 O23 Mo8 83.52(19) . . ?
Mo6 O23 M8B 84.6(4) . . ?
Mo8 O23 M8B 23.9(5) . . ?
Mo6 O23 M6B 24.4(5) . . ?
Mo8 O23 M6B 85.6(4) . . ?
M8B O23 M6B 76.8(6) . . ?
M4B O24 Mo4 22.7(11) . . ?
M4B O24 M19B 103.8(9) . . ?
Mo4 O24 M19B 109.3(3) . . ?
M4B O24 M12B 102.8(10) . . ?
Mo4 O24 M12B 108.7(5) . . ?
M19B O24 M12B 136.1(7) . . ?
M4B O24 Mo12 110.0(8) . . ?
Mo4 O24 Mo12 108.2(2) . . ?
M19B O24 Mo12 142.4(3) . . ?
M12B O24 Mo12 19.2(9) . . ?
M4B O24 Mo19 110.0(8) . . ?
Mo4 O24 Mo19 107.9(2) . . ?
M19B O24 Mo19 18.5(3) . . ?
M12B O24 Mo19 143.2(5) . . ?
Mo12 O24 Mo19 140.0(2) . . ?
Mo10 O25 Mo9 83.54(19) . . ?
Mo4 O26 M4B 22.6(11) . . ?
Mo4 O26 M19B 109.5(3) . . ?
M4B O26 M19B 102.8(9) . . ?
Mo4 O26 M17B 109.7(2) . . ?
M4B O26 M17B 104.6(8) . . ?
M19B O26 M17B 134.6(4) . . ?
Mo4 O26 Mo19 108.3(2) . . ?
M4B O26 Mo19 109.1(8) . . ?
M19B O26 Mo19 18.5(3) . . ?
M17B O26 Mo19 141.8(3) . . ?
Mo4 O26 Mo17 108.3(2) . . ?
M4B O26 Mo17 110.7(8) . . ?
M19B O26 Mo17 142.1(3) . . ?
M17B O26 Mo17 18.54(18) . . ?
Mo19 O26 Mo17 140.2(2) . . ?
Mo18 O27 M18B 19.5(3) . . ?
Mo18 O27 Mo14 155.2(3) . 11_665 ?
M18B O27 Mo14 150.6(4) . 11_665 ?
Mo13 O28 M13B 20.8(3) . . ?
Mo13 O28 Mo9 156.1(3) . . ?
M13B O28 Mo9 150.4(4) . . ?
Mo15 O29 M15B 22.9(3) . . ?
Mo15 O29 Mo9 155.3(3) . . ?
M15B O29 Mo9 147.8(4) . . ?
Mo8 O30 M8B 2.6(3) . . ?
Mo16 O31 M16B 21.5(5) . . ?
Mo16 O31 Mo11 155.7(3) . 3_765 ?
M16B O31 Mo11 148.3(5) . 3_765 ?
M17B O32 Mo17 21.4(2) . . ?
M17B O32 M3B 129.2(6) . . ?
Mo17 O32 M3B 145.6(6) . . ?
M17B O32 Mo3 149.2(3) . . ?
Mo17 O32 Mo3 155.1(3) . . ?
M3B O32 Mo3 24.4(5) . . ?
Mo15 O33 M15B 22.9(3) . . ?
Mo15 O33 Mo2 156.2(3) . 12_545 ?
M15B O33 Mo2 148.5(4) . 12_545 ?
Mo22 O34 M22B 20.8(3) . . ?
Mo22 O34 Mo14 154.9(3) . 11_665 ?
M22B O34 Mo14 149.6(4) . 11_665 ?
Mo20 O35 M20B 22.5(2) . . ?
Mo20 O35 Mo1 154.8(3) . . ?
M20B O35 Mo1 149.2(3) . . ?
Mo12 O36 M12B 21.6(10) . . ?
Mo12 O36 M5B 144.4(6) . 2_645 ?
M12B O36 M5B 127.5(11) . 2_645 ?
Mo12 O36 Mo5 155.7(3) . 2_645 ?
M12B O36 Mo5 149.1(8) . 2_645 ?
M5B O36 Mo5 25.3(6) 2_645 2_645 ?
Mo5 O37 Mo3 83.54(19) . . ?
Mo5 O37 M3B 84.7(5) . . ?
Mo3 O37 M3B 24.8(5) . . ?
Mo5 O37 M5B 24.9(5) . . ?
Mo3 O37 M5B 85.5(5) . . ?
M3B O37 M5B 76.2(6) . . ?
Mo17 O39 M17B 21.3(2) . . ?
Mo17 O39 Mo10 155.8(3) . 3_765 ?
M17B O39 Mo10 149.9(3) . 3_765 ?
Mo15 O40 M15B 1.50(15) . . ?
Mo21 O41 M21B 22.1(3) . . ?
Mo21 O41 Mo11 155.9(3) . . ?
M21B O41 Mo11 149.1(4) . . ?
Mo14 O42 Mo11 83.22(18) . . ?
Mo16 O43 M16B 1.9(2) . . ?
M3B O47 Mo3 25.5(6) . . ?
M3B O47 Mo5 86.8(5) . . ?
Mo3 O47 Mo5 83.23(19) . . ?
M3B O47 M5B 81.1(7) . . ?
Mo3 O47 M5B 88.9(5) . . ?
Mo5 O47 M5B 26.0(6) . . ?
Mo21 O48 M21B 22.1(3) . . ?
Mo21 O48 Mo10 155.7(3) . . ?
M21B O48 Mo10 149.0(4) . . ?
Mo4 O50 M4B 0.8(7) . . ?
Mo12 O51 M12B 21.9(10) . . ?
Mo12 O51 M6B 144.1(6) . . ?
M12B O51 M6B 126.6(11) . . ?
Mo12 O51 Mo6 155.8(3) . . ?
M12B O51 Mo6 147.6(8) . . ?
M6B O51 Mo6 24.4(5) . . ?
Mo21 O53 M21B 1.33(15) . . ?
Mo18 O54 M18B 2.10(15) . . ?
Mo20 O55 M20B 1.25(12) . . ?
M4B O56 Mo4 1.3(11) . . ?
M21B O58 Mo21 1.0(2) . . ?
Mo17 O59 M17B 1.31(11) . . ?
Mo12 O60 M12B 2.0(4) . . ?
M16B O62 Mo16 0.3(4) . . ?
Mo13 O63 M13B 1.60(14) . . ?
M13B O64 Mo13 0.7(2) . . ?
M15B O65 Mo15 0.9(2) . . ?
Mo19 O66 M19B 1.30(17) . . ?
M19B O67 Mo19 0.7(2) . . ?
M17B O68 Mo17 1.01(14) . . ?
C1 O69 Mo14 118.9(5) . . ?
M12B O70 Mo12 0.8(6) . . ?
C1 O71 Mo11 118.6(5) . . ?
M20B O72 Mo20 1.24(17) . . ?
M18B O73 Mo18 1.5(2) . . ?
C3 O74 M6B 119.4(8) . . ?
C3 O74 Mo6 117.4(6) . . ?
M6B O74 Mo6 3.1(6) . . ?
C3 O75 M8B 118.0(8) . . ?
C3 O75 Mo8 118.0(6) . . ?
M8B O75 Mo8 2.0(6) . . ?
C5 O76 Mo2 117.3(5) . . ?
Mo7B O77 Mo7 1.3(10) . . ?
C5 O78 Mo1 118.0(5) . . ?
C9 O79 M3B 117.8(8) . . ?
C9 O79 Mo3 117.7(6) . . ?
M3B O79 Mo3 2.5(6) . . ?
C9 O80 M5B 119.4(9) . . ?
C9 O80 Mo5 116.9(6) . . ?
M5B O80 Mo5 4.3(6) . . ?
C7 O81 Mo10 117.1(6) . . ?
C7 O82 Mo9 117.7(6) . . ?
Mo22 O83 M22B 1.82(15) . . ?
M22B O84 Mo22 0.5(2) . . ?
O71 C1 O69 130.0(8) . . ?
O71 C1 C2 114.0(10) . . ?
O69 C1 C2 115.6(10) . . ?
O71 C1 C2B 113.1(12) . . ?
O69 C1 C2B 114.5(12) . . ?
C2 C1 C2B 23.8(11) . . ?
O85 C2 O86 121(2) . . ?
O85 C2 C1 119.2(19) . . ?
O86 C2 C1 116.7(18) . . ?
O85B C2B O86B 128(3) . . ?
O85B C2B C1 117(2) . . ?
O86B C2B C1 115(2) . . ?
O75 C3 O74 131.6(9) . . ?
O75 C3 C4 113.8(13) . . ?
O74 C3 C4 112.9(13) . . ?
O75 C3 C4B 113.3(12) . . ?
O74 C3 C4B 114.4(12) . . ?
C4 C3 C4B 24.7(12) . . ?
O75 C3 M8B 34.5(5) . . ?
O74 C3 M8B 97.2(7) . . ?
C4 C3 M8B 147.3(13) . . ?
C4B C3 M8B 145.7(12) . . ?
O75 C3 M6B 98.7(7) . . ?
O74 C3 M6B 33.0(5) . . ?
C4 C3 M6B 145.0(13) . . ?
C4B C3 M6B 145.3(12) . . ?
M8B C3 M6B 64.2(6) . . ?
O88 C4 O87 121(3) . . ?
O88 C4 C3 118(2) . . ?
O87 C4 C3 120(2) . . ?
O88B C4B O87B 122(3) . . ?
O88B C4B C3 118(2) . . ?
O87B C4B C3 119(2) . . ?
O78 C5 O76 132.1(8) . . ?
O78 C5 C6B 114.0(12) . . ?
O76 C5 C6B 112.8(11) . . ?
O78 C5 C6 113.8(11) . . ?
O76 C5 C6 113.2(11) . . ?
C6B C5 C6 22.3(11) . . ?
O89 C6 O90 124(3) . . ?
O89 C6 C5 117(2) . . ?
O90 C6 C5 118(2) . . ?
O90B C6B O89B 123(3) . . ?
O90B C6B C5 118(2) . . ?
O89B C6B C5 119(2) . . ?
O81 C7 O82 132.3(9) . . ?
O81 C7 C8 113.1(11) . . ?
O82 C7 C8 114.0(11) . . ?
O81 C7 C8B 111.3(13) . . ?
O82 C7 C8B 114.1(13) . . ?
C8 C7 C8B 26.7(11) . . ?
O92 C8 O91 121(2) . . ?
O92 C8 C7 118(2) . . ?
O91 C8 C7 119(2) . . ?
O91B C8B O92B 122(3) . . ?
O91B C8B C7 118(2) . . ?
O92B C8B C7 116(2) . . ?
O79 C9 O80 132.4(9) . . ?
O79 C9 C10B 115.0(13) . . ?
O80 C9 C10B 111.4(13) . . ?
O79 C9 C10 115.0(12) . . ?
O80 C9 C10 111.2(12) . . ?
C10B C9 C10 25.6(12) . . ?
O79 C9 M3B 34.4(5) . . ?
O80 C9 M3B 98.0(7) . . ?
C10B C9 M3B 148.3(13) . . ?
C10 C9 M3B 147.1(12) . . ?
O79 C9 M5B 99.9(7) . . ?
O80 C9 M5B 32.6(5) . . ?
C10B C9 M5B 143.1(13) . . ?
C10 C9 M5B 141.7(12) . . ?
M3B C9 M5B 65.5(6) . . ?
O93 C10 O94 124(3) . . ?
O93 C10 C9 119(2) . . ?
O94 C10 C9 116(2) . . ?
O94B C10B O93B 124(3) . . ?
O94B C10B C9 117(2) . . ?
O93B C10B C9 120(2) . . ?

_diffrn_measured_fraction_theta_max 0.959
_diffrn_reflns_theta_full        27.00
_diffrn_measured_fraction_theta_full 0.959
_refine_diff_density_max         1.234
_refine_diff_density_min         -0.960
_refine_diff_density_rms         0.176

# Attachment 'oxamo.cif'

# OXAMO: oxamo in R-3

data_oxamo
_database_code_depnum_ccdc_archive 'CCDC 297963'

_publ_section_experimental       
;
;
_publ_section_references         
;
Bruker AXS (2001/3). Bruker AXS Inc., Madison, Wisconsin, USA.

Crystal Impact (2001). DIAMOND 2.1. Crystal Impact GbR, Bonn, Germany.

Sheldrick, G. M. (1997). SHELXS/L-97. University of Gottingen, Germany.

;

_publ_section_table_legends      
;
;

_publ_section_figure_captions    
;
;
_publ_section_acknowledgements   
;
;

_audit_creation_method           SHELXL-97
_chemical_name_systematic        
;
?
;
_chemical_name_common            ?
_chemical_melting_point          ?
_chemical_formula_moiety         ?
_chemical_formula_sum            'C64 H946 Mo132 N42 O872'
_chemical_formula_weight         28926.71

loop_
_atom_type_symbol
_atom_type_description
_atom_type_scat_dispersion_real
_atom_type_scat_dispersion_imag
_atom_type_scat_source
O O 0.0106 0.0060 'International Tables Vol C Tables 4.2.6.8 and 6.1.1.4'
H H 0.0000 0.0000 'International Tables Vol C Tables 4.2.6.8 and 6.1.1.4'
Mo Mo -1.6832 0.6857 'International Tables Vol C Tables 4.2.6.8 and 6.1.1.4'
C C 0.0033 0.0016 'International Tables Vol C Tables 4.2.6.8 and 6.1.1.4'
N N 0.0061 0.0033 'International Tables Vol C Tables 4.2.6.8 and 6.1.1.4'

_symmetry_cell_setting           rhombohedral
_symmetry_space_group_name_H-M   R-3

loop_
_symmetry_equiv_pos_as_xyz
'x, y, z'
'-y, x-y, z'
'-x+y, -x, z'
'x+2/3, y+1/3, z+1/3'
'-y+2/3, x-y+1/3, z+1/3'
'-x+y+2/3, -x+1/3, z+1/3'
'x+1/3, y+2/3, z+2/3'
'-y+1/3, x-y+2/3, z+2/3'
'-x+y+1/3, -x+2/3, z+2/3'
'-x, -y, -z'
'y, -x+y, -z'
'x-y, x, -z'
'-x+2/3, -y+1/3, -z+1/3'
'y+2/3, -x+y+1/3, -z+1/3'
'x-y+2/3, x+1/3, -z+1/3'
'-x+1/3, -y+2/3, -z+2/3'
'y+1/3, -x+y+2/3, -z+2/3'
'x-y+1/3, x+2/3, -z+2/3'

_cell_length_a                   32.6802(8)
_cell_length_b                   32.6802(8)
_cell_length_c                   73.440(2)
_cell_angle_alpha                90.00
_cell_angle_beta                 90.00
_cell_angle_gamma                120.00
_cell_volume                     67926(3)
_cell_formula_units_Z            3
_cell_measurement_temperature    188(2)
_cell_measurement_reflns_used    7687
_cell_measurement_theta_min      2.36
_cell_measurement_theta_max      27.00

_exptl_crystal_description       rhombohedral
_exptl_crystal_colour            brown
_exptl_crystal_size_max          0.20
_exptl_crystal_size_mid          0.20
_exptl_crystal_size_min          0.12
_exptl_crystal_density_meas      ?
_exptl_crystal_density_diffrn    2.121
_exptl_crystal_density_method    'not measured'
_exptl_crystal_F_000             42432
_exptl_absorpt_coefficient_mu    1.884
_exptl_absorpt_correction_type   multi-scan
_exptl_absorpt_correction_T_min  0.7026
_exptl_absorpt_correction_T_max  0.8042
_exptl_absorpt_process_details   'SADABS 2.10 (Bruker AXS, 2003)'

_exptl_special_details           
;
?
;

_diffrn_ambient_temperature      188(2)
_diffrn_radiation_wavelength     0.71073
_diffrn_radiation_type           MoK\a
_diffrn_radiation_source         'fine-focus sealed tube'
_diffrn_radiation_monochromator  graphite
_diffrn_measurement_device_type  'Bruker AXS SMART 1K'
_diffrn_measurement_method       omega-scan
_diffrn_detector_area_resol_mean ?
_diffrn_standards_number         0
_diffrn_standards_interval_count 0
_diffrn_standards_interval_time  0
_diffrn_standards_decay_%        0
_diffrn_reflns_number            136068
_diffrn_reflns_av_R_equivalents  0.0310
_diffrn_reflns_av_sigmaI/netI    0.0275
_diffrn_reflns_limit_h_min       -41
_diffrn_reflns_limit_h_max       18
_diffrn_reflns_limit_k_min       -40
_diffrn_reflns_limit_k_max       41
_diffrn_reflns_limit_l_min       -92
_diffrn_reflns_limit_l_max       93
_diffrn_reflns_theta_min         1.66
_diffrn_reflns_theta_max         26.99
_reflns_number_total             32868
_reflns_number_gt                26266
_reflns_threshold_expression     >2sigma(I)

_computing_data_collection       'SMART (Bruker AXS, 2001)'
_computing_cell_refinement       'SAINT (Bruker AXS, 2001)'
_computing_data_reduction        'SAINT (Bruker AXS, 2001)'
_computing_structure_solution    'SHELXS-97 (Sheldrick, 1997)'
_computing_structure_refinement  'SHELXL-97 (Sheldrick, 1997)'
_computing_molecular_graphics    'DIAMOND 2.1 (Crystal Impact, 2001)'
_computing_publication_material  'SHELXL-97 (Sheldrick, 1997)'

_refine_special_details          
;
Refinement of F^2^ against ALL reflections. The weighted R-factor wR and
goodness of fit S are based on F^2^, conventional R-factors R are based
on F, with F set to zero for negative F^2^. The threshold expression of
F^2^ > 2sigma(F^2^) is used only for calculating R-factors(gt) etc. and is
not relevant to the choice of reflections for refinement. R-factors based
on F^2^ are statistically about twice as large as those based on F, and R-
factors based on ALL data will be even larger.
;

_refine_ls_structure_factor_coef Fsqd
_refine_ls_matrix_type           full
_refine_ls_weighting_scheme      calc
_refine_ls_weighting_details     
'calc w=1/[\s^2^(Fo^2^)+(0.0789P)^2^+1205.3284P] where P=(Fo^2^+2Fc^2^)/3'
_atom_sites_solution_primary     direct
_atom_sites_solution_secondary   difmap
_atom_sites_solution_hydrogens   ?
_refine_ls_hydrogen_treatment    undef
_refine_ls_extinction_method     none
_refine_ls_extinction_coef       ?
_refine_ls_number_reflns         32868
_refine_ls_number_parameters     1375
_refine_ls_number_restraints     0
_refine_ls_R_factor_all          0.0614
_refine_ls_R_factor_gt           0.0453
_refine_ls_wR_factor_ref         0.1502
_refine_ls_wR_factor_gt          0.1302
_refine_ls_goodness_of_fit_ref   1.075
_refine_ls_restrained_S_all      1.075
_refine_ls_shift/su_max          0.003
_refine_ls_shift/su_mean         0.000

loop_
_atom_site_label
_atom_site_type_symbol
_atom_site_fract_x
_atom_site_fract_y
_atom_site_fract_z
_atom_site_U_iso_or_equiv
_atom_site_adp_type
_atom_site_occupancy
_atom_site_symmetry_multiplicity
_atom_site_calc_flag
_atom_site_refinement_flags
_atom_site_disorder_assembly
_atom_site_disorder_group
M1 Mo 0.596713(19) 0.738060(18) 0.029395(7) 0.02650(11) Uani 1 1 d . . .
M2A Mo 0.68455(3) 0.82290(2) 0.052436(10) 0.0257(2) Uani 0.924(3) 1 d P . .
M2B Mo 0.6663(4) 0.8162(3) 0.05970(14) 0.026(2) Uiso 0.076(3) 1 d P . .
M3A Mo 0.64917(3) 0.690616(19) 0.052497(10) 0.0253(2) Uani 0.964(3) 1 d P . .
M3B Mo 0.6321(6) 0.6885(4) 0.0593(2) 0.012(4) Uiso 0.036(3) 1 d P . .
M4 Mo 0.538184(19) 0.623110(18) 0.022234(7) 0.02637(11) Uani 1 1 d . . .
M5A Mo 0.50461(2) 0.71311(2) 0.003662(13) 0.0258(2) Uani 0.939(4) 1 d P . .
M5B Mo 0.4924(4) 0.7098(3) 0.0120(2) 0.024(3) Uiso 0.061(4) 1 d P . .
M6A Mo 0.59461(3) 0.83672(2) 0.022659(13) 0.0271(3) Uani 0.891(4) 1 d P . .
M6B Mo 0.5798(2) 0.82990(19) 0.03042(11) 0.0222(17) Uiso 0.109(4) 1 d P . .
M7 Mo 0.678262(19) 0.934446(18) 0.053559(7) 0.02725(11) Uani 1 1 d . . .
M8 Mo 0.736690(19) 0.775693(18) 0.086182(7) 0.02671(11) Uani 1 1 d . . .
M9 Mo 0.577489(18) 0.558257(18) 0.053328(7) 0.02628(11) Uani 1 1 d . . .
M10 Mo 0.420707(18) 0.582705(18) -0.000024(7) 0.02625(11) Uani 1 1 d . . .
M11 Mo 0.482560(19) 0.815148(19) 0.000113(7) 0.02713(11) Uani 1 1 d . . .
M12 Mo 0.643292(19) 1.091490(19) 0.134400(7) 0.02699(11) Uani 1 1 d . . .
M13A Mo 0.62534(3) 1.06619(4) 0.090603(9) 0.0266(3) Uani 0.913(4) 1 d P . .
M13B Mo 0.6086(3) 1.0435(4) 0.09393(9) 0.022(2) Uiso 0.087(4) 1 d P . .
M14A Mo 0.55723(3) 1.10895(3) 0.120979(8) 0.0256(2) Uani 0.893(3) 1 d P . .
M14B Mo 0.5420(2) 1.0837(3) 0.12311(7) 0.0246(17) Uiso 0.107(3) 1 d P . .
M15A Mo 0.60364(3) 1.12147(3) 0.170365(8) 0.0255(2) Uani 0.937(3) 1 d P . .
M15B Mo 0.5873(4) 1.0962(5) 0.17067(10) 0.019(3) Uiso 0.063(3) 1 d P . .
M16A Mo 0.70093(4) 1.08750(4) 0.170512(8) 0.0251(3) Uani 0.925(5) 1 d P . .
M16B Mo 0.6840(4) 1.0652(5) 0.17066(10) 0.022(3) Uiso 0.075(5) 1 d P . .
M17A Mo 0.71544(3) 1.05422(3) 0.121144(8) 0.0252(2) Uani 0.930(3) 1 d P . .
M17B Mo 0.6946(4) 1.0301(4) 0.12342(10) 0.022(3) Uiso 0.070(3) 1 d P . .
M18 Mo 0.687612(19) 1.003125(19) 0.073973(7) 0.02719(11) Uani 1 1 d . . .
M19 Mo 0.516027(18) 1.063980(19) 0.073632(7) 0.02748(11) Uani 1 1 d . . .
M20 Mo 0.492698(18) 1.124397(18) 0.160126(7) 0.02547(11) Uani 1 1 d . . .
M21 Mo 0.649335(19) 1.100582(19) 0.214121(7) 0.02715(11) Uani 1 1 d . . .
M22 Mo 0.769627(18) 1.025846(18) 0.160743(7) 0.02515(11) Uani 1 1 d . . .
O1 O 0.54909(17) 0.72499(16) 0.05459(6) 0.0357(10) Uani 1 1 d . . .
O2 O 0.64535(15) 0.75104(14) 0.04871(6) 0.0288(9) Uani 1 1 d . . .
O3 O 0.55775(15) 0.76449(15) 0.01934(6) 0.0294(9) Uani 1 1 d . . .
O4 O 0.59045(15) 0.67639(14) 0.03739(6) 0.0270(9) Uani 1 1 d . . .
O5 O 0.53642(15) 0.68467(15) 0.01928(6) 0.0291(9) Uani 1 1 d . . .
O6 O 0.62483(15) 0.80529(15) 0.03751(6) 0.0291(9) Uani 1 1 d . . .
O7 O 0.63114(16) 0.74741(16) 0.01108(6) 0.0320(10) Uani 1 1 d . . .
O8 O 0.69103(17) 0.87969(16) 0.05720(6) 0.0347(10) Uani 1 1 d . . .
O9 O 0.71474(17) 0.81345(16) 0.07066(6) 0.0344(10) Uani 1 1 d . . .
O10 O 0.62489(18) 0.79978(18) 0.07557(7) 0.0394(11) Uani 1 1 d . . .
O11 O 0.72126(17) 0.83393(17) 0.03452(7) 0.0381(11) Uani 1 1 d . . .
O12 O 0.62381(16) 0.62889(15) 0.05727(6) 0.0333(10) Uani 1 1 d . . .
O13 O 0.69049(16) 0.71978(16) 0.07077(6) 0.0322(10) Uani 1 1 d . . .
O14 O 0.68504(17) 0.69863(17) 0.03463(7) 0.0370(10) Uani 1 1 d . . .
O15 O 0.59345(18) 0.68319(18) 0.07576(7) 0.0406(11) Uani 1 1 d . . .
O16 O 0.47928(15) 0.59085(15) 0.01325(6) 0.0327(10) Uani 1 1 d . . .
O17 O 0.57196(17) 0.63044(17) 0.00358(6) 0.0369(10) Uani 1 1 d . . .
O18 O 0.54536(16) 0.58078(15) 0.03524(6) 0.0330(10) Uani 1 1 d . . .
O19 O 0.49577(17) 0.62312(18) 0.04906(7) 0.0404(11) Uani 1 1 d . . .
O20 O 0.45519(16) 0.65516(15) 0.00010(7) 0.0336(10) Uani 1 1 d . . .
O21 O 0.48135(16) 0.75177(15) 0.00015(7) 0.0339(10) Uani 1 1 d . . .
O22 O 0.53748(18) 0.72196(18) -0.01531(7) 0.0391(11) Uani 1 1 d . . .
O23 O 0.46607(18) 0.70265(18) 0.03265(7) 0.0425(12) Uani 1 1 d . . .
O24 O 0.54531(17) 0.83997(16) 0.01376(7) 0.0365(10) Uani 1 1 d . . .
O25 O 0.62628(17) 0.88892(16) 0.03596(7) 0.0349(10) Uani 1 1 d . . .
O26 O 0.62928(18) 0.84858(18) 0.00406(7) 0.0401(11) Uani 1 1 d . . .
O27 O 0.54571(19) 0.81140(19) 0.04931(7) 0.0434(12) Uani 1 1 d . . .
O28 O 0.64346(16) 0.96805(16) 0.05461(6) 0.0344(10) Uani 1 1 d . . .
O29 O 0.71065(16) 0.95903(16) 0.07665(6) 0.0319(9) Uani 1 1 d . . .
O30 O 0.72028(17) 0.96432(16) 0.03790(7) 0.0374(10) Uani 1 1 d . . .
O31 O 0.61822(19) 0.88483(17) 0.07377(8) 0.0477(13) Uani 1 1 d . C .
O32 O 0.73162(16) 0.72934(15) 0.10400(6) 0.0323(10) Uani 1 1 d . . .
O33 O 0.75717(16) 0.82687(15) 0.10375(6) 0.0316(9) Uani 1 1 d . . .
O34 O 0.78629(17) 0.78928(18) 0.07437(7) 0.0384(11) Uani 1 1 d . . .
O35 O 0.66317(17) 0.7555(2) 0.09966(7) 0.0440(12) Uani 1 1 d . . .
O36 O 0.59950(16) 0.54860(15) 0.07663(6) 0.0327(10) Uani 1 1 d . . .
O37 O 0.51773(16) 0.49923(15) 0.05408(6) 0.0319(9) Uani 1 1 d . . .
O38 O 0.60994(17) 0.54878(17) 0.03778(6) 0.0357(10) Uani 1 1 d . . .
O39 O 0.5351(2) 0.57988(18) 0.07294(7) 0.0456(13) Uani 1 1 d . A .
O40 O 0.36324(16) 0.58529(15) -0.00391(7) 0.0331(10) Uani 1 1 d . . .
O41 O 0.38836(15) 0.51922(16) 0.01014(6) 0.0325(10) Uani 1 1 d . . .
O42 O 0.43725(17) 0.57597(17) -0.02109(6) 0.0375(11) Uani 1 1 d . . .
O43 O 0.40734(18) 0.59935(19) 0.02973(7) 0.0445(12) Uani 1 1 d . B .
O44 O 0.50568(17) 0.83261(17) -0.02079(7) 0.0377(11) Uani 1 1 d . . .
O45 O 0.4567(2) 0.7875(2) 0.02978(7) 0.0472(13) Uani 1 1 d . . .
O46 O 0.64507(16) 1.09413(16) 0.16181(6) 0.0309(9) Uani 1 1 d . . .
O47 O 0.59137(15) 1.10235(16) 0.14331(6) 0.0293(9) Uani 1 1 d . . .
O48 O 0.59980(15) 1.08197(16) 0.11353(6) 0.0299(9) Uani 1 1 d . . .
O49 O 0.65890(15) 1.06170(16) 0.11366(6) 0.0283(9) Uani 1 1 d . . .
O50 O 0.58697(17) 1.01331(18) 0.14024(7) 0.0383(11) Uani 1 1 d . . .
O51 O 0.68697(15) 1.06956(16) 0.14350(6) 0.0298(9) Uani 1 1 d . . .
O52 O 0.68399(16) 1.14775(16) 0.13028(6) 0.0321(10) Uani 1 1 d . . .
O53 O 0.57456(17) 1.05766(18) 0.07821(6) 0.0368(11) Uani 1 1 d . . .
O54 O 0.64590(17) 1.03242(17) 0.07868(6) 0.0359(10) Uani 1 1 d . . .
O55 O 0.66602(18) 1.12269(17) 0.08520(7) 0.0398(11) Uani 1 1 d . . .
O56 O 0.56920(18) 0.98890(18) 0.10194(7) 0.0426(12) Uani 1 1 d . . .
O57 O 0.52617(16) 1.08851(17) 0.09986(6) 0.0334(10) Uani 1 1 d . . .
O58 O 0.51578(16) 1.11291(18) 0.13582(6) 0.0348(10) Uani 1 1 d . . .
O59 O 0.59674(18) 1.16609(17) 0.11657(7) 0.0389(11) Uani 1 1 d . . .
O60 O 0.50871(17) 1.02637(18) 0.12855(7) 0.0411(11) Uani 1 1 d . . .
O61 O 0.54965(15) 1.12300(17) 0.17095(6) 0.0320(10) Uani 1 1 d . . .
O62 O 0.61450(17) 1.11256(18) 0.19349(6) 0.0345(10) Uani 1 1 d . . .
O63 O 0.64469(17) 1.17920(17) 0.16687(7) 0.0381(11) Uani 1 1 d . . .
O64 O 0.54959(18) 1.03769(18) 0.17214(7) 0.0425(12) Uani 1 1 d . . .
O65 O 0.73518(16) 1.05845(17) 0.17126(6) 0.0325(10) Uani 1 1 d . . .
O66 O 0.68389(17) 1.08809(18) 0.19358(6) 0.0361(10) Uani 1 1 d . . .
O67 O 0.74301(17) 1.14467(16) 0.16709(7) 0.0374(10) Uani 1 1 d . . .
O68 O 0.63668(18) 1.00792(18) 0.17233(7) 0.0414(11) Uani 1 1 d . . .
O69 O 0.74462(17) 1.03400(17) 0.13633(6) 0.0339(10) Uani 1 1 d . . .
O70 O 0.71093(16) 1.02459(16) 0.10010(6) 0.0319(10) Uani 1 1 d . . .
O71 O 0.75788(16) 1.11041(17) 0.11685(7) 0.0366(10) Uani 1 1 d . . .
O72 O 0.64863(18) 0.97797(17) 0.12851(7) 0.0390(11) Uani 1 1 d . . .
O73 O 0.73207(17) 1.04971(16) 0.06322(7) 0.0373(10) Uani 1 1 d . . .
O74 O 0.62635(19) 0.94450(18) 0.09153(7) 0.0477(13) Uani 1 1 d . C .
O75 O 0.54390(17) 1.11681(16) 0.06315(6) 0.0365(10) Uani 1 1 d . . .
O76 O 0.48442(19) 0.99357(19) 0.09071(8) 0.0496(14) Uani 1 1 d . . .
O77 O 0.76708(16) 1.00169(16) 0.18507(6) 0.0315(9) Uani 1 1 d . . .
O78 O 0.77746(16) 0.97718(15) 0.14865(6) 0.0306(9) Uani 1 1 d . . .
O79 O 0.51795(16) 1.18333(16) 0.15836(7) 0.0357(10) Uani 1 1 d . . .
O80 O 0.46579(18) 1.04291(17) 0.16137(8) 0.0465(13) Uani 1 1 d . D .
O81 O 0.69089(18) 1.15768(17) 0.21801(7) 0.0393(11) Uani 1 1 d . . .
O82 O 0.5937(2) 1.02374(18) 0.20500(7) 0.0463(13) Uani 1 1 d . E .
O83 O 0.82347(16) 1.07437(16) 0.15974(7) 0.0338(10) Uani 1 1 d . . .
O84 O 0.69100(17) 0.96365(18) 0.16120(8) 0.0475(13) Uani 1 1 d . . .
C1 C 0.5124(4) 0.5535(3) 0.08608(13) 0.061(3) Uani 1 1 d . . .
C3 C 0.3674(3) 0.5761(3) 0.03649(11) 0.055(2) Uani 1 1 d . . .
C5 C 0.6087(3) 0.9022(3) 0.08717(13) 0.057(2) Uani 1 1 d . . .
C7 C 0.4253(3) 1.0157(3) 0.16648(15) 0.058(2) Uani 1 1 d . . .
C9 C 0.5720(3) 0.9931(3) 0.21674(12) 0.054(2) Uani 1 1 d . . .
C2A C 0.4951(8) 0.5774(8) 0.1008(3) 0.062(5) Uiso 0.50 1 d P A 1
O85A O 0.4744(7) 0.5520(6) 0.1145(2) 0.089(5) Uiso 0.50 1 d P A 1
O86A O 0.4994(7) 0.6158(6) 0.0964(2) 0.085(5) Uiso 0.50 1 d P A 1
C4A C 0.3599(7) 0.5996(8) 0.0544(3) 0.060(5) Uiso 0.50 1 d P B 1
O87A O 0.3968(6) 0.6323(6) 0.0616(2) 0.082(4) Uiso 0.50 1 d P B 1
O88A O 0.3197(7) 0.5794(7) 0.0614(3) 0.095(5) Uiso 0.50 1 d P B 1
C6A C 0.5772(7) 0.8650(6) 0.1023(3) 0.050(4) Uiso 0.50 1 d P C 1
O89A O 0.5595(6) 0.8231(6) 0.0985(2) 0.076(4) Uiso 0.50 1 d P C 1
O90A O 0.5688(6) 0.8807(6) 0.1164(2) 0.082(4) Uiso 0.50 1 d P C 1
C8A C 0.4144(7) 0.9632(7) 0.1720(3) 0.057(4) Uiso 0.50 1 d P D 1
O91A O 0.3742(6) 0.9361(6) 0.1774(2) 0.076(4) Uiso 0.50 1 d P D 1
O92A O 0.4468(6) 0.9549(6) 0.1673(2) 0.082(4) Uiso 0.50 1 d P D 1
C10A C 0.5443(7) 0.9400(7) 0.2093(3) 0.053(4) Uiso 0.50 1 d P E 1
O93A O 0.5442(7) 0.9355(6) 0.1924(2) 0.086(5) Uiso 0.50 1 d P E 1
O94A O 0.5233(6) 0.9087(6) 0.2210(2) 0.077(4) Uiso 0.50 1 d P E 1
C2B C 0.4729(8) 0.5633(7) 0.0948(3) 0.058(4) Uiso 0.50 1 d P A 2
O85B O 0.4477(7) 0.5369(6) 0.1066(2) 0.087(5) Uiso 0.50 1 d P A 2
O86B O 0.4746(6) 0.6002(6) 0.0901(2) 0.073(4) Uiso 0.50 1 d P A 2
C4B C 0.3661(7) 0.5809(7) 0.0586(3) 0.053(4) Uiso 0.50 1 d P B 2
O87B O 0.4020(6) 0.6120(6) 0.0656(2) 0.076(4) Uiso 0.50 1 d P B 2
O88B O 0.3275(6) 0.5560(6) 0.0661(2) 0.084(4) Uiso 0.50 1 d P B 2
C6B C 0.5602(8) 0.8678(8) 0.0966(3) 0.066(5) Uiso 0.50 1 d P C 2
O89B O 0.5397(7) 0.8250(7) 0.0908(3) 0.095(5) Uiso 0.50 1 d P C 2
O90B O 0.5504(6) 0.8853(5) 0.1104(2) 0.073(4) Uiso 0.50 1 d P C 2
C8B C 0.4057(8) 0.9612(7) 0.1621(3) 0.062(5) Uiso 0.50 1 d P D 2
O91B O 0.3648(6) 0.9332(6) 0.1670(2) 0.075(4) Uiso 0.50 1 d P D 2
O92B O 0.4361(7) 0.9518(7) 0.1555(3) 0.092(5) Uiso 0.50 1 d P D 2
C10B C 0.5258(8) 0.9464(7) 0.2098(3) 0.059(5) Uiso 0.50 1 d P E 2
O93B O 0.5218(7) 0.9431(6) 0.1926(2) 0.090(5) Uiso 0.50 1 d P E 2
O94B O 0.5048(6) 0.9164(6) 0.2218(2) 0.081(5) Uiso 0.50 1 d P E 2
O95 O 0.8314(4) 1.1689(4) 0.14695(16) 0.125(4) Uiso 1 1 d . . .
O96 O 0.4170(5) 0.4563(5) 0.00174(19) 0.150(5) Uiso 1 1 d . . .
O97 O 0.4883(4) 1.2538(5) 0.15540(17) 0.138(4) Uiso 1 1 d . . .
O98 O 0.4832(5) 0.4487(5) 0.0236(2) 0.162(5) Uiso 1 1 d . . .
O99 O 0.7924(6) 1.2016(6) 0.2082(2) 0.174(6) Uiso 1 1 d . . .
O100 O 0.6219(5) 1.2424(5) 0.1425(2) 0.167(5) Uiso 1 1 d . . .
O101 O 0.7167(6) 0.6143(6) 0.0300(2) 0.187(6) Uiso 1 1 d . . .
O102 O 0.4789(6) 0.6535(6) -0.0510(2) 0.188(6) Uiso 1 1 d . . .
O103 O 0.4333(8) 0.5182(8) 0.0461(3) 0.237(8) Uiso 1 1 d . . .
O104 O 0.6503(9) 1.2086(9) 0.0842(3) 0.284(11) Uiso 1 1 d . . .
O105 O 0.6689(8) 0.6440(8) 0.1257(3) 0.120(7) Uiso 0.50 1 d P . .
O106 O 0.7119(9) 0.8824(9) 0.0987(4) 0.139(8) Uiso 0.50 1 d P . .
O107 O 0.5956(10) 0.8089(9) -0.0347(4) 0.293(11) Uiso 1 1 d . . .
O108 O 0.7388(8) 0.9042(8) 0.0055(3) 0.243(9) Uiso 1 1 d . . .
O109 O 0.5738(11) 1.2150(11) 0.0541(4) 0.344(15) Uiso 1 1 d . . .
O110 O 0.7475(11) 1.2564(12) 0.1956(4) 0.356(15) Uiso 1 1 d . . .
O111 O 0.5698(8) 1.2871(8) 0.1337(3) 0.260(10) Uiso 1 1 d . . .
O112 O 0.6996(10) 0.9537(10) -0.0041(4) 0.157(10) Uiso 0.50 1 d P . .
O113 O 0.6628(12) 0.5576(12) 0.1078(4) 0.181(12) Uiso 0.50 1 d P . .
O114 O 0.8484(10) 1.0987(10) 0.2029(4) 0.304(12) Uiso 1 1 d . . .
O115 O 0.7736(10) 0.9819(10) 0.1091(4) 0.156(9) Uiso 0.50 1 d P . .
O116 O 0.6226(12) 0.9504(12) -0.0051(5) 0.187(12) Uiso 0.50 1 d P . .
O117 O 0.7639(12) 1.2014(12) 0.0961(5) 0.194(13) Uiso 0.50 1 d P . .
O118 O 0.6214(10) 1.2572(9) 0.1758(4) 0.303(12) Uiso 1 1 d . . .
O119 O 0.6600(10) 1.2361(10) 0.2070(4) 0.305(12) Uiso 1 1 d . . .
O120 O 0.6319(13) 0.7052(13) -0.0257(5) 0.195(13) Uiso 0.50 1 d P . .
O121 O 0.8920(15) 0.8214(15) 0.0842(6) 0.233(17) Uiso 0.50 1 d P . .
O122 O 0.7477(13) 0.7826(13) 0.0055(5) 0.197(13) Uiso 0.50 1 d P . .
O123 O 0.3019(13) 0.6252(12) 0.0081(5) 0.199(13) Uiso 0.50 1 d P . .
O124 O 0.5210(13) 0.8345(13) -0.0607(5) 0.197(13) Uiso 0.50 1 d P . .
O125 O 0.7936(14) 0.7203(14) 0.0441(5) 0.218(15) Uiso 0.50 1 d P . .
O126 O 0.4195(13) 0.4356(13) 0.0525(5) 0.211(14) Uiso 0.50 1 d P . .
O127 O 0.7714(10) 1.1596(10) 0.0806(4) 0.159(10) Uiso 0.50 1 d P . .
O128 O 0.5429(13) 0.6369(13) -0.0392(5) 0.206(14) Uiso 0.50 1 d P . .
O129 O 0.7224(14) 0.7941(14) -0.0271(5) 0.211(15) Uiso 0.50 1 d P . .
O130 O 0.7023(19) 1.277(2) 0.0354(7) 0.30(2) Uiso 0.50 1 d P . .
O131 O 0.5886(15) 0.7294(15) -0.0504(6) 0.238(17) Uiso 0.50 1 d P . .
O132 O 0.752(2) 0.668(3) 0.0586(10) 0.19(3) Uiso 0.25 1 d P . .
O133 O 0.8368(17) 1.2654(17) 0.2334(6) 0.26(2) Uiso 0.50 1 d P . .
O134 O 0.6353(13) 0.9774(13) 0.0142(5) 0.196(13) Uiso 0.50 1 d P . .
O135 O 0.8220(18) 1.3069(18) 0.2130(7) 0.28(2) Uiso 0.50 1 d P . .
O136 O 0.7187(9) 0.9393(9) 0.1162(4) 0.141(8) Uiso 0.50 1 d P . .
O137 O 0.7650(10) 0.9126(10) 0.0874(4) 0.152(9) Uiso 0.50 1 d P . .
O138 O 0.7864(16) 0.8227(16) -0.0543(6) 0.248(18) Uiso 0.50 1 d P . .
O139 O 0.773(2) 1.244(2) 0.0551(8) 0.34(3) Uiso 0.50 1 d P . .
O140 O 0.6667 1.3333 0.0826(12) 0.28(4) Uiso 0.50 3 d SP . .
O146 O 0.8050(19) 0.9462(19) 0.0241(7) 0.29(2) Uiso 0.50 1 d P . .
O147 O 0.3552(18) 0.5641(18) 0.1048(7) 0.29(2) Uiso 0.50 1 d P . .
O152 O 0.6434(11) 0.6396(11) 0.0987(4) 0.170(11) Uiso 0.50 1 d P . .
O148 O 0.7872(10) 0.7977(10) 0.0308(4) 0.154(9) Uiso 0.50 1 d P . .
O149 O 0.7683(19) 1.1199(19) 0.2307(7) 0.29(2) Uiso 0.50 1 d P . .
O151 O 0.8318(18) 1.1458(18) 0.0823(7) 0.28(2) Uiso 0.50 1 d P . .
O155 O 0.4958(18) 0.8556(18) 0.1767(7) 0.28(2) Uiso 0.50 1 d P . .

loop_
_atom_site_aniso_label
_atom_site_aniso_U_11
_atom_site_aniso_U_22
_atom_site_aniso_U_33
_atom_site_aniso_U_23
_atom_site_aniso_U_13
_atom_site_aniso_U_12
M1 0.0275(3) 0.0229(2) 0.0302(3) -0.0019(2) -0.0026(2) 0.0134(2)
M2A 0.0268(4) 0.0220(3) 0.0290(4) -0.0009(2) -0.0020(3) 0.0127(3)
M3A 0.0261(4) 0.0217(3) 0.0284(4) -0.0008(2) -0.0016(3) 0.0121(2)
M4 0.0258(3) 0.0225(2) 0.0309(3) -0.0009(2) -0.0023(2) 0.0122(2)
M5A 0.0254(3) 0.0222(3) 0.0300(5) -0.0011(2) -0.0017(3) 0.0122(2)
M6A 0.0278(4) 0.0226(3) 0.0321(5) -0.0021(3) -0.0041(4) 0.0134(3)
M7 0.0287(3) 0.0229(2) 0.0313(3) -0.0028(2) -0.0013(2) 0.0137(2)
M8 0.0277(3) 0.0247(3) 0.0274(3) -0.0008(2) -0.0022(2) 0.0130(2)
M9 0.0259(3) 0.0220(2) 0.0300(3) 0.00232(19) 0.0011(2) 0.0114(2)
M10 0.0232(2) 0.0238(2) 0.0303(3) -0.0004(2) -0.0002(2) 0.0107(2)
M11 0.0252(3) 0.0249(3) 0.0330(3) -0.0001(2) -0.0005(2) 0.0138(2)
M12 0.0257(3) 0.0310(3) 0.0291(3) -0.0027(2) -0.0022(2) 0.0179(2)
M13A 0.0250(4) 0.0296(5) 0.0290(3) -0.0036(3) -0.0028(3) 0.0165(4)
M14A 0.0228(4) 0.0292(6) 0.0281(3) -0.0014(3) -0.0010(2) 0.0154(4)
M15A 0.0230(4) 0.0297(6) 0.0280(3) 0.0001(2) -0.0003(2) 0.0164(4)
M16A 0.0249(4) 0.0277(6) 0.0276(3) -0.0002(2) -0.0002(2) 0.0168(5)
M17A 0.0243(4) 0.0261(4) 0.0287(3) -0.0024(2) -0.0022(2) 0.0152(4)
M18 0.0282(3) 0.0251(3) 0.0304(3) -0.0034(2) -0.0012(2) 0.0149(2)
M19 0.0226(2) 0.0293(3) 0.0302(3) -0.0022(2) -0.0032(2) 0.0128(2)
M20 0.0203(2) 0.0257(3) 0.0321(3) 0.0014(2) 0.00192(19) 0.0128(2)
M21 0.0272(3) 0.0298(3) 0.0274(3) 0.0022(2) 0.0013(2) 0.0165(2)
M22 0.0243(2) 0.0225(2) 0.0317(3) 0.00084(19) -0.0006(2) 0.0140(2)
O1 0.037(3) 0.031(2) 0.039(3) -0.0012(19) 0.000(2) 0.017(2)
O2 0.031(2) 0.023(2) 0.033(2) -0.0018(17) -0.0054(18) 0.0141(18)
O3 0.030(2) 0.025(2) 0.036(2) -0.0034(17) -0.0039(18) 0.0156(19)
O4 0.028(2) 0.021(2) 0.032(2) -0.0024(16) -0.0052(17) 0.0120(17)
O5 0.028(2) 0.023(2) 0.036(2) -0.0024(17) -0.0051(18) 0.0129(18)
O6 0.029(2) 0.025(2) 0.035(2) -0.0035(17) -0.0081(18) 0.0152(18)
O7 0.030(2) 0.031(2) 0.036(2) -0.0003(18) -0.0006(18) 0.016(2)
O8 0.042(3) 0.025(2) 0.041(3) -0.0046(19) -0.005(2) 0.019(2)
O9 0.038(3) 0.029(2) 0.037(2) -0.0027(19) -0.010(2) 0.018(2)
O10 0.042(3) 0.041(3) 0.038(3) -0.001(2) 0.004(2) 0.022(2)
O11 0.037(3) 0.038(3) 0.040(3) 0.003(2) 0.003(2) 0.019(2)
O12 0.034(2) 0.023(2) 0.039(2) 0.0000(18) -0.0071(19) 0.0115(19)
O13 0.033(2) 0.028(2) 0.035(2) -0.0023(18) -0.0063(19) 0.015(2)
O14 0.036(3) 0.037(3) 0.039(3) -0.001(2) 0.005(2) 0.019(2)
O15 0.042(3) 0.040(3) 0.038(3) -0.001(2) 0.003(2) 0.018(2)
O16 0.027(2) 0.025(2) 0.043(3) 0.0003(19) -0.0073(19) 0.0107(18)
O17 0.037(3) 0.039(3) 0.037(3) -0.005(2) 0.000(2) 0.020(2)
O18 0.030(2) 0.025(2) 0.044(3) 0.0048(19) -0.0033(19) 0.0132(19)
O19 0.037(3) 0.042(3) 0.042(3) 0.005(2) 0.007(2) 0.020(2)
O20 0.028(2) 0.024(2) 0.046(3) -0.0024(19) -0.0055(19) 0.0108(19)
O21 0.035(2) 0.025(2) 0.046(3) -0.0002(19) -0.005(2) 0.017(2)
O22 0.039(3) 0.041(3) 0.038(3) 0.000(2) 0.002(2) 0.020(2)
O23 0.040(3) 0.042(3) 0.048(3) 0.001(2) 0.006(2) 0.022(2)
O24 0.037(3) 0.031(2) 0.047(3) -0.005(2) -0.010(2) 0.021(2)
O25 0.037(3) 0.026(2) 0.044(3) -0.0105(19) -0.011(2) 0.018(2)
O26 0.040(3) 0.039(3) 0.039(3) 0.006(2) 0.004(2) 0.018(2)
O27 0.044(3) 0.046(3) 0.043(3) -0.004(2) 0.003(2) 0.026(2)
O28 0.033(2) 0.035(2) 0.040(3) -0.011(2) -0.0089(19) 0.021(2)
O29 0.037(2) 0.030(2) 0.034(2) -0.0032(18) -0.0034(19) 0.020(2)
O30 0.039(3) 0.031(2) 0.040(3) 0.001(2) 0.004(2) 0.016(2)
O31 0.047(3) 0.029(3) 0.057(3) -0.006(2) 0.018(3) 0.011(2)
O32 0.039(3) 0.025(2) 0.031(2) -0.0019(17) -0.0052(19) 0.014(2)
O33 0.040(3) 0.026(2) 0.031(2) -0.0015(17) -0.0013(19) 0.018(2)
O34 0.034(3) 0.041(3) 0.037(3) 0.001(2) 0.002(2) 0.016(2)
O35 0.032(3) 0.065(4) 0.035(3) -0.002(2) -0.002(2) 0.024(3)
O36 0.036(2) 0.025(2) 0.031(2) 0.0013(17) -0.0029(19) 0.0112(19)
O37 0.028(2) 0.028(2) 0.037(2) 0.0033(18) -0.0021(18) 0.0124(19)
O38 0.037(3) 0.035(2) 0.036(2) 0.0017(19) 0.005(2) 0.018(2)
O39 0.057(3) 0.039(3) 0.049(3) 0.012(2) 0.022(3) 0.030(3)
O40 0.031(2) 0.026(2) 0.044(3) 0.0026(19) 0.0005(19) 0.0153(19)
O41 0.026(2) 0.029(2) 0.041(3) 0.0058(19) 0.0010(18) 0.0123(19)
O42 0.037(3) 0.038(3) 0.036(2) 0.000(2) 0.005(2) 0.017(2)
O43 0.034(3) 0.047(3) 0.039(3) -0.009(2) 0.002(2) 0.010(2)
O44 0.038(3) 0.039(3) 0.040(3) 0.004(2) 0.006(2) 0.022(2)
O45 0.052(3) 0.065(4) 0.041(3) 0.015(3) 0.010(2) 0.041(3)
O46 0.033(2) 0.041(3) 0.030(2) -0.0011(19) 0.0006(18) 0.027(2)
O47 0.027(2) 0.037(2) 0.030(2) -0.0023(18) -0.0020(17) 0.021(2)
O48 0.028(2) 0.037(2) 0.031(2) -0.0049(18) -0.0032(17) 0.021(2)
O49 0.027(2) 0.036(2) 0.029(2) -0.0032(18) -0.0052(17) 0.0213(19)
O50 0.032(2) 0.041(3) 0.043(3) 0.001(2) 0.001(2) 0.019(2)
O51 0.029(2) 0.037(2) 0.030(2) -0.0045(18) -0.0031(17) 0.022(2)
O52 0.030(2) 0.035(2) 0.035(2) -0.0003(19) 0.0008(18) 0.018(2)
O53 0.038(3) 0.046(3) 0.034(2) -0.012(2) -0.010(2) 0.027(2)
O54 0.035(2) 0.043(3) 0.038(3) -0.009(2) -0.004(2) 0.026(2)
O55 0.038(3) 0.036(3) 0.046(3) 0.004(2) 0.004(2) 0.018(2)
O56 0.036(3) 0.034(3) 0.052(3) -0.003(2) 0.002(2) 0.014(2)
O57 0.029(2) 0.043(3) 0.031(2) -0.0052(19) -0.0045(18) 0.020(2)
O58 0.028(2) 0.050(3) 0.032(2) -0.002(2) 0.0014(18) 0.024(2)
O59 0.039(3) 0.034(3) 0.043(3) 0.000(2) 0.002(2) 0.018(2)
O60 0.034(3) 0.036(3) 0.048(3) 0.003(2) 0.000(2) 0.014(2)
O61 0.026(2) 0.042(3) 0.035(2) 0.0025(19) 0.0025(18) 0.022(2)
O62 0.037(3) 0.048(3) 0.028(2) -0.001(2) -0.0026(19) 0.029(2)
O63 0.032(2) 0.034(3) 0.046(3) 0.001(2) -0.001(2) 0.015(2)
O64 0.039(3) 0.036(3) 0.052(3) 0.005(2) 0.005(2) 0.018(2)
O65 0.033(2) 0.041(3) 0.035(2) 0.0011(19) -0.0015(19) 0.027(2)
O66 0.040(3) 0.050(3) 0.030(2) 0.002(2) 0.0025(19) 0.032(2)
O67 0.037(3) 0.031(2) 0.044(3) -0.001(2) -0.001(2) 0.017(2)
O68 0.036(3) 0.036(3) 0.053(3) 0.005(2) 0.006(2) 0.019(2)
O69 0.037(3) 0.038(3) 0.037(2) -0.002(2) -0.0058(19) 0.027(2)
O70 0.037(2) 0.036(2) 0.031(2) -0.0059(18) -0.0044(18) 0.024(2)
O71 0.030(2) 0.034(3) 0.044(3) -0.001(2) -0.002(2) 0.015(2)
O72 0.039(3) 0.031(2) 0.045(3) 0.001(2) 0.000(2) 0.016(2)
O73 0.038(3) 0.029(2) 0.043(3) 0.000(2) 0.003(2) 0.016(2)
O74 0.048(3) 0.030(3) 0.052(3) -0.005(2) 0.017(2) 0.009(2)
O75 0.034(2) 0.033(2) 0.038(3) 0.000(2) -0.002(2) 0.013(2)
O76 0.043(3) 0.039(3) 0.053(3) 0.009(2) -0.016(2) 0.011(2)
O77 0.038(2) 0.030(2) 0.033(2) 0.0041(18) 0.0060(19) 0.022(2)
O78 0.039(2) 0.028(2) 0.031(2) -0.0031(17) -0.0037(19) 0.022(2)
O79 0.029(2) 0.029(2) 0.050(3) 0.003(2) 0.003(2) 0.015(2)
O80 0.034(3) 0.029(2) 0.079(4) 0.004(2) 0.015(3) 0.017(2)
O81 0.040(3) 0.035(3) 0.041(3) 0.003(2) 0.000(2) 0.018(2)
O82 0.053(3) 0.036(3) 0.034(3) 0.001(2) 0.000(2) 0.011(2)
O83 0.029(2) 0.028(2) 0.044(3) 0.0019(19) 0.0016(19) 0.0142(19)
O84 0.028(2) 0.033(3) 0.081(4) 0.007(3) -0.005(2) 0.014(2)
C1 0.088(7) 0.059(5) 0.059(5) 0.020(4) 0.036(5) 0.054(5)
C3 0.040(4) 0.068(6) 0.043(4) -0.013(4) 0.005(3) 0.016(4)
C5 0.058(5) 0.036(4) 0.061(5) 0.002(4) 0.028(4) 0.011(4)
C7 0.044(5) 0.029(4) 0.100(7) 0.007(4) 0.025(5) 0.019(4)
C9 0.058(5) 0.035(4) 0.047(5) -0.003(3) -0.005(4) 0.008(4)

_geom_special_details            
;
All esds (except the esd in the dihedral angle between two l.s. planes)
are estimated using the full covariance matrix. The cell esds are taken
into account individually in the estimation of esds in distances, angles
and torsion angles; correlations between esds in cell parameters are only
used when they are defined by crystal symmetry. An approximate (isotropic)
treatment of cell esds is used for estimating esds involving l.s. planes.
;

loop_
_geom_bond_atom_site_label_1
_geom_bond_atom_site_label_2
_geom_bond_distance
_geom_bond_site_symmetry_2
_geom_bond_publ_flag
M1 O7 1.680(5) . ?
M1 O6 2.002(4) . ?
M1 O3 2.003(4) . ?
M1 O4 2.009(4) . ?
M1 O5 2.010(4) . ?
M1 O2 2.011(4) . ?
M1 O1 2.316(5) . ?
M2A M2B 0.747(12) . ?
M2A O11 1.694(5) . ?
M2A O9 1.779(4) . ?
M2A O8 1.794(4) . ?
M2A O6 2.054(4) . ?
M2A O2 2.055(4) . ?
M2A O10 2.405(5) . ?
M2B O10 1.658(13) . ?
M2B O9 1.819(9) . ?
M2B O8 1.820(9) . ?
M2B O6 2.034(8) . ?
M2B O2 2.049(9) . ?
M2B O11 2.438(13) . ?
M3A M3B 0.73(2) . ?
M3A O14 1.690(5) . ?
M3A O12 1.791(4) . ?
M3A O13 1.801(4) . ?
M3A O4 2.058(4) . ?
M3A O2 2.059(4) . ?
M3A O15 2.419(5) . ?
M3B O15 1.69(2) . ?
M3B O12 1.834(14) . ?
M3B O13 1.855(14) . ?
M3B O4 2.016(13) . ?
M3B O2 2.021(13) . ?
M3B O14 2.41(2) . ?
M4 O17 1.700(5) . ?
M4 O18 1.790(4) . ?
M4 O16 1.795(4) . ?
M4 O5 2.053(4) . ?
M4 O4 2.053(4) . ?
M4 O19 2.409(5) . ?
M5A M5B 0.709(16) . ?
M5A O22 1.694(5) . ?
M5A O21 1.789(4) . ?
M5A O20 1.790(4) . ?
M5A O5 2.056(4) . ?
M5A O3 2.060(4) . ?
M5A O23 2.409(5) . ?
M5B O23 1.701(17) . ?
M5B O21 1.805(10) . ?
M5B O20 1.805(10) . ?
M5B O5 2.054(10) . ?
M5B O3 2.057(10) . ?
M5B O22 2.401(17) . ?
M6A M6B 0.708(8) . ?
M6A O26 1.692(5) . ?
M6A O25 1.781(4) . ?
M6A O24 1.790(5) . ?
M6A O6 2.058(4) . ?
M6A O3 2.059(4) . ?
M6A O27 2.397(5) . ?
M6B O27 1.690(10) . ?
M6B O24 1.801(7) . ?
M6B O25 1.807(7) . ?
M6B O3 2.052(7) . ?
M6B O6 2.066(7) . ?
M6B O26 2.398(10) . ?
M7 O30 1.679(5) . ?
M7 O28 1.937(4) . ?
M7 O29 1.947(4) . ?
M7 O8 2.048(4) . ?
M7 O25 2.060(4) . ?
M7 O31 2.345(5) . ?
M7 M18 2.5870(7) . ?
M8 O34 1.690(5) . ?
M8 O32 1.945(4) . ?
M8 O33 1.947(4) . ?
M8 O13 2.035(4) . ?
M8 O9 2.055(4) . ?
M8 O35 2.367(5) . ?
M8 M21 2.5843(7) 14_455 ?
M9 O38 1.689(5) . ?
M9 O37 1.942(4) . ?
M9 O36 1.943(4) . ?
M9 O18 2.045(4) . ?
M9 O12 2.052(4) . ?
M9 O39 2.340(5) . ?
M9 M19 2.5894(7) 3_565 ?
M10 O42 1.689(5) . ?
M10 O40 1.943(4) . ?
M10 O41 1.946(4) . ?
M10 O16 2.044(4) . ?
M10 O20 2.051(4) . ?
M10 O43 2.345(5) . ?
M10 M11 2.5884(7) 3_565 ?
M11 O44 1.680(5) . ?
M11 O41 1.939(4) 2_665 ?
M11 O40 1.946(4) 2_665 ?
M11 O24 2.050(5) . ?
M11 O21 2.052(4) . ?
M11 O45 2.348(5) . ?
M11 M10 2.5883(7) 2_665 ?
M12 O52 1.672(5) . ?
M12 O51 2.005(4) . ?
M12 O49 2.006(4) . ?
M12 O48 2.006(4) . ?
M12 O47 2.009(4) . ?
M12 O46 2.014(4) . ?
M12 O50 2.323(5) . ?
M13A M13B 0.709(11) . ?
M13A O55 1.697(5) . ?
M13A O54 1.782(4) . ?
M13A O53 1.788(5) . ?
M13A O48 2.056(4) . ?
M13A O49 2.062(4) . ?
M13A O56 2.409(5) . ?
M13B O56 1.701(12) . ?
M13B O53 1.814(8) . ?
M13B O54 1.822(8) . ?
M13B O48 2.023(8) . ?
M13B O49 2.045(8) . ?
M13B O55 2.402(13) . ?
M14A M14B 0.736(8) . ?
M14A O59 1.688(5) . ?
M14A O57 1.790(4) . ?
M14A O58 1.793(4) . ?
M14A O47 2.055(4) . ?
M14A O48 2.059(4) . ?
M14A O60 2.414(5) . ?
M14B O60 1.678(10) . ?
M14B O57 1.813(7) . ?
M14B O58 1.825(7) . ?
M14B O48 2.044(7) . ?
M14B O47 2.048(7) . ?
M14B O59 2.421(10) . ?
M15A M15B 0.726(14) . ?
M15A O63 1.701(5) . ?
M15A O62 1.789(4) . ?
M15A O61 1.790(4) . ?
M15A O46 2.058(4) . ?
M15A O47 2.061(4) . ?
M15A O64 2.408(5) . ?
M15B O64 1.682(15) . ?
M15B O61 1.831(9) . ?
M15B O62 1.847(10) . ?
M15B O47 2.017(9) . ?
M15B O46 2.031(9) . ?
M15B O63 2.422(15) . ?
M16A M16B 0.659(15) . ?
M16A O67 1.696(5) . ?
M16A O66 1.786(5) . ?
M16A O65 1.794(4) . ?
M16A O46 2.046(4) . ?
M16A O51 2.054(4) . ?
M16A O68 2.394(5) . ?
M16B O68 1.737(16) . ?
M16B O65 1.792(9) . ?
M16B O66 1.843(9) . ?
M16B O51 1.999(9) . ?
M16B O46 2.036(9) . ?
M16B O67 2.351(16) . ?
M17A M17B 0.760(12) . ?
M17A O71 1.687(5) . ?
M17A O70 1.790(4) . ?
M17A O69 1.794(4) . ?
M17A O49 2.056(4) . ?
M17A O51 2.069(4) . ?
M17A O72 2.414(5) . ?
M17B O72 1.654(13) . ?
M17B O70 1.829(9) . ?
M17B O69 1.839(9) . ?
M17B O49 2.036(9) . ?
M17B O51 2.055(9) . ?
M17B O71 2.444(13) . ?
M18 O73 1.685(5) . ?
M18 O28 1.940(4) . ?
M18 O29 1.941(4) . ?
M18 O54 2.049(4) . ?
M18 O70 2.054(4) . ?
M18 O74 2.346(5) . ?
M19 O75 1.683(5) . ?
M19 O37 1.944(4) 2_665 ?
M19 O36 1.947(4) 2_665 ?
M19 O57 2.049(4) . ?
M19 O53 2.052(5) . ?
M19 O76 2.357(5) . ?
M19 M9 2.5895(7) 2_665 ?
M20 O79 1.679(5) . ?
M20 O77 1.936(4) 15 ?
M20 O78 1.946(4) 15 ?
M20 O58 2.045(4) . ?
M20 O61 2.045(4) . ?
M20 O80 2.352(5) . ?
M20 M22 2.5829(7) 15 ?
M21 O81 1.695(5) . ?
M21 O32 1.939(4) 15 ?
M21 O33 1.940(4) 15 ?
M21 O66 2.044(5) . ?
M21 O62 2.047(4) . ?
M21 O82 2.344(5) . ?
M21 M8 2.5843(7) 15 ?
M22 O83 1.681(5) . ?
M22 O77 1.938(4) . ?
M22 O78 1.947(4) . ?
M22 O69 2.042(4) . ?
M22 O65 2.049(4) . ?
M22 O84 2.348(5) . ?
M22 M20 2.5830(7) 14_455 ?
O31 C5 1.250(10) . ?
O32 M21 1.940(4) 14_455 ?
O33 M21 1.940(4) 14_455 ?
O35 C9 1.248(10) 14_455 ?
O36 M19 1.947(4) 3_565 ?
O37 M19 1.944(4) 3_565 ?
O39 C1 1.259(9) . ?
O40 M11 1.946(4) 3_565 ?
O41 M11 1.939(4) 3_565 ?
O43 C3 1.238(9) . ?
O45 C3 1.241(10) 2_665 ?
O74 C5 1.245(9) . ?
O76 C1 1.236(10) 2_665 ?
O77 M20 1.936(4) 14_455 ?
O78 M20 1.946(4) 14_455 ?
O80 C7 1.227(9) . ?
O82 C9 1.240(10) . ?
O84 C7 1.260(9) 14_455 ?
C1 O76 1.236(10) 3_565 ?
C1 C2A 1.60(2) . ?
C1 C2B 1.61(2) . ?
C3 O45 1.241(10) 3_565 ?
C3 C4A 1.60(2) . ?
C3 C4B 1.64(2) . ?
C5 C6B 1.57(2) . ?
C5 C6A 1.588(19) . ?
C7 O84 1.260(9) 15 ?
C7 C8B 1.59(2) . ?
C7 C8A 1.62(2) . ?
C9 O35 1.248(10) 15 ?
C9 C10A 1.60(2) . ?
C9 C10B 1.60(2) . ?
C2A O86A 1.23(2) . ?
C2A O85A 1.26(3) . ?
C4A O88A 1.25(3) . ?
C4A O87A 1.26(2) . ?
C6A O89A 1.22(2) . ?
C6A O90A 1.25(2) . ?
C8A O91A 1.23(2) . ?
C8A O92A 1.26(2) . ?
C10A O93A 1.24(2) . ?
C10A O94A 1.25(2) . ?
C2B O85B 1.21(2) . ?
C2B O86B 1.23(2) . ?
C4B O87B 1.21(2) . ?
C4B O88B 1.24(2) . ?
C6B O90B 1.28(3) . ?
C6B O89B 1.28(3) . ?
C8B O91B 1.24(2) . ?
C8B O92B 1.27(3) . ?
C10B O94B 1.24(2) . ?
C10B O93B 1.27(3) . ?
O106 O137 1.72(4) . ?
O115 O136 1.71(4) . ?
O116 O134 1.61(4) . ?

loop_
_geom_angle_atom_site_label_1
_geom_angle_atom_site_label_2
_geom_angle_atom_site_label_3
_geom_angle
_geom_angle_site_symmetry_1
_geom_angle_site_symmetry_3
_geom_angle_publ_flag
O7 M1 O6 98.1(2) . . ?
O7 M1 O3 98.0(2) . . ?
O6 M1 O3 71.24(17) . . ?
O7 M1 O4 98.0(2) . . ?
O6 M1 O4 140.77(17) . . ?
O3 M1 O4 140.58(17) . . ?
O7 M1 O5 98.0(2) . . ?
O6 M1 O5 140.84(17) . . ?
O3 M1 O5 71.31(17) . . ?
O4 M1 O5 70.93(17) . . ?
O7 M1 O2 98.0(2) . . ?
O6 M1 O2 71.21(16) . . ?
O3 M1 O2 140.79(17) . . ?
O4 M1 O2 71.26(16) . . ?
O5 M1 O2 140.54(17) . . ?
O7 M1 O1 179.8(3) . . ?
O6 M1 O1 82.06(18) . . ?
O3 M1 O1 81.98(18) . . ?
O4 M1 O1 81.93(17) . . ?
O5 M1 O1 81.85(18) . . ?
O2 M1 O1 82.11(18) . . ?
M2B M2A O11 173.9(6) . . ?
M2B M2A O9 81.0(6) . . ?
O11 M2A O9 103.1(2) . . ?
M2B M2A O8 80.0(6) . . ?
O11 M2A O8 103.1(2) . . ?
O9 M2A O8 104.1(2) . . ?
M2B M2A O6 77.9(6) . . ?
O11 M2A O6 96.8(2) . . ?
O9 M2A O6 152.2(2) . . ?
O8 M2A O6 89.89(19) . . ?
M2B M2A O2 79.1(6) . . ?
O11 M2A O2 96.3(2) . . ?
O9 M2A O2 89.12(19) . . ?
O8 M2A O2 153.1(2) . . ?
O6 M2A O2 69.31(17) . . ?
M2B M2A O10 1.2(7) . . ?
O11 M2A O10 172.9(2) . . ?
O9 M2A O10 81.2(2) . . ?
O8 M2A O10 81.1(2) . . ?
O6 M2A O10 77.39(18) . . ?
O2 M2A O10 77.92(17) . . ?
M2A M2B O10 178.3(10) . . ?
M2A M2B O9 75.1(6) . . ?
O10 M2B O9 105.2(5) . . ?
M2A M2B O8 76.1(6) . . ?
O10 M2B O8 105.4(5) . . ?
O9 M2B O8 101.5(5) . . ?
M2A M2B O6 81.0(6) . . ?
O10 M2B O6 98.2(5) . . ?
O9 M2B O6 150.0(6) . . ?
O8 M2B O6 89.8(4) . . ?
M2A M2B O2 79.9(6) . . ?
O10 M2B O2 98.4(5) . . ?
O9 M2B O2 88.2(4) . . ?
O8 M2B O2 150.7(7) . . ?
O6 M2B O2 69.8(3) . . ?
M2A M2B O11 4.2(4) . . ?
O10 M2B O11 174.3(5) . . ?
O9 M2B O11 77.9(4) . . ?
O8 M2B O11 78.3(4) . . ?
O6 M2B O11 77.3(4) . . ?
O2 M2B O11 76.8(4) . . ?
M3B M3A O14 171.7(10) . . ?
M3B M3A O12 81.8(10) . . ?
O14 M3A O12 102.8(2) . . ?
M3B M3A O13 82.7(10) . . ?
O14 M3A O13 102.6(2) . . ?
O12 M3A O13 104.6(2) . . ?
M3B M3A O4 76.4(10) . . ?
O14 M3A O4 96.5(2) . . ?
O12 M3A O4 89.82(18) . . ?
O13 M3A O4 152.68(19) . . ?
M3B M3A O2 76.8(10) . . ?
O14 M3A O2 96.7(2) . . ?
O12 M3A O2 153.0(2) . . ?
O13 M3A O2 88.97(18) . . ?
O4 M3A O2 69.33(16) . . ?
M3B M3A O15 1.4(10) . . ?
O14 M3A O15 173.1(2) . . ?
O12 M3A O15 81.2(2) . . ?
O13 M3A O15 81.64(19) . . ?
O4 M3A O15 77.75(17) . . ?
O2 M3A O15 77.75(18) . . ?
M3A M3B O15 178.0(14) . . ?
M3A M3B O12 75.1(11) . . ?
O15 M3B O12 104.1(8) . . ?
M3A M3B O13 74.4(11) . . ?
O15 M3B O13 104.0(8) . . ?
O12 M3B O13 100.8(7) . . ?
M3A M3B O4 83.1(11) . . ?
O15 M3B O4 98.8(8) . . ?
O12 M3B O4 89.9(6) . . ?
O13 M3B O4 151.4(11) . . ?
M3A M3B O2 82.7(11) . . ?
O15 M3B O2 98.6(8) . . ?
O12 M3B O2 152.3(11) . . ?
O13 M3B O2 88.7(6) . . ?
O4 M3B O2 70.9(4) . . ?
M3A M3B O14 5.8(7) . . ?
O15 M3B O14 176.1(7) . . ?
O12 M3B O14 78.4(7) . . ?
O13 M3B O14 78.2(7) . . ?
O4 M3B O14 78.1(6) . . ?
O2 M3B O14 78.2(6) . . ?
O17 M4 O18 102.3(2) . . ?
O17 M4 O16 102.5(2) . . ?
O18 M4 O16 105.0(2) . . ?
O17 M4 O5 96.4(2) . . ?
O18 M4 O5 153.2(2) . . ?
O16 M4 O5 89.40(18) . . ?
O17 M4 O4 96.4(2) . . ?
O18 M4 O4 89.49(19) . . ?
O16 M4 O4 152.94(19) . . ?
O5 M4 O4 69.22(16) . . ?
O17 M4 O19 173.0(2) . . ?
O18 M4 O19 82.0(2) . . ?
O16 M4 O19 81.5(2) . . ?
O5 M4 O19 77.76(18) . . ?
O4 M4 O19 77.95(17) . . ?
M5B M5A O22 175.8(7) . . ?
M5B M5A O21 79.9(7) . . ?
O22 M5A O21 102.6(2) . . ?
M5B M5A O20 79.8(7) . . ?
O22 M5A O20 102.7(2) . . ?
O21 M5A O20 104.4(2) . . ?
M5B M5A O5 79.9(7) . . ?
O22 M5A O5 96.6(2) . . ?
O21 M5A O5 152.8(2) . . ?
O20 M5A O5 89.77(19) . . ?
M5B M5A O3 79.8(7) . . ?
O22 M5A O3 96.7(2) . . ?
O21 M5A O3 89.29(19) . . ?
O20 M5A O3 153.0(2) . . ?
O5 M5A O3 69.26(17) . . ?
M5B M5A O23 2.5(7) . . ?
O22 M5A O23 173.3(2) . . ?
O21 M5A O23 81.4(2) . . ?
O20 M5A O23 81.2(2) . . ?
O5 M5A O23 77.84(18) . . ?
O3 M5A O23 77.86(18) . . ?
M5A M5B O23 176.5(10) . . ?
M5A M5B O21 77.4(8) . . ?
O23 M5B O21 104.8(7) . . ?
M5A M5B O20 77.4(9) . . ?
O23 M5B O20 104.5(7) . . ?
O21 M5B O20 103.2(5) . . ?
M5A M5B O5 80.2(8) . . ?
O23 M5B O5 96.8(6) . . ?
O21 M5B O5 151.1(8) . . ?
O20 M5B O5 89.4(4) . . ?
M5A M5B O3 80.3(8) . . ?
O23 M5B O3 96.9(6) . . ?
O21 M5B O3 89.0(4) . . ?
O20 M5B O3 151.5(9) . . ?
O5 M5B O3 69.4(3) . . ?
M5A M5B O22 3.0(5) . . ?
O23 M5B O22 173.5(5) . . ?
O21 M5B O22 79.1(6) . . ?
O20 M5B O22 79.3(6) . . ?
O5 M5B O22 77.8(5) . . ?
O3 M5B O22 77.9(5) . . ?
M6B M6A O26 175.5(4) . . ?
M6B M6A O25 80.7(4) . . ?
O26 M6A O25 102.8(2) . . ?
M6B M6A O24 79.5(4) . . ?
O26 M6A O24 102.2(2) . . ?
O25 M6A O24 104.6(2) . . ?
M6B M6A O6 80.8(4) . . ?
O26 M6A O6 96.2(2) . . ?
O25 M6A O6 89.62(19) . . ?
O24 M6A O6 153.4(2) . . ?
M6B M6A O3 79.5(4) . . ?
O26 M6A O3 96.2(2) . . ?
O25 M6A O3 152.9(2) . . ?
O24 M6A O3 89.82(19) . . ?
O6 M6A O3 69.03(17) . . ?
M6B M6A O27 2.5(4) . . ?
O26 M6A O27 173.2(2) . . ?
O25 M6A O27 81.4(2) . . ?
O24 M6A O27 81.6(2) . . ?
O6 M6A O27 78.38(18) . . ?
O3 M6A O27 78.12(18) . . ?
M6A M6B O27 176.4(6) . . ?
M6A M6B O24 77.8(5) . . ?
O27 M6B O24 105.2(4) . . ?
M6A M6B O25 76.6(5) . . ?
O27 M6B O25 104.4(4) . . ?
O24 M6B O25 103.1(3) . . ?
M6A M6B O3 80.6(5) . . ?
O27 M6B O3 97.3(4) . . ?
O24 M6B O3 89.7(3) . . ?
O25 M6B O3 150.6(5) . . ?
M6A M6B O6 79.4(5) . . ?
O27 M6B O6 97.1(4) . . ?
O24 M6B O6 151.0(5) . . ?
O25 M6B O6 88.6(3) . . ?
O3 M6B O6 69.0(2) . . ?
M6A M6B O26 3.2(3) . . ?
O27 M6B O26 173.5(4) . . ?
O24 M6B O26 79.0(4) . . ?
O25 M6B O26 79.0(4) . . ?
O3 M6B O26 77.6(3) . . ?
O6 M6B O26 77.4(3) . . ?
O30 M7 O28 103.8(2) . . ?
O30 M7 O29 103.8(2) . . ?
O28 M7 O29 94.79(18) . . ?
O30 M7 O8 97.6(2) . . ?
O28 M7 O8 157.5(2) . . ?
O29 M7 O8 86.60(18) . . ?
O30 M7 O25 97.4(2) . . ?
O28 M7 O25 85.90(18) . . ?
O29 M7 O25 157.9(2) . . ?
O8 M7 O25 84.58(18) . . ?
O30 M7 O31 173.4(2) . . ?
O28 M7 O31 80.9(2) . . ?
O29 M7 O31 80.1(2) . . ?
O8 M7 O31 77.2(2) . . ?
O25 M7 O31 78.2(2) . . ?
O30 M7 M18 100.65(16) . . ?
O28 M7 M18 48.19(13) . . ?
O29 M7 M18 48.18(13) . . ?
O8 M7 M18 134.04(13) . . ?
O25 M7 M18 133.42(13) . . ?
O31 M7 M18 85.88(12) . . ?
O34 M8 O32 104.3(2) . . ?
O34 M8 O33 104.0(2) . . ?
O32 M8 O33 94.71(18) . . ?
O34 M8 O13 97.7(2) . . ?
O32 M8 O13 86.50(18) . . ?
O33 M8 O13 157.23(19) . . ?
O34 M8 O9 97.7(2) . . ?
O32 M8 O9 157.2(2) . . ?
O33 M8 O9 85.69(18) . . ?
O13 M8 O9 84.58(18) . . ?
O34 M8 O35 173.9(2) . . ?
O32 M8 O35 79.77(19) . . ?
O33 M8 O35 80.05(19) . . ?
O13 M8 O35 77.80(19) . . ?
O9 M8 O35 77.80(19) . . ?
O34 M8 M21 100.74(17) . 14_455 ?
O32 M8 M21 48.21(13) . 14_455 ?
O33 M8 M21 48.22(13) . 14_455 ?
O13 M8 M21 134.01(13) . 14_455 ?
O9 M8 M21 133.21(13) . 14_455 ?
O35 M8 M21 85.41(12) . 14_455 ?
O38 M9 O37 104.4(2) . . ?
O38 M9 O36 104.4(2) . . ?
O37 M9 O36 94.81(18) . . ?
O38 M9 O18 96.3(2) . . ?
O37 M9 O18 86.20(18) . . ?
O36 M9 O18 158.3(2) . . ?
O38 M9 O12 97.1(2) . . ?
O37 M9 O12 157.44(19) . . ?
O36 M9 O12 86.19(18) . . ?
O18 M9 O12 84.80(18) . . ?
O38 M9 O39 173.0(2) . . ?
O37 M9 O39 80.17(19) . . ?
O36 M9 O39 80.2(2) . . ?
O18 M9 O39 78.64(19) . . ?
O12 M9 O39 77.79(19) . . ?
O38 M9 M19 101.03(16) . 3_565 ?
O37 M9 M19 48.25(13) . 3_565 ?
O36 M9 M19 48.33(13) . 3_565 ?
O18 M9 M19 133.93(13) . 3_565 ?
O12 M9 M19 133.87(13) . 3_565 ?
O39 M9 M19 85.94(12) . 3_565 ?
O42 M10 O40 104.5(2) . . ?
O42 M10 O41 104.6(2) . . ?
O40 M10 O41 94.65(19) . . ?
O42 M10 O16 96.6(2) . . ?
O40 M10 O16 158.0(2) . . ?
O41 M10 O16 85.98(18) . . ?
O42 M10 O20 97.3(2) . . ?
O40 M10 O20 86.30(18) . . ?
O41 M10 O20 157.1(2) . . ?
O16 M10 O20 84.80(18) . . ?
O42 M10 O43 173.0(2) . . ?
O40 M10 O43 80.3(2) . . ?
O41 M10 O43 79.9(2) . . ?
O16 M10 O43 78.24(19) . . ?
O20 M10 O43 77.67(19) . . ?
O42 M10 M11 101.12(17) . 3_565 ?
O40 M10 M11 48.32(13) . 3_565 ?
O41 M10 M11 48.12(13) . 3_565 ?
O16 M10 M11 133.57(13) . 3_565 ?
O20 M10 M11 133.94(13) . 3_565 ?
O43 M10 M11 85.88(12) . 3_565 ?
O44 M11 O41 104.5(2) . 2_665 ?
O44 M11 O40 104.6(2) . 2_665 ?
O41 M11 O40 94.76(19) 2_665 2_665 ?
O44 M11 O24 97.0(2) . . ?
O41 M11 O24 86.19(18) 2_665 . ?
O40 M11 O24 157.4(2) 2_665 . ?
O44 M11 O21 97.0(2) . . ?
O41 M11 O21 157.5(2) 2_665 . ?
O40 M11 O21 85.91(19) 2_665 . ?
O24 M11 O21 84.80(18) . . ?
O44 M11 O45 173.1(2) . . ?
O41 M11 O45 80.2(2) 2_665 . ?
O40 M11 O45 79.7(2) 2_665 . ?
O24 M11 O45 78.2(2) . . ?
O21 M11 O45 77.78(19) . . ?
O44 M11 M10 101.18(17) . 2_665 ?
O41 M11 M10 48.32(13) 2_665 2_665 ?
O40 M11 M10 48.23(13) 2_665 2_665 ?
O24 M11 M10 133.88(13) . 2_665 ?
O21 M11 M10 133.52(13) . 2_665 ?
O45 M11 M10 85.68(13) . 2_665 ?
O52 M12 O51 97.8(2) . . ?
O52 M12 O49 98.1(2) . . ?
O51 M12 O49 71.37(17) . . ?
O52 M12 O48 98.3(2) . . ?
O51 M12 O48 140.81(17) . . ?
O49 M12 O48 71.15(17) . . ?
O52 M12 O47 98.2(2) . . ?
O51 M12 O47 140.33(18) . . ?
O49 M12 O47 140.82(17) . . ?
O48 M12 O47 71.37(17) . . ?
O52 M12 O46 98.3(2) . . ?
O51 M12 O46 70.84(17) . . ?
O49 M12 O46 140.41(17) . . ?
O48 M12 O46 140.64(17) . . ?
O47 M12 O46 71.08(17) . . ?
O52 M12 O50 179.7(2) . . ?
O51 M12 O50 81.92(18) . . ?
O49 M12 O50 81.97(18) . . ?
O48 M12 O50 81.96(18) . . ?
O47 M12 O50 81.92(18) . . ?
O46 M12 O50 81.52(18) . . ?
M13B M13A O55 173.3(5) . . ?
M13B M13A O54 81.8(5) . . ?
O55 M13A O54 103.1(2) . . ?
M13B M13A O53 80.7(5) . . ?
O55 M13A O53 102.2(2) . . ?
O54 M13A O53 105.1(2) . . ?
M13B M13A O48 77.3(5) . . ?
O55 M13A O48 96.5(2) . . ?
O54 M13A O48 152.1(2) . . ?
O53 M13A O48 89.68(19) . . ?
M13B M13A O49 78.7(5) . . ?
O55 M13A O49 96.6(2) . . ?
O54 M13A O49 88.91(19) . . ?
O53 M13A O49 153.1(2) . . ?
O48 M13A O49 69.05(16) . . ?
M13B M13A O56 0.9(6) . . ?
O55 M13A O56 173.3(2) . . ?
O54 M13A O56 81.1(2) . . ?
O53 M13A O56 81.5(2) . . ?
O48 M13A O56 77.77(18) . . ?
O49 M13A O56 78.17(18) . . ?
M13A M13B O56 178.8(8) . . ?
M13A M13B O53 76.6(6) . . ?
O56 M13B O53 104.4(5) . . ?
M13A M13B O54 75.6(6) . . ?
O56 M13B O54 103.5(5) . . ?
O53 M13B O54 102.5(4) . . ?
M13A M13B O48 82.7(6) . . ?
O56 M13B O48 97.9(4) . . ?
O53 M13B O48 90.0(3) . . ?
O54 M13B O48 151.4(6) . . ?
M13A M13B O49 81.4(6) . . ?
O56 M13B O49 97.8(4) . . ?
O53 M13B O49 152.0(6) . . ?
O54 M13B O49 88.4(3) . . ?
O48 M13B O49 70.0(3) . . ?
M13A M13B O55 4.8(4) . . ?
O56 M13B O55 175.2(4) . . ?
O53 M13B O55 78.7(4) . . ?
O54 M13B O55 79.0(4) . . ?
O48 M13B O55 78.4(4) . . ?
O49 M13B O55 78.1(4) . . ?
M14B M14A O59 174.4(5) . . ?
M14B M14A O57 80.0(4) . . ?
O59 M14A O57 102.9(2) . . ?
M14B M14A O58 80.7(4) . . ?
O59 M14A O58 103.0(2) . . ?
O57 M14A O58 104.2(2) . . ?
M14B M14A O47 79.1(4) . . ?
O59 M14A O47 96.5(2) . . ?
O57 M14A O47 152.7(2) . . ?
O58 M14A O47 89.54(19) . . ?
M14B M14A O48 78.5(4) . . ?
O59 M14A O48 96.7(2) . . ?
O57 M14A O48 89.33(19) . . ?
O58 M14A O48 152.8(2) . . ?
O47 M14A O48 69.41(17) . . ?
M14B M14A O60 1.5(5) . . ?
O59 M14A O60 173.1(2) . . ?
O57 M14A O60 81.3(2) . . ?
O58 M14A O60 81.0(2) . . ?
O47 M14A O60 77.66(18) . . ?
O48 M14A O60 77.83(18) . . ?
M14A M14B O60 177.9(7) . . ?
M14A M14B O57 76.4(5) . . ?
O60 M14B O57 105.5(4) . . ?
M14A M14B O58 75.8(5) . . ?
O60 M14B O58 104.5(4) . . ?
O57 M14B O58 102.0(3) . . ?
M14A M14B O48 80.8(5) . . ?
O60 M14B O48 98.2(4) . . ?
O57 M14B O48 89.2(3) . . ?
O58 M14B O48 150.8(5) . . ?
M14A M14B O47 80.2(5) . . ?
O60 M14B O47 97.7(4) . . ?
O57 M14B O47 150.8(5) . . ?
O58 M14B O47 88.9(3) . . ?
O48 M14B O47 69.8(2) . . ?
M14A M14B O59 3.9(3) . . ?
O60 M14B O59 174.2(4) . . ?
O57 M14B O59 78.5(4) . . ?
O58 M14B O59 78.4(4) . . ?
O48 M14B O59 77.5(3) . . ?
O47 M14B O59 77.2(3) . . ?
M15B M15A O63 172.0(7) . . ?
M15B M15A O62 83.1(6) . . ?
O63 M15A O62 102.3(2) . . ?
M15B M15A O61 81.7(6) . . ?
O63 M15A O61 102.4(2) . . ?
O62 M15A O61 105.1(2) . . ?
M15B M15A O46 77.7(6) . . ?
O63 M15A O46 96.3(2) . . ?
O62 M15A O46 89.55(19) . . ?
O61 M15A O46 153.0(2) . . ?
M15B M15A O47 76.3(6) . . ?
O63 M15A O47 96.7(2) . . ?
O62 M15A O47 152.9(2) . . ?
O61 M15A O47 89.23(19) . . ?
O46 M15A O47 69.18(17) . . ?
M15B M15A O64 1.4(7) . . ?
O63 M15A O64 173.0(2) . . ?
O62 M15A O64 81.7(2) . . ?
O61 M15A O64 81.8(2) . . ?
O46 M15A O64 77.92(18) . . ?
O47 M15A O64 77.69(18) . . ?
M15A M15B O64 178.1(9) . . ?
M15A M15B O61 75.3(7) . . ?
O64 M15B O61 105.0(6) . . ?
M15A M15B O62 74.0(7) . . ?
O64 M15B O62 104.1(6) . . ?
O61 M15B O62 101.1(5) . . ?
M15A M15B O47 83.2(7) . . ?
O64 M15B O47 98.7(6) . . ?
O61 M15B O47 89.5(4) . . ?
O62 M15B O47 151.3(7) . . ?
M15A M15B O46 81.9(7) . . ?
O64 M15B O46 98.4(5) . . ?
O61 M15B O46 151.3(7) . . ?
O62 M15B O46 88.8(4) . . ?
O47 M15B O46 70.6(3) . . ?
M15A M15B O63 5.6(5) . . ?
O64 M15B O63 175.8(5) . . ?
O61 M15B O63 78.2(5) . . ?
O62 M15B O63 77.8(5) . . ?
O47 M15B O63 78.4(4) . . ?
O46 M15B O63 77.7(4) . . ?
M16B M16A O67 172.3(7) . . ?
M16B M16A O66 84.4(7) . . ?
O67 M16A O66 102.4(2) . . ?
M16B M16A O65 79.2(7) . . ?
O67 M16A O65 102.2(2) . . ?
O66 M16A O65 104.9(2) . . ?
M16B M16A O46 79.9(7) . . ?
O67 M16A O46 96.4(2) . . ?
O66 M16A O46 89.75(19) . . ?
O65 M16A O46 153.1(2) . . ?
M16B M16A O51 75.9(7) . . ?
O67 M16A O51 96.5(2) . . ?
O66 M16A O51 153.2(2) . . ?
O65 M16A O51 89.24(19) . . ?
O46 M16A O51 69.26(17) . . ?
M16B M16A O68 3.7(7) . . ?
O67 M16A O68 173.2(2) . . ?
O66 M16A O68 81.4(2) . . ?
O65 M16A O68 82.2(2) . . ?
O46 M16A O68 77.76(18) . . ?
O51 M16A O68 78.16(19) . . ?
M16A M16B O68 174.8(10) . . ?
M16A M16B O65 79.6(8) . . ?
O68 M16B O65 104.5(6) . . ?
M16A M16B O66 74.7(8) . . ?
O68 M16B O66 101.0(6) . . ?
O65 M16B O66 102.7(5) . . ?
M16A M16B O51 85.4(8) . . ?
O68 M16B O51 97.6(6) . . ?
O65 M16B O51 91.1(4) . . ?
O66 M16B O51 153.1(8) . . ?
M16A M16B O46 81.5(8) . . ?
O68 M16B O46 95.5(5) . . ?
O65 M16B O46 154.6(8) . . ?
O66 M16B O46 88.5(4) . . ?
O51 M16B O46 70.5(3) . . ?
M16A M16B O67 5.5(5) . . ?
O68 M16B O67 174.4(5) . . ?
O65 M16B O67 80.7(6) . . ?
O66 M16B O67 79.6(6) . . ?
O51 M16B O67 80.0(5) . . ?
O46 M16B O67 79.0(5) . . ?
M17B M17A O71 173.5(6) . . ?
M17B M17A O70 80.8(6) . . ?
O71 M17A O70 103.2(2) . . ?
M17B M17A O69 81.2(6) . . ?
O71 M17A O69 102.6(2) . . ?
O70 M17A O69 104.6(2) . . ?
M17B M17A O49 77.8(6) . . ?
O71 M17A O49 96.8(2) . . ?
O70 M17A O49 89.88(18) . . ?
O69 M17A O49 152.2(2) . . ?
M17B M17A O51 78.4(6) . . ?
O71 M17A O51 96.3(2) . . ?
O70 M17A O51 153.0(2) . . ?
O69 M17A O51 88.99(19) . . ?
O49 M17A O51 69.11(16) . . ?
M17B M17A O72 0.7(7) . . ?
O71 M17A O72 172.8(2) . . ?
O70 M17A O72 81.2(2) . . ?
O69 M17A O72 81.6(2) . . ?
O49 M17A O72 77.28(18) . . ?
O51 M17A O72 77.77(18) . . ?
M17A M17B O72 179.0(10) . . ?
M17A M17B O70 75.0(6) . . ?
O72 M17B O70 105.7(5) . . ?
M17A M17B O69 74.7(6) . . ?
O72 M17B O69 105.9(5) . . ?
O70 M17B O69 101.3(4) . . ?
M17A M17B O49 80.8(6) . . ?
O72 M17B O49 98.4(5) . . ?
O70 M17B O49 89.4(4) . . ?
O69 M17B O49 149.4(6) . . ?
M17A M17B O51 80.4(6) . . ?
O72 M17B O51 98.7(5) . . ?
O70 M17B O51 150.0(6) . . ?
O69 M17B O51 88.2(4) . . ?
O49 M17B O51 69.8(3) . . ?
M17A M17B O71 4.5(4) . . ?
O72 M17B O71 174.5(5) . . ?
O70 M17B O71 77.8(4) . . ?
O69 M17B O71 77.3(4) . . ?
O49 M17B O71 77.1(4) . . ?
O51 M17B O71 76.7(4) . . ?
O73 M18 O28 103.9(2) . . ?
O73 M18 O29 103.8(2) . . ?
O28 M18 O29 94.91(19) . . ?
O73 M18 O54 97.6(2) . . ?
O28 M18 O54 85.86(19) . . ?
O29 M18 O54 157.7(2) . . ?
O73 M18 O70 97.1(2) . . ?
O28 M18 O70 157.8(2) . . ?
O29 M18 O70 86.75(18) . . ?
O54 M18 O70 84.42(18) . . ?
O73 M18 O74 173.4(2) . . ?
O28 M18 O74 80.9(2) . . ?
O29 M18 O74 80.1(2) . . ?
O54 M18 O74 78.1(2) . . ?
O70 M18 O74 77.58(19) . . ?
O73 M18 M7 100.75(16) . . ?
O28 M18 M7 48.10(13) . . ?
O29 M18 M7 48.40(13) . . ?
O54 M18 M7 133.27(13) . . ?
O70 M18 M7 134.45(12) . . ?
O74 M18 M7 85.84(12) . . ?
O75 M19 O37 104.3(2) . 2_665 ?
O75 M19 O36 104.4(2) . 2_665 ?
O37 M19 O36 94.61(19) 2_665 2_665 ?
O75 M19 O57 97.5(2) . . ?
O37 M19 O57 157.41(19) 2_665 . ?
O36 M19 O57 85.70(18) 2_665 . ?
O75 M19 O53 97.2(2) . . ?
O37 M19 O53 86.54(18) 2_665 . ?
O36 M19 O53 157.4(2) 2_665 . ?
O57 M19 O53 84.77(18) . . ?
O75 M19 O76 173.3(2) . . ?
O37 M19 O76 80.0(2) 2_665 . ?
O36 M19 O76 80.1(2) 2_665 . ?
O57 M19 O76 77.8(2) . . ?
O53 M19 O76 77.9(2) . . ?
O75 M19 M9 100.93(16) . 2_665 ?
O37 M19 M9 48.18(13) 2_665 2_665 ?
O36 M19 M9 48.19(13) 2_665 2_665 ?
O57 M19 M9 133.24(13) . 2_665 ?
O53 M19 M9 134.06(13) . 2_665 ?
O76 M19 M9 85.74(13) . 2_665 ?
O79 M20 O77 104.3(2) . 15 ?
O79 M20 O78 104.0(2) . 15 ?
O77 M20 O78 94.96(18) 15 15 ?
O79 M20 O58 97.4(2) . . ?
O77 M20 O58 85.98(18) 15 . ?
O78 M20 O58 157.6(2) 15 . ?
O79 M20 O61 97.2(2) . . ?
O77 M20 O61 157.62(19) 15 . ?
O78 M20 O61 85.93(18) 15 . ?
O58 M20 O61 84.94(18) . . ?
O79 M20 O80 173.3(2) . . ?
O77 M20 O80 80.3(2) 15 . ?
O78 M20 O80 80.3(2) 15 . ?
O58 M20 O80 77.9(2) . . ?
O61 M20 O80 77.81(19) . . ?
O79 M20 M22 100.74(16) . 15 ?
O77 M20 M22 48.23(13) 15 15 ?
O78 M20 M22 48.45(12) 15 15 ?
O58 M20 M22 133.57(13) . 15 ?
O61 M20 M22 133.74(13) . 15 ?
O80 M20 M22 85.98(12) . 15 ?
O81 M21 O32 103.9(2) . 15 ?
O81 M21 O33 104.0(2) . 15 ?
O32 M21 O33 95.10(18) 15 15 ?
O81 M21 O66 97.2(2) . . ?
O32 M21 O66 85.63(18) 15 . ?
O33 M21 O66 157.9(2) 15 . ?
O81 M21 O62 97.5(2) . . ?
O32 M21 O62 157.5(2) 15 . ?
O33 M21 O62 86.46(18) 15 . ?
O66 M21 O62 84.70(18) . . ?
O81 M21 O82 173.1(2) . . ?
O32 M21 O82 80.4(2) 15 . ?
O33 M21 O82 80.7(2) 15 . ?
O66 M21 O82 77.6(2) . . ?
O62 M21 O82 77.6(2) . . ?
O81 M21 M8 100.44(17) . 15 ?
O32 M21 M8 48.40(13) 15 15 ?
O33 M21 M8 48.43(13) 15 15 ?
O66 M21 M8 133.44(13) . 15 ?
O62 M21 M8 134.24(13) . 15 ?
O82 M21 M8 86.46(12) . 15 ?
O83 M22 O77 103.7(2) . . ?
O83 M22 O78 104.3(2) . . ?
O77 M22 O78 94.82(18) . . ?
O83 M22 O69 97.9(2) . . ?
O77 M22 O69 157.5(2) . . ?
O78 M22 O69 86.03(18) . . ?
O83 M22 O65 96.6(2) . . ?
O77 M22 O65 86.65(18) . . ?
O78 M22 O65 158.05(19) . . ?
O69 M22 O65 84.45(18) . . ?
O83 M22 O84 173.5(2) . . ?
O77 M22 O84 80.1(2) . . ?
O78 M22 O84 80.4(2) . . ?
O69 M22 O84 77.8(2) . . ?
O65 M22 O84 78.28(19) . . ?
O83 M22 M20 100.53(16) . 14_455 ?
O77 M22 M20 48.14(13) . 14_455 ?
O78 M22 M20 48.40(13) . 14_455 ?
O69 M22 M20 133.77(13) . 14_455 ?
O65 M22 M20 134.22(13) . 14_455 ?
O84 M22 M20 85.94(12) . 14_455 ?
M1 O2 M3B 108.2(4) . . ?
M1 O2 M2B 108.4(3) . . ?
M3B O2 M2B 133.7(6) . . ?
M1 O2 M2A 108.08(19) . . ?
M3B O2 M2A 143.1(4) . . ?
M2B O2 M2A 21.0(3) . . ?
M1 O2 M3A 108.27(19) . . ?
M3B O2 M3A 20.5(6) . . ?
M2B O2 M3A 142.6(3) . . ?
M2A O2 M3A 140.9(2) . . ?
M1 O3 M6B 109.6(2) . . ?
M1 O3 M5B 109.3(3) . . ?
M6B O3 M5B 132.8(4) . . ?
M1 O3 M6A 108.5(2) . . ?
M6B O3 M6A 19.8(2) . . ?
M5B O3 M6A 141.7(3) . . ?
M1 O3 M5A 108.25(19) . . ?
M6B O3 M5A 141.7(3) . . ?
M5B O3 M5A 19.8(4) . . ?
M6A O3 M5A 140.5(2) . . ?
M1 O4 M3B 108.4(4) . . ?
M1 O4 M4 108.45(19) . . ?
M3B O4 M4 142.5(4) . . ?
M1 O4 M3A 108.37(18) . . ?
M3B O4 M3A 20.5(6) . . ?
M4 O4 M3A 140.4(2) . . ?
M1 O5 M4 108.42(19) . . ?
M1 O5 M5B 109.1(3) . . ?
M4 O5 M5B 142.1(3) . . ?
M1 O5 M5A 108.15(19) . . ?
M4 O5 M5A 140.4(2) . . ?
M5B O5 M5A 19.9(4) . . ?
M1 O6 M2B 109.3(3) . . ?
M1 O6 M2A 108.47(19) . . ?
M2B O6 M2A 21.1(3) . . ?
M1 O6 M6A 108.58(19) . . ?
M2B O6 M6A 141.4(3) . . ?
M2A O6 M6A 140.3(2) . . ?
M1 O6 M6B 109.1(2) . . ?
M2B O6 M6B 132.5(4) . . ?
M2A O6 M6B 142.0(3) . . ?
M6A O6 M6B 19.8(2) . . ?
M2A O8 M2B 23.8(4) . . ?
M2A O8 M7 155.3(3) . . ?
M2B O8 M7 147.2(4) . . ?
M2A O9 M2B 23.9(4) . . ?
M2A O9 M8 155.8(3) . . ?
M2B O9 M8 148.2(4) . . ?
M2B O10 M2A 0.5(3) . . ?
M2A O11 M2B 1.86(19) . . ?
M3A O12 M3B 23.1(6) . . ?
M3A O12 M9 154.9(3) . . ?
M3B O12 M9 147.2(6) . . ?
M3A O13 M3B 22.9(6) . . ?
M3A O13 M8 155.9(3) . . ?
M3B O13 M8 147.5(6) . . ?
M3A O14 M3B 2.5(3) . . ?
M3B O15 M3A 0.6(4) . . ?
M4 O16 M10 155.7(3) . . ?
M4 O18 M9 156.1(3) . . ?
M5A O20 M5B 22.7(5) . . ?
M5A O20 M10 155.0(3) . . ?
M5B O20 M10 148.6(5) . . ?
M5A O21 M5B 22.8(5) . . ?
M5A O21 M11 155.9(3) . . ?
M5B O21 M11 149.0(5) . . ?
M5A O22 M5B 1.2(2) . . ?
M5B O23 M5A 1.0(3) . . ?
M6A O24 M6B 22.7(3) . . ?
M6A O24 M11 155.0(3) . . ?
M6B O24 M11 148.5(4) . . ?
M6A O25 M6B 22.7(3) . . ?
M6A O25 M7 155.6(3) . . ?
M6B O25 M7 149.6(3) . . ?
M6A O26 M6B 1.34(13) . . ?
M6B O27 M6A 1.05(18) . . ?
M7 O28 M18 83.70(18) . . ?
M18 O29 M7 83.42(17) . . ?
C5 O31 M7 119.8(5) . . ?
M21 O32 M8 83.40(17) 14_455 . ?
M21 O33 M8 83.34(17) 14_455 . ?
C9 O35 M8 119.2(5) 14_455 . ?
M9 O36 M19 83.48(18) . 3_565 ?
M9 O37 M19 83.58(17) . 3_565 ?
C1 O39 M9 119.9(5) . . ?
M10 O40 M11 83.46(17) . 3_565 ?
M11 O41 M10 83.56(17) 3_565 . ?
C3 O43 M10 119.5(5) . . ?
C3 O45 M11 119.4(5) 2_665 . ?
M12 O46 M15B 108.3(3) . . ?
M12 O46 M16B 108.1(3) . . ?
M15B O46 M16B 136.2(5) . . ?
M12 O46 M16A 108.41(19) . . ?
M15B O46 M16A 142.9(3) . . ?
M16B O46 M16A 18.6(4) . . ?
M12 O46 M15A 108.22(19) . . ?
M15B O46 M15A 20.4(4) . . ?
M16B O46 M15A 143.5(3) . . ?
M16A O46 M15A 140.0(2) . . ?
M12 O47 M15B 109.1(3) . . ?
M12 O47 M14B 108.8(2) . . ?
M15B O47 M14B 133.5(4) . . ?
M12 O47 M14A 108.0(2) . . ?
M15B O47 M14A 142.5(3) . . ?
M14B O47 M14A 20.7(2) . . ?
M12 O47 M15A 108.30(19) . . ?
M15B O47 M15A 20.5(4) . . ?
M14B O47 M15A 142.5(3) . . ?
M14A O47 M15A 140.4(2) . . ?
M12 O48 M13B 109.3(3) . . ?
M12 O48 M14B 109.0(2) . . ?
M13B O48 M14B 133.0(4) . . ?
M12 O48 M13A 108.63(19) . . ?
M13B O48 M13A 20.0(3) . . ?
M14B O48 M13A 141.8(3) . . ?
M12 O48 M14A 107.98(19) . . ?
M13B O48 M14A 142.3(3) . . ?
M14B O48 M14A 20.7(2) . . ?
M13A O48 M14A 140.4(2) . . ?
M12 O49 M17B 109.2(3) . . ?
M12 O49 M13B 108.4(3) . . ?
M17B O49 M13B 133.1(4) . . ?
M12 O49 M17A 108.45(19) . . ?
M17B O49 M17A 21.4(3) . . ?
M13B O49 M17A 142.7(3) . . ?
M12 O49 M13A 108.40(18) . . ?
M17B O49 M13A 141.7(3) . . ?
M13B O49 M13A 19.9(3) . . ?
M17A O49 M13A 140.3(2) . . ?
M16B O51 M12 109.9(3) . . ?
M16B O51 M16A 18.7(4) . . ?
M12 O51 M16A 108.43(19) . . ?
M16B O51 M17B 133.5(5) . . ?
M12 O51 M17B 108.4(3) . . ?
M16A O51 M17B 142.5(3) . . ?
M16B O51 M17A 141.8(3) . . ?
M12 O51 M17A 108.0(2) . . ?
M16A O51 M17A 140.6(2) . . ?
M17B O51 M17A 21.2(3) . . ?
M13A O53 M13B 22.7(3) . . ?
M13A O53 M19 155.1(3) . . ?
M13B O53 M19 148.2(4) . . ?
M13A O54 M13B 22.7(3) . . ?
M13A O54 M18 156.5(3) . . ?
M13B O54 M18 149.9(4) . . ?
M13A O55 M13B 1.99(16) . . ?
M13B O56 M13A 0.4(2) . . ?
M14A O57 M14B 23.6(3) . . ?
M14A O57 M19 155.7(3) . . ?
M14B O57 M19 148.1(3) . . ?
M14A O58 M14B 23.5(3) . . ?
M14A O58 M20 154.9(3) . . ?
M14B O58 M20 148.8(3) . . ?
M14A O59 M14B 1.71(14) . . ?
M14B O60 M14A 0.7(2) . . ?
M15A O61 M15B 23.1(4) . . ?
M15A O61 M20 155.8(3) . . ?
M15B O61 M20 147.4(4) . . ?
M15A O62 M15B 22.9(4) . . ?
M15A O62 M21 155.3(3) . . ?
M15B O62 M21 148.2(4) . . ?
M15A O63 M15B 2.4(2) . . ?
M15B O64 M15A 0.6(3) . . ?
M16B O65 M16A 21.2(5) . . ?
M16B O65 M22 147.5(5) . . ?
M16A O65 M22 156.1(3) . . ?
M16A O66 M16B 20.9(4) . . ?
M16A O66 M21 155.3(3) . . ?
M16B O66 M21 150.3(4) . . ?
M16A O67 M16B 2.14(19) . . ?
M16B O68 M16A 1.4(3) . . ?
M17A O69 M17B 24.1(4) . . ?
M17A O69 M22 156.1(3) . . ?
M17B O69 M22 147.5(4) . . ?
M17A O70 M17B 24.2(4) . . ?
M17A O70 M18 155.1(3) . . ?
M17B O70 M18 146.2(4) . . ?
M17A O71 M17B 2.03(19) . . ?
M17B O72 M17A 0.3(3) . . ?
C5 O74 M18 119.9(5) . . ?
C1 O76 M19 119.8(5) 2_665 . ?
M20 O77 M22 83.64(17) 14_455 . ?
M20 O78 M22 83.15(17) 14_455 . ?
C7 O80 M20 119.4(5) . . ?
C9 O82 M21 119.4(5) . . ?
C7 O84 M22 118.9(5) 14_455 . ?
O76 C1 O39 128.6(7) 3_565 . ?
O76 C1 C2A 115.5(10) 3_565 . ?
O39 C1 C2A 114.5(10) . . ?
O76 C1 C2B 114.5(10) 3_565 . ?
O39 C1 C2B 115.0(10) . . ?
C2A C1 C2B 28.0(9) . . ?
O43 C3 O45 129.5(8) . 3_565 ?
O43 C3 C4A 113.7(10) . . ?
O45 C3 C4A 115.2(10) 3_565 . ?
O43 C3 C4B 114.2(9) . . ?
O45 C3 C4B 114.7(9) 3_565 . ?
C4A C3 C4B 28.5(8) . . ?
O74 C5 O31 128.6(7) . . ?
O74 C5 C6B 114.9(10) . . ?
O31 C5 C6B 114.5(10) . . ?
O74 C5 C6A 115.6(9) . . ?
O31 C5 C6A 114.7(9) . . ?
C6B C5 C6A 27.0(9) . . ?
O80 C7 O84 129.8(7) . 15 ?
O80 C7 C8B 115.7(10) . . ?
O84 C7 C8B 113.5(10) 15 . ?
O80 C7 C8A 115.6(9) . . ?
O84 C7 C8A 112.4(9) 15 . ?
C8B C7 C8A 27.9(9) . . ?
O82 C9 O35 129.5(7) . 15 ?
O82 C9 C10A 115.0(9) . . ?
O35 C9 C10A 114.5(9) 15 . ?
O82 C9 C10B 115.8(10) . . ?
O35 C9 C10B 112.8(10) 15 . ?
C10A C9 C10B 26.4(8) . . ?
O86A C2A O85A 129(2) . . ?
O86A C2A C1 115.7(17) . . ?
O85A C2A C1 115.1(17) . . ?
O88A C4A O87A 126(2) . . ?
O88A C4A C3 117.3(17) . . ?
O87A C4A C3 116.1(17) . . ?
O89A C6A O90A 125.0(19) . . ?
O89A C6A C5 117.2(15) . . ?
O90A C6A C5 117.5(15) . . ?
O91A C8A O92A 130(2) . . ?
O91A C8A C7 115.8(16) . . ?
O92A C8A C7 113.3(16) . . ?
O93A C10A O94A 128(2) . . ?
O93A C10A C9 115.8(16) . . ?
O94A C10A C9 115.6(15) . . ?
O85B C2B O86B 126(2) . . ?
O85B C2B C1 117.9(17) . . ?
O86B C2B C1 116.0(16) . . ?
O87B C4B O88B 127.2(19) . . ?
O87B C4B C3 115.8(16) . . ?
O88B C4B C3 116.6(16) . . ?
O90B C6B O89B 130(2) . . ?
O90B C6B C5 114.7(18) . . ?
O89B C6B C5 115.0(18) . . ?
O91B C8B O92B 128(2) . . ?
O91B C8B C7 116.7(17) . . ?
O92B C8B C7 114.9(17) . . ?
O94B C10B O93B 130(2) . . ?
O94B C10B C9 114.6(17) . . ?
O93B C10B C9 113.9(17) . . ?

_diffrn_measured_fraction_theta_max 0.997
_diffrn_reflns_theta_full        26.99
_diffrn_measured_fraction_theta_full 0.997
_refine_diff_density_max         1.977
_refine_diff_density_min         -1.187
_refine_diff_density_rms         0.190


