
#######################################################################
#
#                 Cambridge Crystallographic Data Centre
#                                CCDC 
#
#######################################################################
#
# If this CIF has been generated from an entry in the Cambridge 
# Structural Database, then it will include bibliographic, chemical, 
# crystal, experimental, refinement or atomic coordinate data resulting 
# from the CCDC's data processing and validation procedures.
#
#######################################################################

data_IYEMEG00
_symmetry_cell_setting           tetragonal
_symmetry_space_group_name_H-M   'P 43 21 2'
_symmetry_Int_Tables_number      96
_space_group_name_Hall           'P 4nw 2abw'
loop_
_symmetry_equiv_pos_site_id
_symmetry_equiv_pos_as_xyz
1 x,y,z
2 1/2-y,1/2+x,3/4+z
3 -x,-y,1/2+z
4 1/2+y,1/2-x,1/4+z
5 1/2+x,1/2-y,1/4-z
6 1/2-x,1/2+y,3/4-z
7 y,x,-z
8 -y,-x,1/2-z
_cell_length_a                   20.4170(14)
_cell_length_b                   20.4170(14)
_cell_length_c                   56.059(4)
_cell_angle_alpha                90
_cell_angle_beta                 90
_cell_angle_gamma                90
_cell_volume                     23368.4
loop_
_atom_site_label
_atom_site_type_symbol
_atom_site_fract_x
_atom_site_fract_y
_atom_site_fract_z
O1 O 0.36187(18) 1.03238(16) 0.71573(7)
H1 H 0.3642 1.0635 0.7060
O2 O 0.25773(15) 0.94168(17) 0.72330(5)
H2 H 0.2603 0.9772 0.7308
O3 O 0.1025(2) 0.5344(3) 0.55269(9)
H3 H 0.0990 0.4935 0.5514
O4 O 0.1812(2) 0.5145(2) 0.50969(6)
H4 H 0.1502 0.5416 0.5094
O5 O 0.80525(18) 0.18493(16) 0.56449(8)
H5 H 0.7895 0.1471 0.5632
O6 O 0.99604(17) 0.62851(17) 0.73830(7)
H6 H 0.9786 0.6265 0.7519
O7 O 0.96541(15) 0.76047(15) 0.73803(5)
H7 H 0.9976 0.7572 0.7288
O8 O 0.77371(16) 0.96043(14) 0.53045(5)
H8 H 0.8035 0.9621 0.5201
O9 O 0.75995(14) 0.85811(14) 0.49381(4)
H9 H 0.7689 0.8957 0.4887
O10 O 0.46114(17) 0.24552(15) 0.75798(5)
H10 H 0.4431 0.2419 0.7714
O11 O 0.33733(15) 0.31225(15) 0.75692(5)
H11 H 0.3023 0.2992 0.7507
O12 O 0.73752(18) 0.2262(2) 0.52153(7)
H12 H 0.6973 0.2176 0.5211
N1 N 0.79719(17) 0.57908(18) 0.69404(6)
N2 N 0.37720(17) 0.55657(17) 0.55453(6)
N3 N 0.66368(15) 0.82144(16) 0.58671(5)
N4 N 0.37208(16) 0.77535(16) 0.67850(5)
N5 N 0.49213(16) 0.85424(16) 0.68214(6)
N6 N 0.54714(18) 0.3934(2) 0.69950(6)
N7 N 0.64514(16) 0.72314(15) 0.54989(5)
N8 N 0.42576(19) 0.46803(16) 0.69944(6)
N9 N 0.30046(17) 0.55857(17) 0.59869(6)
N10 N 0.72769(19) 0.37543(17) 0.60654(7)
N11 N 0.65188(18) 0.41340(17) 0.56448(7)
N12 N 0.78081(16) 0.71991(17) 0.68528(5)
C1 C 0.39263(19) 0.71942(18) 0.68478(6)
H13 H 0.4144 0.7157 0.6997
C2 C 0.42575(18) 0.88152(18) 0.68373(6)
H14 H 0.4093 0.8912 0.6673
C3 C 0.70334(18) 0.7648(2) 0.64651(6)
H15 H 0.7451 0.7469 0.6429
C4 C 0.3144(2) 0.85912(19) 0.70147(7)
H16 H 0.2879 0.8261 0.7101
H17 H 0.2912 0.8705 0.6865
C5 C 0.36084(18) 0.66140(18) 0.64697(6)
H18 H 0.3520 0.7024 0.6396
C6 C 0.38144(19) 0.83004(18) 0.69541(6)
H19 H 0.4027 0.8134 0.7103
C7 C 0.71855(19) 0.86352(19) 0.51440(6)
H20 H 0.6801 0.8920 0.5105
C8 C 0.4997(2) 0.3899(2) 0.71885(7)
H21 H 0.5097 0.4245 0.7310
C9 C 0.5046(2) 0.3221(2) 0.73046(7)
H22 H 0.5003 0.2882 0.7179
H23 H 0.5484 0.3172 0.7378
C10 C 0.60352(19) 0.8183(2) 0.63405(7)
H24 H 0.5777 0.8376 0.6218
C11 C 0.4527(2) 0.3107(2) 0.74932(7)
H25 H 0.4596 0.3422 0.7627
C12 C 0.61916(19) 0.7893(2) 0.67527(6)
H26 H 0.6032 0.7880 0.6912
C13 C 0.38562(19) 0.32172(18) 0.73872(6)
H27 H 0.3782 0.2889 0.7257
C14 C 0.71748(18) 0.89212(19) 0.55805(6)
H28 H 0.6773 0.9188 0.5561
H29 H 0.7436 0.9111 0.5712
C15 C 0.3804(2) 0.39053(19) 0.72819(7)
H30 H 0.3359 0.3970 0.7216
H31 H 0.3872 0.4233 0.7410
C16 C 0.3596(2) 0.97155(19) 0.70299(8)
H32 H 0.3372 0.9790 0.6874
C17 C 0.38929(18) 0.54086(18) 0.66815(6)
C18 C 0.5871(2) 0.7025(2) 0.54948(8)
H33 H 0.5526 0.7322 0.5461
C19 C 0.6438(3) 0.4425(3) 0.68332(9)
C20 C 0.40165(19) 0.47589(18) 0.67894(6)
H34 H 0.3908 0.4380 0.6699
C21 C 0.32219(19) 0.60814(19) 0.61002(6)
H35 H 0.3205 0.6499 0.6025
C22 C 0.6946(2) 0.79499(19) 0.52080(6)
H36 H 0.7328 0.7653 0.5219
H37 H 0.6661 0.7788 0.5078
C23 C 0.65662(17) 0.79181(18) 0.54427(6)
H38 H 0.6141 0.8159 0.5429
C24 C 0.75715(19) 0.89373(18) 0.53503(6)
H39 H 0.7984 0.8681 0.5374
C25 C 0.39907(18) 0.59915(18) 0.68069(6)
H40 H 0.4157 0.5977 0.6965
C26 C 0.69892(17) 0.82145(18) 0.56408(6)
H41 H 0.7398 0.7949 0.5658
C27 C 0.6214(2) 0.5865(2) 0.55541(8)
H42 H 0.6655 0.5995 0.5528
C28 C 0.4282(2) 0.94528(19) 0.69818(7)
H43 H 0.4507 0.9371 0.7135
H44 H 0.4537 0.9785 0.6893
C29 C 0.5065(2) 0.6135(2) 0.55699(8)
H45 H 0.4722 0.6448 0.5558
C30 C 0.6610(2) 0.4730(2) 0.56093(8)
H46 H 0.7045 0.4880 0.5585
C31 C 0.32129(19) 0.92045(19) 0.71698(7)
H47 H 0.3461 0.9090 0.7318
C32 C 0.6875(2) 0.3754(2) 0.62347(8)
H48 H 0.6506 0.3472 0.6221
C33 C 0.6440(3) 0.4061(3) 0.66229(9)
H49 H 0.6106 0.3747 0.6595
C34 C 0.6071(2) 0.5211(2) 0.56039(8)
C35 C 0.31057(19) 0.5292(2) 0.55677(7)
H50 H 0.3132 0.4827 0.5622
C36 C 0.5713(2) 0.6330(2) 0.55419(8)
C37 C 0.7087(2) 0.3698(2) 0.56319(8)
H51 H 0.7496 0.3960 0.5609
C38 C 0.4232(2) 0.5246(2) 0.56329(8)
H52 H 0.4141 0.4844 0.5712
C39 C 0.6989(2) 0.3230(2) 0.54233(8)
H53 H 0.6552 0.3024 0.5437
H54 H 0.6997 0.3484 0.5273
C40 C 0.7503(2) 0.2695(2) 0.54100(8)
H55 H 0.7939 0.2907 0.5383
C41 C 0.7533(2) 0.2318(2) 0.56465(9)
H56 H 0.7107 0.2087 0.5673
C42 C 0.34983(18) 0.60335(18) 0.63426(6)
C43 C 0.7659(2) 0.2793(2) 0.58521(9)
H57 H 0.7677 0.2547 0.6004
H58 H 0.8088 0.3010 0.5829
C44 C 0.7126(2) 0.3309(2) 0.58666(8)
H59 H 0.6696 0.3091 0.5897
C45 C 0.58030(19) 0.8166(2) 0.65712(7)
C46 C 0.84937(18) 0.6280(2) 0.69677(6)
H60 H 0.8719 0.6350 0.6811
C47 C 0.89877(19) 0.6025(2) 0.71530(7)
H61 H 0.8750 0.5896 0.7300
H62 H 0.9210 0.5632 0.7089
C48 C 0.66493(18) 0.7916(2) 0.62849(6)
C49 C 0.94991(19) 0.6540(2) 0.72155(7)
H63 H 0.9739 0.6664 0.7067
C50 C 0.91661(19) 0.7143(2) 0.73134(7)
H64 H 0.8906 0.7019 0.7458
C51 C 0.68022(19) 0.7644(2) 0.67012(7)
C52 C 0.87051(19) 0.7421(2) 0.71244(7)
H65 H 0.8962 0.7548 0.6982
H66 H 0.8490 0.7819 0.7188
C53 C 0.81791(18) 0.69219(19) 0.70515(6)
H67 H 0.7880 0.6835 0.7189
C54 C 0.51479(19) 0.8447(2) 0.66185(7)
H68 H 0.4883 0.8561 0.6485
C55 C 0.69175(18) 0.79282(19) 0.60395(6)
H69 H 0.7320 0.7710 0.6010
C56 C 0.4309(2) 0.40100(18) 0.70861(6)
H70 H 0.4228 0.3692 0.6954
C57 C 0.72214(19) 0.7363(2) 0.68912(6)
H71 H 0.7043 0.7304 0.7046
C58 C 0.2726(2) 0.5700(2) 0.57518(7)
H72 H 0.2754 0.6176 0.5711
C59 C 0.6927(3) 0.4894(3) 0.68675(8)
H73 H 0.6920 0.5156 0.7007
C60 C 0.2009(2) 0.5478(2) 0.57531(7)
H74 H 0.1986 0.5019 0.5810
H75 H 0.1760 0.5753 0.5867
C61 C 0.7426(3) 0.4985(3) 0.67009(8)
C62 C 0.7420(2) 0.4614(3) 0.64922(8)
H76 H 0.7754 0.4676 0.6376
C63 C 0.1691(2) 0.5524(3) 0.55088(9)
H77 H 0.1715 0.5988 0.5453
C64 C 0.6928(3) 0.4153(3) 0.64522(9)
C65 C 0.2065(2) 0.5098(3) 0.53335(8)
H78 H 0.2048 0.4631 0.5387
C66 C 0.5923(3) 0.4343(3) 0.70134(8)
H79 H 0.5933 0.4615 0.7151
C67 C 0.7934(2) 0.5488(2) 0.67438(8)
H80 H 0.8240 0.5585 0.6621
C68 C 0.2778(2) 0.5323(3) 0.53234(7)
H81 H 0.3022 0.5041 0.5210
H82 H 0.2796 0.5778 0.5263
C69 C 0.38466(18) 0.65959(18) 0.67024(7)
C70 C 0.4917(2) 0.5476(2) 0.56166(8)
C71 C 0.5420(2) 0.50189(19) 0.56372(8)
H83 H 0.5320 0.4576 0.5674
C72 C 0.36419(18) 0.54328(18) 0.64503(6)
H84 H 0.3568 0.5037 0.6365

#END
