data_cg401171v_si_002\(1)
_audit_creation_date              2015-01-30
_audit_creation_method            'Materials Studio'
_symmetry_space_group_name_H-M    'P-1'
_symmetry_Int_Tables_number       2
_symmetry_cell_setting            triclinic
loop_
_symmetry_equiv_pos_as_xyz
  x,y,z
  -x,-y,-z
_cell_length_a                    18.6118
_cell_length_b                    34.0590
_cell_length_c                    37.6870
_cell_angle_alpha                 67.6050
_cell_angle_beta                  87.3770
_cell_angle_gamma                 75.4970
loop_
_atom_site_label
_atom_site_type_symbol
_atom_site_fract_x
_atom_site_fract_y
_atom_site_fract_z
_atom_site_U_iso_or_equiv
_atom_site_adp_type
_atom_site_occupancy
N1     N     0.41300   0.27833   0.23827   0.04398  Uani   1.00
N2     N     0.04270   0.24897   0.20262   0.05142  Uani   1.00
N3     N     0.22890   0.13187   0.37603   0.04960  Uani   1.00
N4     N     0.12790   0.29946   0.33678   0.04351  Uani   1.00
N5     N     0.06150   0.51767   0.10212   0.05516  Uani   1.00
N6     N    -0.21890   0.14044   0.40700   0.04467  Uani   1.00
N7     N     0.41060   0.04720   0.18744   0.07150  Uani   1.00
N8     N     0.52880   0.22817   0.47955   0.03816  Uani   1.00
N9     N     0.21870   0.45510   0.10559   0.05858  Uani   1.00
N10    N     0.08250   0.48065   0.19029   0.04777  Uani   1.00
N11    N    -0.03810   0.45940   0.10510   0.06698  Uani   1.00
N12    N    -0.16710   0.22678   0.38772   0.03968  Uani   1.00
N13    N    -0.17510   0.14930   0.32387   0.05083  Uani   1.00
N14    N    -0.07840   0.09266   0.45185   0.04664  Uani   1.00
N15    N     0.30290   0.13250   0.13674   0.07438  Uani   1.00
N16    N     0.30510   0.03590   0.25501   0.07853  Uani   1.00
N17    N     0.50240   0.08980   0.22230   0.07538  Uani   1.00
N18    N     0.56190   0.27148   0.39421   0.04217  Uani   1.00
N19    N     0.49790   0.14595   0.46915   0.04261  Uani   1.00
N20    N     0.36260   0.27108   0.47385   0.04233  Uani   1.00
C1     C     0.36200   0.31340   0.21002   0.04425  Uani   1.00
C2     C     0.37070   0.35600   0.19596   0.04553  Uani   1.00
H2     H     0.41060   0.36220   0.20600   0.05500  Uiso   1.00
C3     C     0.32220   0.38910   0.16770   0.04874  Uani   1.00
H3     H     0.32850   0.41810   0.15900   0.05800  Uiso   1.00
C4     C     0.26360   0.38150   0.15134   0.04925  Uani   1.00
C5     C     0.25570   0.33870   0.16550   0.05946  Uani   1.00
H5     H     0.21670   0.33230   0.15490   0.07100  Uiso   1.00
C6     C     0.30330   0.30530   0.19450   0.05575  Uani   1.00
H6     H     0.29590   0.27660   0.20400   0.06700  Uiso   1.00
C7     C     0.21310   0.41630   0.11950   0.05909  Uani   1.00
H7     H     0.17500   0.40890   0.10920   0.07100  Uiso   1.00
C8     C     0.42350   0.23530   0.23773   0.04549  Uani   1.00
C9     C     0.45570   0.22570   0.20760   0.06034  Uani   1.00
H9     H     0.47150   0.24740   0.18660   0.07200  Uiso   1.00
C10    C     0.46500   0.18290   0.20830   0.06922  Uani   1.00
H10    H     0.48760   0.17570   0.18770   0.08300  Uiso   1.00
C11    C     0.44090   0.15130   0.23920   0.05285  Uani   1.00
C12    C     0.40670   0.16270   0.26754   0.05164  Uani   1.00
H12    H     0.38830   0.14160   0.28790   0.06200  Uiso   1.00
C13    C     0.39770   0.20380   0.26783   0.04911  Uani   1.00
H13    H     0.37410   0.21080   0.28830   0.05900  Uiso   1.00
C14    C     0.45590   0.10480   0.24220   0.06264  Uani   1.00
H14    H     0.42940   0.08600   0.25990   0.07600  Uiso   1.00
C15    C     0.43400   0.28190   0.27217   0.04273  Uani   1.00
C16    C     0.49940   0.25330   0.29349   0.04217  Uani   1.00
H16    H     0.52910   0.23210   0.28470   0.05000  Uiso   1.00
C17    C     0.52130   0.25550   0.32725   0.04006  Uani   1.00
H17    H     0.56580   0.23600   0.34120   0.04800  Uiso   1.00
C18    C     0.47810   0.28624   0.34083   0.03636  Uani   1.00
C19    C     0.41320   0.31390   0.31988   0.04172  Uani   1.00
H19    H     0.38250   0.33450   0.32900   0.05000  Uiso   1.00
C20    C     0.39240   0.31190   0.28595   0.04296  Uani   1.00
H20    H     0.34830   0.33180   0.27180   0.05200  Uiso   1.00
C21    C     0.49970   0.29150   0.37509   0.04288  Uani   1.00
H21    H     0.46520   0.31120   0.38380   0.05200  Uiso   1.00
C22    C     0.00550   0.22320   0.23246   0.05040  Uani   1.00
C23    C    -0.07050   0.23700   0.23676   0.05224  Uani   1.00
H23    H    -0.09790   0.26520   0.21990   0.06200  Uiso   1.00
C24    C    -0.10670   0.21030   0.26530   0.04821  Uani   1.00
H24    H    -0.15840   0.22040   0.26750   0.05800  Uiso   1.00
C25    C    -0.06830   0.16900   0.29065   0.04767  Uani   1.00
C26    C     0.00770   0.15520   0.28668   0.05460  Uani   1.00
H26    H     0.03510   0.12720   0.30380   0.06500  Uiso   1.00
C27    C     0.04390   0.18200   0.25790   0.05672  Uani   1.00
H27    H     0.09560   0.17180   0.25560   0.06800  Uiso   1.00
C28    C    -0.10590   0.14010   0.32013   0.05197  Uani   1.00
H28    H    -0.07660   0.11280   0.33740   0.06300  Uiso   1.00
C29    C     0.10760   0.22740   0.18899   0.05169  Uani   1.00
C30    C     0.10480   0.19370   0.17736   0.05590  Uani   1.00
H30    H     0.05970   0.18520   0.17840   0.06700  Uiso   1.00
C31    C     0.16780   0.17240   0.16411   0.05851  Uani   1.00
H31    H     0.16550   0.14950   0.15590   0.07000  Uiso   1.00
C32    C     0.23450   0.18490   0.16294   0.05497  Uani   1.00
C33    C     0.23570   0.21890   0.17410   0.05780  Uani   1.00
H33    H     0.28020   0.22800   0.17280   0.06900  Uiso   1.00
C34    C     0.17300   0.23980   0.18710   0.05740  Uani   1.00
H34    H     0.17510   0.26300   0.19480   0.06900  Uiso   1.00
C35    C     0.30330   0.16220   0.14970   0.06237  Uani   1.00
H35    H     0.34840   0.17000   0.15090   0.07400  Uiso   1.00
C36    C     0.02230   0.29570   0.18740   0.05004  Uani   1.00
C37    C     0.03090   0.31810   0.14920   0.05296  Uani   1.00
H37    H     0.05000   0.30240   0.13320   0.06300  Uiso   1.00
C38    C     0.01160   0.36400   0.13370   0.05695  Uani   1.00
H38    H     0.01780   0.37930   0.10730   0.06800  Uiso   1.00
C39    C    -0.01600   0.38710   0.15630   0.05773  Uani   1.00
C40    C    -0.02330   0.36440   0.19440   0.06277  Uani   1.00
H40    H    -0.04120   0.38030   0.21040   0.07600  Uiso   1.00
C41    C    -0.00530   0.31860   0.21060   0.05955  Uani   1.00
H41    H    -0.01180   0.30340   0.23710   0.07200  Uiso   1.00
C42    C    -0.03920   0.43630   0.13990   0.06033  Uani   1.00
H42    H    -0.05560   0.45070   0.15710   0.07300  Uiso   1.00
C43    C     0.29020   0.14020   0.39156   0.04459  Uani   1.00
C44    C     0.31460   0.11810   0.42969   0.04313  Uani   1.00
H44    H     0.29110   0.09670   0.44640   0.05200  Uiso   1.00
C45    C     0.37350   0.12721   0.44354   0.03937  Uani   1.00
H45    H     0.38910   0.11250   0.47000   0.04700  Uiso   1.00
C46    C     0.41040   0.15750   0.41952   0.04169  Uani   1.00
C47    C     0.38650   0.17870   0.38180   0.04847  Uani   1.00
H47    H     0.41130   0.19930   0.36500   0.05800  Uiso   1.00
C48    C     0.32700   0.17080   0.36735   0.05492  Uani   1.00
H48    H     0.31090   0.18620   0.34100   0.06600  Uiso   1.00
C49    C     0.47570   0.16440   0.43410   0.04052  Uani   1.00
H49    H     0.50220   0.18350   0.41670   0.04900  Uiso   1.00
C50    C     0.24560   0.11760   0.34490   0.05047  Uani   1.00
C51    C     0.27910   0.07390   0.35180   0.05632  Uani   1.00
H51    H     0.29430   0.05370   0.37730   0.06800  Uiso   1.00
C52    C     0.29060   0.05970   0.32180   0.05539  Uani   1.00
H52    H     0.31390   0.02980   0.32670   0.06700  Uiso   1.00
C53    C     0.26790   0.08950   0.28393   0.05327  Uani   1.00
C54    C     0.23580   0.13320   0.27690   0.05630  Uani   1.00
H54    H     0.22210   0.15360   0.25130   0.06700  Uiso   1.00
C55    C     0.22360   0.14720   0.30720   0.05506  Uani   1.00
H55    H     0.20010   0.17710   0.30230   0.06600  Uiso   1.00
C56    C     0.27380   0.07510   0.25160   0.06483  Uani   1.00
H56    H     0.25340   0.09600   0.22700   0.07800  Uiso   1.00
C57    C     0.16350   0.12840   0.39450   0.04428  Uani   1.00
C58    C     0.11470   0.10780   0.38490   0.05880  Uani   1.00
H58    H     0.12750   0.09540   0.36600   0.07100  Uiso   1.00
C59    C     0.04850   0.10530   0.40265   0.05481  Uani   1.00
H59    H     0.01720   0.09090   0.39590   0.06600  Uiso   1.00
C60    C     0.02640   0.12320   0.42980   0.04292  Uani   1.00
C61    C     0.07380   0.14421   0.43911   0.04625  Uani   1.00
H61    H     0.05940   0.15770   0.45710   0.05500  Uiso   1.00
C62    C     0.14180   0.14562   0.42234   0.04579  Uani   1.00
H62    H     0.17420   0.15870   0.43020   0.05500  Uiso   1.00
C63    C    -0.04310   0.12150   0.44861   0.04577  Uani   1.00
H63    H    -0.06350   0.14300   0.45910   0.05500  Uiso   1.00
C64    C     0.06790   0.27911   0.34455   0.04003  Uani   1.00
C65    C     0.02840   0.27555   0.37723   0.03844  Uani   1.00
H65    H     0.04250   0.28580   0.39540   0.04600  Uiso   1.00
C66    C    -0.03160   0.25709   0.38337   0.03709  Uani   1.00
H66    H    -0.05760   0.25430   0.40610   0.04500  Uiso   1.00
C67    C    -0.05470   0.24267   0.35727   0.03511  Uani   1.00
C68    C    -0.01310   0.24540   0.32524   0.04561  Uani   1.00
H68    H    -0.02660   0.23470   0.30730   0.05500  Uiso   1.00
C69    C     0.04740   0.26330   0.31900   0.04463  Uani   1.00
H69    H     0.07500   0.26470   0.29690   0.05400  Uiso   1.00
C70    C    -0.12460   0.22987   0.35987   0.04125  Uani   1.00
H70    H    -0.13940   0.22340   0.33930   0.05000  Uiso   1.00
C71    C     0.12930   0.33410   0.30059   0.03976  Uani   1.00
C72    C     0.06460   0.36470   0.28335   0.04085  Uani   1.00
H72    H     0.01860   0.36130   0.29450   0.04900  Uiso   1.00
C73    C     0.06590   0.40040   0.24987   0.04123  Uani   1.00
H73    H     0.02080   0.42150   0.23830   0.05000  Uiso   1.00
C74    C     0.13190   0.40560   0.23323   0.04027  Uani   1.00
C75    C     0.19610   0.37340   0.24947   0.05617  Uani   1.00
H75    H     0.24180   0.37580   0.23760   0.06700  Uiso   1.00
C76    C     0.19460   0.33740   0.28323   0.05581  Uani   1.00
H76    H     0.23900   0.31520   0.29410   0.06700  Uiso   1.00
C77    C     0.13660   0.44700   0.20177   0.04771  Uani   1.00
H77    H     0.18230   0.44840   0.18960   0.05700  Uiso   1.00
C78    C     0.18240   0.28750   0.36712   0.03884  Uani   1.00
C79    C     0.21870   0.31710   0.37108   0.04466  Uani   1.00
H79    H     0.20870   0.34630   0.35250   0.05400  Uiso   1.00
C80    C     0.26810   0.30450   0.40128   0.04152  Uani   1.00
H80    H     0.29270   0.32490   0.40320   0.05000  Uiso   1.00
C81    C     0.28330   0.26213   0.42937   0.03824  Uani   1.00
C82    C     0.24670   0.23320   0.42517   0.04611  Uani   1.00
H82    H     0.25630   0.20420   0.44400   0.05500  Uiso   1.00
C83    C     0.19730   0.24506   0.39476   0.04375  Uani   1.00
H83    H     0.17340   0.22440   0.39260   0.05300  Uiso   1.00
C84    C     0.33340   0.24690   0.46335   0.04057  Uani   1.00
H84    H     0.34510   0.21640   0.47890   0.04900  Uiso   1.00
C85    C     0.12720   0.52540   0.08050   0.06251  Uani   1.00
H85A   H     0.16060   0.53280   0.09550   0.07500  Uiso   1.00
H85B   H     0.11170   0.55100   0.05600   0.07500  Uiso   1.00
C86    C     0.16960   0.48630   0.07200   0.06126  Uani   1.00
H86A   H     0.13440   0.47190   0.06600   0.07300  Uiso   1.00
H86B   H     0.19960   0.49600   0.04940   0.07300  Uiso   1.00
C87    C    -0.00190   0.52860   0.07590   0.06238  Uani   1.00
H87A   H     0.01520   0.51960   0.05430   0.07400  Uiso   1.00
H87B   H    -0.02230   0.56090   0.06530   0.07400  Uiso   1.00
C88    C    -0.06260   0.50720   0.09460   0.06539  Uani   1.00
H88A   H    -0.07630   0.51350   0.11790   0.07900  Uiso   1.00
H88B   H    -0.10710   0.51950   0.07670   0.07900  Uiso   1.00
C89    C     0.04490   0.54180   0.12745   0.05562  Uani   1.00
H89A   H    -0.00660   0.54270   0.13550   0.06700  Uiso   1.00
H89B   H     0.04810   0.57240   0.11310   0.06700  Uiso   1.00
C90    C     0.09800   0.52120   0.16305   0.05396  Uani   1.00
H90A   H     0.14970   0.51480   0.15520   0.06400  Uiso   1.00
H90B   H     0.09320   0.54230   0.17570   0.06400  Uiso   1.00
C91    C    -0.25880   0.13550   0.37653   0.04886  Uani   1.00
H91A   H    -0.28920   0.16460   0.35960   0.05900  Uiso   1.00
H91B   H    -0.29290   0.11650   0.38840   0.05900  Uiso   1.00
C92    C    -0.20550   0.11570   0.35265   0.05447  Uani   1.00
H92A   H    -0.16450   0.09210   0.36960   0.06500  Uiso   1.00
H92B   H    -0.23190   0.10250   0.33970   0.06500  Uiso   1.00
C93    C    -0.21000   0.10130   0.44280   0.05022  Uani   1.00
H93A   H    -0.19950   0.07490   0.43630   0.06000  Uiso   1.00
H93B   H    -0.25730   0.10280   0.45590   0.06000  Uiso   1.00
C94    C    -0.14900   0.09650   0.46973   0.04984  Uani   1.00
H94A   H    -0.15960   0.12240   0.47690   0.06000  Uiso   1.00
H94B   H    -0.14640   0.07010   0.49340   0.06000  Uiso   1.00
C95    C    -0.25670   0.18070   0.41327   0.04550  Uani   1.00
H95A   H    -0.23970   0.17830   0.43870   0.05400  Uiso   1.00
H95B   H    -0.31100   0.18350   0.41340   0.05400  Uiso   1.00
C96    C    -0.24110   0.22140   0.38226   0.04760  Uani   1.00
H96A   H    -0.24520   0.21950   0.35690   0.05700  Uiso   1.00
H96B   H    -0.27920   0.24750   0.38220   0.05700  Uiso   1.00
C97    C     0.49100   0.03790   0.19280   0.07743  Uani   1.00
H97A   H     0.51000   0.05820   0.17010   0.09300  Uiso   1.00
H97B   H     0.51360   0.00760   0.19450   0.09300  Uiso   1.00
C98    C     0.51480   0.04260   0.22920   0.08370  Uani   1.00
H98A   H     0.48570   0.02870   0.25090   0.10000  Uiso   1.00
H98B   H     0.56810   0.02760   0.23610   0.10000  Uiso   1.00
C99    C     0.38790   0.06200   0.14700   0.07650  Uani   1.00
H99A   H     0.34170   0.05330   0.14510   0.09200  Uiso   1.00
H99B   H     0.42690   0.04700   0.13440   0.09200  Uiso   1.00
C100   C     0.37470   0.11050   0.12600   0.07540  Uani   1.00
H10A   H     0.41550   0.12070   0.13270   0.09000  Uiso   1.00
H10B   H     0.37340   0.11780   0.09790   0.09000  Uiso   1.00
C101   C     0.38260   0.00950   0.21120   0.08440  Uani   1.00
H10C   H     0.41440  -0.00740   0.23520   0.10100  Uiso   1.00
H10D   H     0.38430  -0.01010   0.19730   0.10100  Uiso   1.00
C102   C     0.30350   0.02540   0.22080   0.08429  Uani   1.00
H10E   H     0.27720   0.05170   0.19880   0.10100  Uiso   1.00
H10F   H     0.27660   0.00220   0.22580   0.10100  Uiso   1.00
C103   C     0.59370   0.24434   0.46357   0.04030  Uani   1.00
H10G   H     0.63140   0.22040   0.45940   0.04800  Uiso   1.00
H10H   H     0.61580   0.25230   0.48250   0.04800  Uiso   1.00
C104   C     0.57610   0.28353   0.42623   0.04141  Uani   1.00
H10I   H     0.53180   0.30530   0.42880   0.05000  Uiso   1.00
H10J   H     0.61830   0.29740   0.42050   0.05000  Uiso   1.00
C105   C     0.55180   0.18101   0.50411   0.04422  Uani   1.00
H10K   H     0.51210   0.17310   0.52180   0.05300  Uiso   1.00
H10L   H     0.59720   0.17520   0.51990   0.05300  Uiso   1.00
C106   C     0.56690   0.15250   0.48077   0.04723  Uani   1.00
H10M   H     0.59260   0.16650   0.45760   0.05700  Uiso   1.00
H10N   H     0.60020   0.12370   0.49620   0.05700  Uiso   1.00
C107   C     0.48900   0.25360   0.50167   0.04283  Uani   1.00
H10O   H     0.48790   0.28490   0.48750   0.05100  Uiso   1.00
H10P   H     0.51690   0.24360   0.52660   0.05100  Uiso   1.00
C108   C     0.41040   0.24960   0.50925   0.04688  Uani   1.00
H10Q   H     0.41040   0.21820   0.52090   0.05600  Uiso   1.00
H10R   H     0.39030   0.26320   0.52780   0.05600  Uiso   1.00
N21    N     0.72090   0.56257   0.18702   0.04457  Uani   1.00
N22    N     0.86300   0.37381   0.36061   0.03835  Uani   1.00
N23    N     0.69730   0.57960   0.37239   0.04025  Uani   1.00
N24    N     0.49980   0.45898   0.33274   0.04267  Uani   1.00
N25    N     0.67010   0.31379   0.18238   0.04473  Uani   1.00
N26    N     0.65530   0.35132   0.57621   0.04142  Uani   1.00
N27    N     1.14560   0.56555   0.28150   0.04088  Uani   1.00
N28    N     0.30630   0.74468   0.20876   0.05700  Uani   1.00
N29    N     0.75090   0.38796   0.14955   0.04852  Uani   1.00
N30    N     0.53890   0.37640   0.20377   0.04295  Uani   1.00
N31    N     0.73420   0.28390   0.26293   0.04095  Uani   1.00
N32    N     0.57780   0.33610   0.51403   0.04580  Uani   1.00
N33    N     0.80390   0.34602   0.53769   0.04172  Uani   1.00
N34    N     0.60200   0.45237   0.53444   0.04418  Uani   1.00
N35    N     1.01720   0.61097   0.21892   0.04529  Uani   1.00
N36    N     1.12010   0.47418   0.29514   0.04325  Uani   1.00
N37    N     1.04520   0.57327   0.34699   0.04233  Uani   1.00
N38    N     0.40620   0.70850   0.15273   0.07459  Uani   1.00
N39    N     0.28510   0.65624   0.26480   0.06150  Uani   1.00
N40    N     0.43870   0.73823   0.25955   0.05603  Uani   1.00
C109   C     0.73100   0.52070   0.18515   0.04385  Uani   1.00
C110   C     0.69250   0.51570   0.15709   0.04390  Uani   1.00
H110   H     0.65680   0.54000   0.13990   0.05300  Uiso   1.00
C111   C     0.70620   0.47530   0.15419   0.04434  Uani   1.00
H111   H     0.68080   0.47260   0.13430   0.05300  Uiso   1.00
C112   C     0.75590   0.43850   0.17953   0.04463  Uani   1.00
C113   C     0.79140   0.44350   0.20840   0.05071  Uani   1.00
H113   H     0.82420   0.41870   0.22680   0.06100  Uiso   1.00
C114   C     0.77960   0.48460   0.21096   0.05061  Uani   1.00
H114   H     0.80540   0.48750   0.23060   0.06100  Uiso   1.00
C115   C     0.77340   0.39480   0.17710   0.04659  Uani   1.00
H115   H     0.80330   0.37060   0.19740   0.05600  Uiso   1.00
C116   C     0.78110   0.57278   0.20076   0.04173  Uani   1.00
C117   C     0.84940   0.56790   0.18406   0.04871  Uani   1.00
H117   H     0.85600   0.55730   0.16390   0.05800  Uiso   1.00
C118   C     0.90670   0.57840   0.19662   0.04690  Uani   1.00
H118   H     0.95280   0.57520   0.18480   0.05700  Uiso   1.00
C119   C     0.89940   0.59340   0.22596   0.04260  Uani   1.00
C120   C     0.83170   0.59710   0.24325   0.04806  Uani   1.00
H120   H     0.82580   0.60690   0.26390   0.05800  Uiso   1.00
C121   C     0.77340   0.58680   0.23087   0.04806  Uani   1.00
H121   H     0.72760   0.58930   0.24310   0.05800  Uiso   1.00
C122   C     0.95840   0.60890   0.23719   0.04464  Uani   1.00
H122   H     0.95230   0.61750   0.25850   0.05400  Uiso   1.00
C123   C     0.64790   0.58980   0.18446   0.04511  Uani   1.00
C124   C     0.63200   0.63430   0.16130   0.05560  Uani   1.00
H124   H     0.66980   0.64660   0.14700   0.06600  Uiso   1.00
C125   C     0.56120   0.66040   0.15920   0.05523  Uani   1.00
H125   H     0.55100   0.69070   0.14330   0.06700  Uiso   1.00
C126   C     0.50460   0.64360   0.17970   0.05824  Uani   1.00
C127   C     0.52130   0.59930   0.20300   0.06210  Uani   1.00
H127   H     0.48360   0.58700   0.21730   0.07500  Uiso   1.00
C128   C     0.59250   0.57300   0.20560   0.06109  Uani   1.00
H128   H     0.60330   0.54290   0.22220   0.07300  Uiso   1.00
C129   C     0.42700   0.66950   0.17610   0.06610  Uani   1.00
H129   H     0.39170   0.65620   0.19200   0.07900  Uiso   1.00
C130   C     0.84150   0.37425   0.39748   0.03686  Uani   1.00
C131   C     0.85160   0.33574   0.42979   0.03988  Uani   1.00
H131   H     0.87000   0.30820   0.42750   0.04700  Uiso   1.00
C132   C     0.83480   0.33748   0.46536   0.04088  Uani   1.00
H132   H     0.84200   0.31100   0.48750   0.04900  Uiso   1.00
C133   C     0.80730   0.37777   0.46914   0.03466  Uani   1.00
C134   C     0.79600   0.41600   0.43634   0.03936  Uani   1.00
H134   H     0.77600   0.44360   0.43830   0.04700  Uiso   1.00
C135   C     0.81360   0.41427   0.40117   0.03904  Uani   1.00
H135   H     0.80660   0.44070   0.37910   0.04700  Uiso   1.00
C136   C     0.79200   0.37960   0.50734   0.03857  Uani   1.00
H136   H     0.77240   0.40750   0.50890   0.04700  Uiso   1.00
C137   C     0.90880   0.40243   0.34078   0.03671  Uani   1.00
C138   C     0.97680   0.39699   0.35858   0.04000  Uani   1.00
H138   H     0.99150   0.37500   0.38350   0.04800  Uiso   1.00
C139   C     1.02260   0.42393   0.33958   0.03890  Uani   1.00
H139   H     1.06920   0.41980   0.35160   0.04600  Uiso   1.00
C140   C     1.00240   0.45655   0.30373   0.03807  Uani   1.00
C141   C     0.93330   0.46268   0.28686   0.04086  Uani   1.00
H141   H     0.91770   0.48570   0.26250   0.04900  Uiso   1.00
C142   C     0.88680   0.43558   0.30513   0.04052  Uani   1.00
H142   H     0.84020   0.43980   0.29310   0.04900  Uiso   1.00
C143   C     1.05530   0.48138   0.28154   0.04005  Uani   1.00
H143   H     1.04010   0.50320   0.25660   0.04800  Uiso   1.00
C144   C     0.82320   0.35740   0.34058   0.03748  Uani   1.00
C145   C     0.85240   0.34699   0.30985   0.04053  Uani   1.00
H145   H     0.89980   0.35140   0.30170   0.04800  Uiso   1.00
C146   C     0.81410   0.33032   0.29105   0.03764  Uani   1.00
H146   H     0.83570   0.32300   0.27030   0.04500  Uiso   1.00
C147   C     0.74400   0.32413   0.30205   0.03506  Uani   1.00
C148   C     0.71460   0.33462   0.33258   0.03939  Uani   1.00
H148   H     0.66670   0.33070   0.34030   0.04700  Uiso   1.00
C149   C     0.75330   0.35063   0.35202   0.03952  Uani   1.00
H149   H     0.73240   0.35710   0.37330   0.04800  Uiso   1.00
C150   C     0.70370   0.30350   0.28439   0.04177  Uani   1.00
H150   H     0.65270   0.30500   0.28930   0.05000  Uiso   1.00
C151   C     0.64550   0.61093   0.34315   0.03992  Uani   1.00
C152   C     0.57940   0.63310   0.35296   0.04619  Uani   1.00
H152   H     0.56850   0.62630   0.37920   0.05500  Uiso   1.00
C153   C     0.52850   0.66570   0.32367   0.04776  Uani   1.00
H153   H     0.48350   0.68120   0.33030   0.05700  Uiso   1.00
C154   C     0.54310   0.67540   0.28547   0.04623  Uani   1.00
C155   C     0.60920   0.65260   0.27623   0.05068  Uani   1.00
H155   H     0.62000   0.65900   0.25000   0.06000  Uiso   1.00
C156   C     0.66010   0.62040   0.30516   0.04696  Uani   1.00
H156   H     0.70510   0.60490   0.29850   0.05600  Uiso   1.00
C157   C     0.49500   0.71170   0.25400   0.05401  Uani   1.00
H157   H     0.50660   0.71540   0.22830   0.06500  Uiso   1.00
C158   C     0.77470   0.57190   0.36483   0.03739  Uani   1.00
C159   C     0.80970   0.60570   0.35495   0.04222  Uani   1.00
H159   H     0.78220   0.63390   0.35340   0.05100  Uiso   1.00
C160   C     0.88360   0.59913   0.34736   0.04389  Uani   1.00
H160   H     0.90660   0.62280   0.34050   0.05300  Uiso   1.00
C161   C     0.92590   0.55723   0.34966   0.03831  Uani   1.00
C162   C     0.88900   0.52430   0.35857   0.04340  Uani   1.00
H162   H     0.91560   0.49620   0.35940   0.05200  Uiso   1.00
C163   C     0.81510   0.53130   0.36621   0.04604  Uani   1.00
H163   H     0.79140   0.50800   0.37250   0.05500  Uiso   1.00
C164   C     1.00720   0.54770   0.34650   0.04282  Uani   1.00
H164   H     1.03200   0.52090   0.34400   0.05100  Uiso   1.00
C165   C     0.67420   0.54690   0.40401   0.03882  Uani   1.00
C166   C     0.70150   0.53690   0.44099   0.04486  Uani   1.00
H166   H     0.73710   0.55080   0.44480   0.05400  Uiso   1.00
C167   C     0.67680   0.50682   0.47221   0.04215  Uani   1.00
H167   H     0.69610   0.50010   0.49740   0.05000  Uiso   1.00
C168   C     0.62420   0.48620   0.46738   0.04027  Uani   1.00
C169   C     0.59930   0.49550   0.43038   0.04399  Uani   1.00
H169   H     0.56460   0.48110   0.42640   0.05300  Uiso   1.00
C170   C     0.62420   0.52560   0.39888   0.04511  Uani   1.00
H170   H     0.60660   0.53150   0.37370   0.05400  Uiso   1.00
C171   C     0.59210   0.45663   0.50020   0.04232  Uani   1.00
H171   H     0.56260   0.44000   0.49520   0.05000  Uiso   1.00
C172   C     0.46160   0.50340   0.32105   0.03709  Uani   1.00
C173   C     0.41420   0.52410   0.28820   0.04349  Uani   1.00
H173   H     0.40820   0.50820   0.27310   0.05200  Uiso   1.00
C174   C     0.37550   0.56780   0.27719   0.04329  Uani   1.00
H174   H     0.34310   0.58130   0.25480   0.05200  Uiso   1.00
C175   C     0.38350   0.59210   0.29846   0.04246  Uani   1.00
C176   C     0.43230   0.57110   0.33070   0.05519  Uani   1.00
H176   H     0.44030   0.58720   0.34520   0.06700  Uiso   1.00
C177   C     0.46920   0.52770   0.34217   0.04875  Uani   1.00
H177   H     0.50060   0.51410   0.36500   0.05800  Uiso   1.00
C178   C     0.33860   0.63760   0.28960   0.05015  Uani   1.00
H178   H     0.35080   0.65350   0.30340   0.06000  Uiso   1.00
C179   C     0.52840   0.43332   0.37141   0.03749  Uani   1.00
C180   C     0.48170   0.42700   0.40199   0.04181  Uani   1.00
H180   H     0.43020   0.44120   0.39730   0.05100  Uiso   1.00
C181   C     0.50920   0.40070   0.43882   0.04319  Uani   1.00
H181   H     0.47630   0.39650   0.45920   0.05200  Uiso   1.00
C182   C     0.58430   0.37999   0.44676   0.03606  Uani   1.00
C183   C     0.63070   0.38760   0.41626   0.04265  Uani   1.00
H183   H     0.68250   0.37440   0.42110   0.05100  Uiso   1.00
C184   C     0.60360   0.41390   0.37899   0.04364  Uani   1.00
H184   H     0.63660   0.41870   0.35870   0.05300  Uiso   1.00
C185   C     0.61570   0.34780   0.48486   0.04265  Uani   1.00
H185   H     0.66780   0.33510   0.48780   0.05100  Uiso   1.00
C186   C     0.52440   0.44140   0.30367   0.03857  Uani   1.00
C187   C     0.50310   0.40496   0.30451   0.04059  Uani   1.00
H187   H     0.47530   0.39050   0.32490   0.04900  Uiso   1.00
C188   C     0.52310   0.38990   0.27514   0.04150  Uani   1.00
H188   H     0.50900   0.36480   0.27560   0.05000  Uiso   1.00
C189   C     0.56350   0.41106   0.24499   0.03767  Uani   1.00
C190   C     0.58760   0.44640   0.24606   0.04557  Uani   1.00
H190   H     0.61790   0.46010   0.22670   0.05500  Uiso   1.00
C191   C     0.56720   0.46110   0.27512   0.04482  Uani   1.00
H191   H     0.58300   0.48540   0.27550   0.05400  Uiso   1.00
C192   C     0.57580   0.39940   0.21097   0.04285  Uani   1.00
H192   H     0.61250   0.40940   0.19390   0.05100  Uiso   1.00
C193   C     0.71020   0.32610   0.14673   0.04907  Uani   1.00
H19A   H     0.67570   0.34920   0.12560   0.05900  Uiso   1.00
H19B   H     0.72780   0.30020   0.13970   0.05900  Uiso   1.00
C194   C     0.77520   0.34260   0.15116   0.04812  Uani   1.00
H19C   H     0.80260   0.32330   0.17610   0.05800  Uiso   1.00
H19D   H     0.80930   0.34160   0.13040   0.05800  Uiso   1.00
C195   C     0.70240   0.26820   0.20825   0.04666  Uani   1.00
H19E   H     0.75640   0.26030   0.20480   0.05600  Uiso   1.00
H19F   H     0.67980   0.24840   0.20140   0.05600  Uiso   1.00
C196   C     0.68970   0.26130   0.25011   0.04619  Uani   1.00
H19G   H     0.63640   0.27280   0.25310   0.05500  Uiso   1.00
H19H   H     0.70390   0.22950   0.26620   0.05500  Uiso   1.00
C197   C     0.58940   0.32240   0.17458   0.05199  Uani   1.00
H19I   H     0.56810   0.30290   0.19690   0.06200  Uiso   1.00
H19J   H     0.58070   0.31580   0.15190   0.06200  Uiso   1.00
C198   C     0.55100   0.37010   0.16704   0.05105  Uani   1.00
H19K   H     0.58210   0.38930   0.15110   0.06200  Uiso   1.00
H19L   H     0.50260   0.37850   0.15280   0.06200  Uiso   1.00
C199   C     0.73000   0.32790   0.59394   0.04188  Uani   1.00
H19M   H     0.74300   0.29830   0.59290   0.05000  Uiso   1.00
H19N   H     0.73040   0.32410   0.62130   0.05000  Uiso   1.00
C200   C     0.78750   0.35210   0.57403   0.04313  Uani   1.00
H20A   H     0.76850   0.38370   0.56890   0.05200  Uiso   1.00
H20B   H     0.83350   0.34070   0.59080   0.05200  Uiso   1.00
C201   C     0.62120   0.38440   0.59209   0.04866  Uani   1.00
H20C   H     0.66070   0.39530   0.59910   0.05900  Uiso   1.00
H20D   H     0.59690   0.37040   0.61590   0.05900  Uiso   1.00
C202   C     0.56410   0.42310   0.56439   0.05096  Uani   1.00
H20E   H     0.53150   0.41230   0.55220   0.06100  Uiso   1.00
H20F   H     0.53280   0.43950   0.57860   0.06100  Uiso   1.00
C203   C     0.60780   0.32100   0.58130   0.04802  Uani   1.00
H20G   H     0.55520   0.33650   0.58140   0.05800  Uiso   1.00
H20H   H     0.62130   0.29620   0.60650   0.05800  Uiso   1.00
C204   C     0.61590   0.30320   0.54983   0.05102  Uani   1.00
H20I   H     0.66930   0.29370   0.54570   0.06100  Uiso   1.00
H20J   H     0.59520   0.27720   0.55780   0.06100  Uiso   1.00
C205   C     1.14510   0.59860   0.24257   0.04753  Uani   1.00
H20K   H     1.15910   0.58370   0.22430   0.05700  Uiso   1.00
H20L   H     1.18230   0.61510   0.24190   0.05700  Uiso   1.00
C206   C     1.06890   0.63030   0.23015   0.05314  Uani   1.00
H20M   H     1.04910   0.63910   0.25160   0.06400  Uiso   1.00
H20N   H     1.07360   0.65710   0.20820   0.06400  Uiso   1.00
C207   C     1.15780   0.58150   0.31087   0.04181  Uani   1.00
H20O   H     1.13440   0.61340   0.30180   0.05000  Uiso   1.00
H20P   H     1.21190   0.57700   0.31520   0.05000  Uiso   1.00
C208   C     1.12560   0.55800   0.34869   0.04498  Uani   1.00
H20Q   H     1.13960   0.52600   0.35470   0.05400  Uiso   1.00
H20R   H     1.14710   0.56300   0.36970   0.05400  Uiso   1.00
C209   C     1.20050   0.52420   0.28616   0.04698  Uani   1.00
H20S   H     1.21410   0.50690   0.31380   0.05600  Uiso   1.00
H20T   H     1.24600   0.53070   0.27320   0.05600  Uiso   1.00
C210   C     1.17030   0.49710   0.26936   0.04611  Uani   1.00
H21A   H     1.14340   0.51660   0.24430   0.05600  Uiso   1.00
H21B   H     1.21220   0.47540   0.26470   0.05600  Uiso   1.00
C211   C     0.30650   0.76310   0.16670   0.07886  Uani   1.00
H21C   H     0.34340   0.78090   0.15880   0.09500  Uiso   1.00
H21D   H     0.25700   0.78280   0.15610   0.09500  Uiso   1.00
C212   C     0.32460   0.72850   0.15000   0.08525  Uani   1.00
H21E   H     0.29880   0.70540   0.16390   0.10300  Uiso   1.00
H21F   H     0.30630   0.74170   0.12270   0.10300  Uiso   1.00
C213   C     0.31850   0.77690   0.22340   0.05716  Uani   1.00
H21G   H     0.29890   0.77090   0.24930   0.06800  Uiso   1.00
H21H   H     0.29100   0.80670   0.20630   0.06800  Uiso   1.00
C214   C     0.39960   0.77520   0.22560   0.06321  Uani   1.00
H21I   H     0.42240   0.77230   0.20210   0.07500  Uiso   1.00
H21J   H     0.40520   0.80290   0.22650   0.07500  Uiso   1.00
C215   C     0.23700   0.73320   0.22170   0.06933  Uani   1.00
H21K   H     0.21990   0.72140   0.20430   0.08300  Uiso   1.00
H21L   H     0.19890   0.76010   0.21990   0.08300  Uiso   1.00
C216   C     0.24280   0.69990   0.26230   0.06919  Uani   1.00
H21M   H     0.26760   0.70910   0.27940   0.08300  Uiso   1.00
H21N   H     0.19230   0.69850   0.27120   0.08300  Uiso   1.00
N41    N     1.01300   0.72593   0.32301   0.04317  Uani   1.00
N42    N     0.82180   0.89842   0.29061   0.05987  Uani   1.00
N43    N     0.65300   0.78400   0.36735   0.04412  Uani   1.00
N44    N     0.94060   0.83178   0.46373   0.04381  Uani   1.00
N45    N     1.30660   0.88615   0.32189   0.05555  Uani   1.00
N46    N     0.51560   1.02529   0.42055   0.03992  Uani   1.00
N47    N     0.92060   0.55140   0.54617   0.03934  Uani   1.00
N48    N     0.68370   0.78428   0.13880   0.05742  Uani   1.00
N49    N     1.26910   0.83250   0.28260   0.05965  Uani   1.00
N50    N     1.27320   0.83969   0.40725   0.05199  Uani   1.00
N51    N     1.14170   0.93810   0.30220   0.07271  Uani   1.00
N52    N     0.67700   1.00142   0.45309   0.04942  Uani   1.00
N53    N     0.55960   1.02746   0.34263   0.05092  Uani   1.00
N54    N     0.49730   0.93025   0.43748   0.04298  Uani   1.00
N55    N     1.04640   0.57769   0.49477   0.04287  Uani   1.00
N56    N     0.88240   0.64035   0.55736   0.04315  Uani   1.00
N57    N     0.80430   0.58283   0.47841   0.04375  Uani   1.00
N58    N     0.57460   0.79290   0.19839   0.06326  Uani   1.00
N59    N     0.75180   0.85890   0.14090   0.06329  Uani   1.00
N60    N     0.81250   0.71215   0.19419   0.05207  Uani   1.00
C217   C     1.06060   0.75420   0.30921   0.04383  Uani   1.00
C218   C     1.12610   0.74610   0.33005   0.04290  Uani   1.00
H218   H     1.13930   0.72070   0.35300   0.05100  Uiso   1.00
C219   C     1.17250   0.77410   0.31812   0.04952  Uani   1.00
H219   H     1.21670   0.76810   0.33300   0.05900  Uiso   1.00
C220   C     1.15400   0.81170   0.28394   0.04691  Uani   1.00
C221   C     1.08990   0.81920   0.26290   0.05416  Uani   1.00
H221   H     1.07730   0.84440   0.23970   0.06500  Uiso   1.00
C222   C     1.04300   0.79110   0.27437   0.05164  Uani   1.00
H222   H     0.99970   0.79670   0.25900   0.06100  Uiso   1.00
C223   C     1.20260   0.84190   0.27046   0.05241  Uani   1.00
H223   H     1.18260   0.87030   0.25140   0.06200  Uiso   1.00
C224   C     0.96120   0.72236   0.29862   0.04167  Uani   1.00
C225   C     0.98000   0.72089   0.26276   0.04363  Uani   1.00
H225   H     1.02870   0.72190   0.25440   0.05300  Uiso   1.00
C226   C     0.92800   0.71792   0.23930   0.04499  Uani   1.00
H226   H     0.94100   0.71760   0.21470   0.05400  Uiso   1.00
C227   C     0.85660   0.71541   0.25146   0.04513  Uani   1.00
C228   C     0.83960   0.71630   0.28717   0.04577  Uani   1.00
H228   H     0.79130   0.71450   0.29580   0.05500  Uiso   1.00
C229   C     0.89020   0.71970   0.31066   0.04150  Uani   1.00
H229   H     0.87670   0.72020   0.33510   0.05000  Uiso   1.00
C230   C     0.80010   0.71180   0.22750   0.04707  Uani   1.00
H230   H     0.75300   0.70910   0.23750   0.05700  Uiso   1.00
C231   C     1.01520   0.70017   0.36320   0.04007  Uani   1.00
C232   C     1.02370   0.65500   0.37503   0.04239  Uani   1.00
H232   H     1.02660   0.64220   0.35640   0.05100  Uiso   1.00
C233   C     1.02770   0.62910   0.41322   0.03969  Uani   1.00
H233   H     1.03430   0.59840   0.42090   0.04800  Uiso   1.00
C234   C     1.02220   0.64700   0.44114   0.03951  Uani   1.00
C235   C     1.01200   0.69220   0.42922   0.04261  Uani   1.00
H235   H     1.00780   0.70500   0.44780   0.05100  Uiso   1.00
C236   C     1.00800   0.71870   0.39036   0.04434  Uani   1.00
H236   H     1.00020   0.74950   0.38250   0.05300  Uiso   1.00
C237   C     1.02910   0.61920   0.48268   0.04221  Uani   1.00
H237   H     1.02030   0.63280   0.50080   0.05100  Uiso   1.00
C238   C     0.76000   0.91940   0.30617   0.05818  Uani   1.00
C239   C     0.76680   0.95050   0.32079   0.05392  Uani   1.00
H239   H     0.81380   0.95590   0.32280   0.06500  Uiso   1.00
C240   C     0.70330   0.97330   0.33242   0.05767  Uani   1.00
H240   H     0.70770   0.99470   0.34200   0.06900  Uiso   1.00
C241   C     0.63460   0.96580   0.33041   0.05217  Uani   1.00
C242   C     0.63070   0.93220   0.31840   0.06859  Uani   1.00
H242   H     0.58490   0.92450   0.31880   0.08300  Uiso   1.00
C243   C     0.69290   0.91000   0.30610   0.07195  Uani   1.00
H243   H     0.68890   0.88780   0.29730   0.08700  Uiso   1.00
C244   C     0.56570   0.99090   0.34009   0.05795  Uani   1.00
H244   H     0.52360   0.97900   0.34470   0.07000  Uiso   1.00
C245   C     0.80910   0.88390   0.26140   0.05645  Uani   1.00
C246   C     0.76020   0.90990   0.23000   0.06578  Uani   1.00
H246   H     0.73300   0.93830   0.22810   0.07900  Uiso   1.00
C247   C     0.74990   0.89560   0.20140   0.06535  Uani   1.00
H247   H     0.71520   0.91380   0.18030   0.07800  Uiso   1.00
C248   C     0.79110   0.85390   0.20340   0.05622  Uani   1.00
C249   C     0.84000   0.82820   0.23460   0.06566  Uani   1.00
H249   H     0.86850   0.80020   0.23640   0.07900  Uiso   1.00
C250   C     0.84830   0.84270   0.26380   0.06375  Uani   1.00
H250   H     0.88120   0.82400   0.28550   0.07600  Uiso   1.00
C251   C     0.78780   0.83770   0.17250   0.06183  Uani   1.00
H251   H     0.81550   0.80850   0.17700   0.07400  Uiso   1.00
C252   C     0.89600   0.89720   0.30000   0.06119  Uani   1.00
C253   C     0.94360   0.91050   0.27070   0.06007  Uani   1.00
H253   H     0.92880   0.91660   0.24490   0.07200  Uiso   1.00
C254   C     1.01210   0.91500   0.27860   0.05904  Uani   1.00
H254   H     1.04280   0.92520   0.25810   0.07100  Uiso   1.00
C255   C     1.03720   0.90480   0.31600   0.06063  Uani   1.00
C256   C     0.99240   0.88800   0.34450   0.08002  Uani   1.00
H256   H     1.01000   0.87860   0.37040   0.09600  Uiso   1.00
C257   C     0.92240   0.88370   0.33760   0.07715  Uani   1.00
H257   H     0.89330   0.87170   0.35840   0.09300  Uiso   1.00
C258   C     1.10400   0.91500   0.32620   0.06602  Uani   1.00
H258   H     1.11990   0.90340   0.35260   0.07900  Uiso   1.00
C259   C     0.62950   0.79260   0.32979   0.04536  Uani   1.00
C260   C     0.64210   0.75880   0.31623   0.04888  Uani   1.00
H260   H     0.66420   0.72950   0.33300   0.05900  Uiso   1.00
C261   C     0.62260   0.76800   0.27850   0.05069  Uani   1.00
H261   H     0.63160   0.74450   0.26970   0.06100  Uiso   1.00
C262   C     0.59020   0.81030   0.25290   0.05820  Uani   1.00
C263   C     0.57630   0.84340   0.26680   0.06305  Uani   1.00
H263   H     0.55440   0.87270   0.24990   0.07600  Uiso   1.00
C264   C     0.59360   0.83490   0.30462   0.05081  Uani   1.00
H264   H     0.58080   0.85810   0.31370   0.06100  Uiso   1.00
C265   C     0.57150   0.82160   0.21230   0.06317  Uani   1.00
H265   H     0.55660   0.85170   0.19580   0.07500  Uiso   1.00
C266   C     0.62970   0.81542   0.38493   0.03818  Uani   1.00
C267   C     0.55530   0.83430   0.38617   0.04171  Uani   1.00
H267   H     0.51880   0.82600   0.37570   0.05000  Uiso   1.00
C268   C     0.53340   0.86543   0.40260   0.04231  Uani   1.00
H268   H     0.48210   0.87910   0.40230   0.05100  Uiso   1.00
C269   C     0.58520   0.87664   0.41924   0.03785  Uani   1.00
C270   C     0.65960   0.85680   0.41902   0.05153  Uani   1.00
H270   H     0.69590   0.86400   0.43070   0.06200  Uiso   1.00
C271   C     0.68170   0.82650   0.40197   0.05205  Uani   1.00
H271   H     0.73310   0.81320   0.40190   0.06200  Uiso   1.00
C272   C     0.56280   0.90770   0.43881   0.04663  Uani   1.00
H272   H     0.59990   0.91080   0.45330   0.05600  Uiso   1.00
C273   C     0.69840   0.74160   0.39066   0.04587  Uani   1.00
C274   C     0.66460   0.70830   0.41254   0.04803  Uani   1.00
H274   H     0.61190   0.71430   0.41280   0.05800  Uiso   1.00
C275   C     0.70750   0.66680   0.43379   0.04831  Uani   1.00
H275   H     0.68390   0.64450   0.44870   0.05800  Uiso   1.00
C276   C     0.78380   0.65710   0.43368   0.04255  Uani   1.00
C277   C     0.81710   0.69040   0.41137   0.04847  Uani   1.00
H277   H     0.86970   0.68420   0.41090   0.05900  Uiso   1.00
C278   C     0.77450   0.73220   0.38978   0.04800  Uani   1.00
H278   H     0.79800   0.75430   0.37440   0.05800  Uiso   1.00
C279   C     0.83100   0.61290   0.45491   0.04500  Uani   1.00
H279   H     0.88280   0.60680   0.45090   0.05400  Uiso   1.00
C280   C     0.91730   0.79170   0.47976   0.04266  Uani   1.00
C281   C     0.96000   0.75650   0.50962   0.04360  Uani   1.00
H281   H     1.00350   0.75920   0.51970   0.05200  Uiso   1.00
C282   C     0.93880   0.71710   0.52480   0.04652  Uani   1.00
H282   H     0.96890   0.69260   0.54480   0.05600  Uiso   1.00
C283   C     0.87380   0.71350   0.51083   0.03932  Uani   1.00
C284   C     0.83230   0.74830   0.48068   0.04446  Uani   1.00
H284   H     0.78890   0.74570   0.47040   0.05300  Uiso   1.00
C285   C     0.85410   0.78760   0.46519   0.04666  Uani   1.00
H285   H     0.82520   0.81170   0.44440   0.05600  Uiso   1.00
C286   C     0.84810   0.67320   0.52839   0.04415  Uani   1.00
H286   H     0.80430   0.67150   0.51770   0.05300  Uiso   1.00
C287   C     0.88580   0.87280   0.45422   0.04359  Uani   1.00
C288   C     0.82590   0.87550   0.47749   0.04242  Uani   1.00
H288   H     0.82160   0.85040   0.49920   0.05100  Uiso   1.00
C289   C     0.77290   0.91460   0.46903   0.04861  Uani   1.00
H289   H     0.73260   0.91620   0.48530   0.05900  Uiso   1.00
C290   C     0.77730   0.95210   0.43682   0.04629  Uani   1.00
C291   C     0.83700   0.94800   0.41456   0.05108  Uani   1.00
H291   H     0.84080   0.97280   0.39240   0.06100  Uiso   1.00
C292   C     0.89180   0.90930   0.42295   0.05272  Uani   1.00
H292   H     0.93310   0.90810   0.40730   0.06400  Uiso   1.00
C293   C     0.72010   0.99430   0.42823   0.04664  Uani   1.00
H293   H     0.71590   1.01660   0.40320   0.05600  Uiso   1.00
C294   C     1.01270   0.82880   0.44939   0.04300  Uani   1.00
C295   C     1.05580   0.85680   0.45088   0.04495  Uani   1.00
H295   H     1.03710   0.87790   0.46200   0.05400  Uiso   1.00
C296   C     1.12510   0.85350   0.43630   0.04412  Uani   1.00
H296   H     1.15330   0.87290   0.43690   0.05400  Uiso   1.00
C297   C     1.15480   0.82210   0.42062   0.04886  Uani   1.00
C298   C     1.11150   0.79470   0.41953   0.05255  Uani   1.00
H298   H     1.13040   0.77340   0.40870   0.06300  Uiso   1.00
C299   C     1.04250   0.79770   0.43373   0.05148  Uani   1.00
H299   H     1.01440   0.77830   0.43290   0.06200  Uiso   1.00
C300   C     1.22930   0.81820   0.40486   0.04986  Uani   1.00
H300   H     1.24480   0.79840   0.39220   0.06000  Uiso   1.00
C301   C     1.35500   0.86900   0.29660   0.06290  Uani   1.00
H30A   H     1.38640   0.83950   0.31210   0.07500  Uiso   1.00
H30B   H     1.38840   0.88850   0.28460   0.07500  Uiso   1.00
C302   C     1.31150   0.86590   0.26550   0.07225  Uani   1.00
H30C   H     1.27690   0.89480   0.25120   0.08700  Uiso   1.00
H30D   H     1.34580   0.85790   0.24710   0.08700  Uiso   1.00
C303   C     1.27520   0.93330   0.30220   0.07875  Uani   1.00
H30E   H     1.26760   0.94040   0.27440   0.09500  Uiso   1.00
H30F   H     1.31070   0.94930   0.30530   0.09500  Uiso   1.00
C304   C     1.20210   0.94830   0.31790   0.08664  Uani   1.00
H30G   H     1.20560   0.93360   0.34630   0.10400  Uiso   1.00
H30H   H     1.19110   0.98040   0.31120   0.10400  Uiso   1.00
C305   C     1.34870   0.87700   0.35760   0.05914  Uani   1.00
H30I   H     1.32890   0.90110   0.36670   0.07100  Uiso   1.00
H30J   H     1.40140   0.87620   0.35210   0.07100  Uiso   1.00
C306   C     1.34430   0.83400   0.38899   0.05151  Uani   1.00
H30K   H     1.34870   0.81150   0.37800   0.06200  Uiso   1.00
H30L   H     1.38580   0.82400   0.40840   0.06200  Uiso   1.00
C307   C     0.49100   1.06330   0.38398   0.04882  Uani   1.00
H30M   H     0.52680   1.08180   0.37820   0.05800  Uiso   1.00
H30N   H     0.44200   1.08130   0.38690   0.05800  Uiso   1.00
C308   C     0.48500   1.04950   0.35084   0.05619  Uani   1.00
H30O   H     0.45230   1.02910   0.35730   0.06800  Uiso   1.00
H30P   H     0.46260   1.07560   0.32770   0.06800  Uiso   1.00
C309   C     0.45390   1.00544   0.43654   0.04547  Uani   1.00
H30Q   H     0.42020   1.00920   0.41530   0.05500  Uiso   1.00
H30R   H     0.42520   1.02070   0.45240   0.05500  Uiso   1.00
C310   C     0.48220   0.95650   0.46127   0.04665  Uani   1.00
H31A   H     0.52830   0.95170   0.47610   0.05600  Uiso   1.00
H31B   H     0.44460   0.94690   0.47980   0.05600  Uiso   1.00
C311   C     0.54500   1.03870   0.44815   0.04654  Uani   1.00
H31C   H     0.54440   1.01650   0.47430   0.05500  Uiso   1.00
H31D   H     0.51170   1.06690   0.44720   0.05500  Uiso   1.00
C312   C     0.62300   1.04430   0.44130   0.05062  Uani   1.00
H31E   H     0.62700   1.06140   0.41370   0.06100  Uiso   1.00
H31F   H     0.63420   1.06090   0.45610   0.06100  Uiso   1.00
C313   C     0.90590   0.56060   0.58100   0.04422  Uani   1.00
H31G   H     0.95280   0.56160   0.59160   0.05300  Uiso   1.00
H31H   H     0.88820   0.53630   0.60040   0.05300  Uiso   1.00
C314   C     0.84820   0.60370   0.57401   0.04647  Uani   1.00
H31I   H     0.80730   0.60710   0.55630   0.05500  Uiso   1.00
H31J   H     0.82690   0.60360   0.59860   0.05500  Uiso   1.00
C315   C     0.86730   0.52930   0.53980   0.04655  Uani   1.00
H31K   H     0.81930   0.53890   0.55020   0.05500  Uiso   1.00
H31L   H     0.88590   0.49720   0.55370   0.05500  Uiso   1.00
C316   C     0.85510   0.53930   0.49733   0.04958  Uani   1.00
H31M   H     0.90340   0.53850   0.48500   0.05900  Uiso   1.00
H31N   H     0.83410   0.51680   0.49430   0.05900  Uiso   1.00
C317   C     0.99660   0.52590   0.54731   0.04383  Uani   1.00
H31O   H     0.99900   0.51040   0.52960   0.05300  Uiso   1.00
H31P   H     1.01040   0.50340   0.57360   0.05300  Uiso   1.00
C318   C     1.05220   0.55340   0.53626   0.04362  Uani   1.00
H31Q   H     1.04260   0.57420   0.54950   0.05200  Uiso   1.00
H31R   H     1.10310   0.53420   0.54430   0.05200  Uiso   1.00
C319   C     0.73300   0.74530   0.13540   0.06386  Uani   1.00
H31S   H     0.77920   0.75250   0.12380   0.07600  Uiso   1.00
H31T   H     0.70850   0.73640   0.11800   0.07600  Uiso   1.00
C320   C     0.75240   0.70760   0.17368   0.05883  Uani   1.00
H32A   H     0.70810   0.70680   0.18930   0.07000  Uiso   1.00
H32B   H     0.76790   0.67960   0.16970   0.07000  Uiso   1.00
C321   C     0.68980   0.82510   0.10720   0.06301  Uani   1.00
H32C   H     0.64580   0.84910   0.10600   0.07500  Uiso   1.00
H32D   H     0.69060   0.82110   0.08250   0.07500  Uiso   1.00
C322   C     0.75990   0.83790   0.11270   0.06770  Uani   1.00
H32E   H     0.80190   0.81130   0.12150   0.08100  Uiso   1.00
H32F   H     0.77190   0.85830   0.08770   0.08100  Uiso   1.00
C323   C     0.60610   0.78070   0.13930   0.06429  Uani   1.00
H32G   H     0.60550   0.74970   0.15370   0.07700  Uiso   1.00
H32H   H     0.58740   0.78910   0.11260   0.07700  Uiso   1.00
C324   C     0.55380   0.80900   0.15730   0.07132  Uani   1.00
H32I   H     0.55660   0.83980   0.14450   0.08600  Uiso   1.00
H32J   H     0.50200   0.80780   0.15380   0.08600  Uiso   1.00
N61    N     0.10300   0.69478  -0.06502   0.04727  Uani   1.00
N62    N     0.04950   0.69639   0.12315   0.04428  Uani   1.00
N63    N     0.28040   0.81240  -0.00373   0.06693  Uani   1.00
N64    N    -0.11520   0.86884  -0.03749   0.05416  Uani   1.00
N65    N    -0.33610   0.65670   0.01880   0.10105  Uani   1.00
N66    N     0.46760   0.52240   0.10255   0.06088  Uani   1.00
N67    N     0.11670   0.94260  -0.24760   0.10098  Uani   1.00
N68    N     0.03560   0.94762   0.13772   0.06456  Uani   1.00
N69    N    -0.22470   0.65810  -0.04490   0.11071  Uani   1.00
N70    N    -0.35590   0.75140   0.00820   0.17144  Uani   1.00
N71    N    -0.20890   0.62290   0.08220   0.06510  Uani   1.00
N72    N     0.33350   0.52870   0.05483   0.06307  Uani   1.00
N73    N     0.47510   0.61580   0.04730   0.08678  Uani   1.00
N74    N     0.37450   0.55840   0.15802   0.06654  Uani   1.00
N75    N    -0.03840   0.93530  -0.21551   0.08869  Uani   1.00
N76    N     0.18380   0.84430  -0.21520   0.08615  Uani   1.00
N77    N     0.18110   0.95140  -0.17670   0.10402  Uani   1.00
N78    N    -0.02760   0.86780   0.16616   0.05539  Uani   1.00
N79    N     0.19030   0.89210   0.12592   0.07733  Uani   1.00
N80    N    -0.02870   0.97780   0.05469   0.08147  Uani   1.00
C325   C     0.02770   0.69450  -0.06183   0.04525  Uani   1.00
C326   C    -0.02870   0.73270  -0.07557   0.05642  Uani   1.00
H326   H    -0.01650   0.76010  -0.08750   0.06800  Uiso   1.00
C327   C    -0.10210   0.73170  -0.07230   0.06873  Uani   1.00
H327   H    -0.13950   0.75850  -0.08120   0.08200  Uiso   1.00
C328   C    -0.12290   0.69230  -0.05630   0.06568  Uani   1.00
C329   C    -0.06570   0.65390  -0.04210   0.05978  Uani   1.00
H329   H    -0.07780   0.62650  -0.02990   0.07100  Uiso   1.00
C330   C     0.00710   0.65490  -0.04541   0.05302  Uani   1.00
H330   H     0.04460   0.62810  -0.03640   0.06400  Uiso   1.00
C331   C    -0.20240   0.69310  -0.05610   0.09990  Uani   1.00
H331   H    -0.23820   0.72060  -0.06460   0.12000  Uiso   1.00
C332   C     0.15440   0.66430  -0.03395   0.04857  Uani   1.00
C333   C     0.13880   0.65900   0.00332   0.05442  Uani   1.00
H333   H     0.09530   0.67720   0.00850   0.06500  Uiso   1.00
C334   C     0.18630   0.62740   0.03340   0.05714  Uani   1.00
H334   H     0.17550   0.62450   0.05900   0.06800  Uiso   1.00
C335   C     0.24910   0.59980   0.02697   0.04713  Uani   1.00
C336   C     0.26580   0.60720  -0.01060   0.06086  Uani   1.00
H336   H     0.31040   0.58990  -0.01590   0.07300  Uiso   1.00
C337   C     0.21950   0.63910  -0.04090   0.06344  Uani   1.00
H337   H     0.23250   0.64370  -0.06660   0.07600  Uiso   1.00
C338   C     0.29180   0.56200   0.05930   0.05798  Uani   1.00
H338   H     0.28820   0.56250   0.08440   0.06900  Uiso   1.00
C339   C     0.12590   0.72990  -0.09397   0.04683  Uani   1.00
C340   C     0.17580   0.74790  -0.08430   0.06193  Uani   1.00
H340   H     0.19360   0.73760  -0.05830   0.07400  Uiso   1.00
C341   C     0.20110   0.78170  -0.11270   0.07124  Uani   1.00
H341   H     0.23550   0.79440  -0.10590   0.08600  Uiso   1.00
C342   C     0.17550   0.79640  -0.15050   0.05521  Uani   1.00
C343   C     0.12480   0.77810  -0.15930   0.05149  Uani   1.00
H343   H     0.10610   0.78850  -0.18510   0.06100  Uiso   1.00
C344   C     0.10030   0.74510  -0.13163   0.04627  Uani   1.00
H344   H     0.06550   0.73280  -0.13850   0.05600  Uiso   1.00
C345   C     0.20540   0.83100  -0.18040   0.07421  Uani   1.00
H345   H     0.24060   0.84300  -0.17320   0.08900  Uiso   1.00
C346   C    -0.00540   0.68390   0.10690   0.04531  Uani   1.00
C347   C     0.00940   0.67550   0.07390   0.04847  Uani   1.00
H347   H     0.05440   0.67900   0.06160   0.05800  Uiso   1.00
C348   C    -0.04130   0.66190   0.05891   0.05140  Uani   1.00
H348   H    -0.03120   0.65680   0.03580   0.06200  Uiso   1.00
C349   C    -0.10640   0.65540   0.07639   0.04776  Uani   1.00
C350   C    -0.12110   0.66520   0.10920   0.05095  Uani   1.00
H350   H    -0.16630   0.66190   0.12140   0.06100  Uiso   1.00
C351   C    -0.07140   0.67970   0.12442   0.04993  Uani   1.00
H351   H    -0.08250   0.68650   0.14660   0.06000  Uiso   1.00
C352   C    -0.15460   0.63480   0.06330   0.05668  Uani   1.00
H352   H    -0.14490   0.63020   0.04000   0.06800  Uiso   1.00
C353   C     0.03090   0.73810   0.12541   0.04535  Uani   1.00
C354   C    -0.02050   0.77170   0.09921   0.05187  Uani   1.00
H354   H    -0.04080   0.76730   0.07870   0.06200  Uiso   1.00
C355   C    -0.04330   0.81250   0.10270   0.05166  Uani   1.00
H355   H    -0.07790   0.83600   0.08410   0.06200  Uiso   1.00
C356   C    -0.01510   0.81870   0.13347   0.04708  Uani   1.00
C357   C     0.03830   0.78480   0.15865   0.04757  Uani   1.00
H357   H     0.05920   0.78890   0.17910   0.05700  Uiso   1.00
C358   C     0.06190   0.74500   0.15469   0.04625  Uani   1.00
H358   H     0.09950   0.72230   0.17200   0.05600  Uiso   1.00
C359   C    -0.04430   0.86120   0.13740   0.05256  Uani   1.00
H359   H    -0.07670   0.88430   0.11740   0.06300  Uiso   1.00
C360   C     0.12410   0.67210   0.12589   0.04586  Uani   1.00
C361   C     0.18070   0.69230   0.11150   0.05898  Uani   1.00
H361   H     0.16980   0.72340   0.09950   0.07100  Uiso   1.00
C362   C     0.25370   0.66770   0.11440   0.06402  Uani   1.00
H362   H     0.29150   0.68230   0.10360   0.07600  Uiso   1.00
C363   C     0.27250   0.62260   0.13260   0.05298  Uani   1.00
C364   C     0.21480   0.60240   0.14618   0.04982  Uani   1.00
H364   H     0.22580   0.57130   0.15790   0.05900  Uiso   1.00
C365   C     0.14210   0.62650   0.14301   0.04499  Uani   1.00
H365   H     0.10390   0.61180   0.15260   0.05400  Uiso   1.00
C366   C     0.35080   0.59900   0.13740   0.05578  Uani   1.00
H366   H     0.38590   0.61470   0.12440   0.06700  Uiso   1.00
C367   C     0.31710   0.76740   0.00510   0.06813  Uani   1.00
C368   C     0.30890   0.74770  -0.02010   0.09653  Uani   1.00
H368   H     0.27920   0.76430  -0.04330   0.11600  Uiso   1.00
C369   C     0.34330   0.70470  -0.01150   0.11530  Uani   1.00
H369   H     0.33500   0.69110  -0.02820   0.13900  Uiso   1.00
C370   C     0.38830   0.68130   0.01970   0.08548  Uani   1.00
C371   C     0.39950   0.70070   0.04490   0.07758  Uani   1.00
H371   H     0.43200   0.68400   0.06720   0.09300  Uiso   1.00
C372   C     0.36360   0.74430   0.03780   0.06798  Uani   1.00
H372   H     0.37090   0.75770   0.05490   0.08200  Uiso   1.00
C373   C     0.42900   0.63410   0.02350   0.12583  Uani   1.00
H373   H     0.41640   0.62120   0.00710   0.15100  Uiso   1.00
C374   C     0.24950   0.82580   0.02630   0.06041  Uani   1.00
C375   C     0.20590   0.80380   0.05290   0.05856  Uani   1.00
H375   H     0.19670   0.77810   0.05180   0.07000  Uiso   1.00
C376   C     0.17530   0.81770   0.08090   0.05858  Uani   1.00
H376   H     0.14360   0.80240   0.09820   0.07000  Uiso   1.00
C377   C     0.19000   0.85370   0.08450   0.05743  Uani   1.00
C378   C     0.23310   0.87720   0.05710   0.07910  Uani   1.00
H378   H     0.24140   0.90320   0.05800   0.09500  Uiso   1.00
C379   C     0.26350   0.86270   0.02880   0.07891  Uani   1.00
H379   H     0.29420   0.87820   0.01100   0.09400  Uiso   1.00
C380   C     0.16390   0.86630   0.11690   0.05852  Uani   1.00
H380   H     0.12580   0.85470   0.13150   0.07100  Uiso   1.00
C381   C     0.24720   0.83970  -0.04090   0.06307  Uani   1.00
C382   C     0.29120   0.85100  -0.07260   0.07371  Uani   1.00
H382   H     0.34340   0.83880  -0.06970   0.08900  Uiso   1.00
C383   C     0.25820   0.88020  -0.10820   0.07913  Uani   1.00
H383   H     0.28830   0.88920  -0.12940   0.09500  Uiso   1.00
C384   C     0.18160   0.89630  -0.11330   0.07203  Uani   1.00
C385   C     0.13860   0.88340  -0.08280   0.07417  Uani   1.00
H385   H     0.08600   0.89360  -0.08610   0.08900  Uiso   1.00
C386   C     0.17170   0.85530  -0.04690   0.07370  Uani   1.00
H386   H     0.14110   0.84660  -0.02600   0.08900  Uiso   1.00
C387   C     0.14420   0.93040  -0.15030   0.08372  Uani   1.00
H387   H     0.09180   0.93650  -0.15410   0.10000  Uiso   1.00
C388   C    -0.08620   0.87680  -0.07472   0.04821  Uani   1.00
C389   C    -0.04280   0.84350  -0.08380   0.05860  Uani   1.00
H389   H    -0.03080   0.81450  -0.06470   0.07000  Uiso   1.00
C390   C    -0.01600   0.85090  -0.11980   0.06032  Uani   1.00
H390   H     0.01560   0.82750  -0.12520   0.07200  Uiso   1.00
C391   C    -0.03520   0.89260  -0.14821   0.05456  Uani   1.00
C392   C    -0.07790   0.92630  -0.13870   0.06711  Uani   1.00
H392   H    -0.08970   0.95530  -0.15760   0.08000  Uiso   1.00
C393   C    -0.10380   0.91860  -0.10220   0.06619  Uani   1.00
H393   H    -0.13350   0.94210  -0.09630   0.08000  Uiso   1.00
C394   C    -0.01190   0.89890  -0.18730   0.07284  Uani   1.00
H394   H     0.02320   0.87590  -0.19180   0.08700  Uiso   1.00
C395   C    -0.01010   0.87920  -0.00980   0.05799  Uani   1.00
H395   H     0.02180   0.86130  -0.02120   0.07000  Uiso   1.00
C396   C     0.02060   0.89810   0.01030   0.06237  Uani   1.00
H396   H     0.07300   0.89330   0.01230   0.07500  Uiso   1.00
C397   C    -0.02420   0.92370   0.02750   0.05737  Uani   1.00
C398   C    -0.10080   0.92880   0.02480   0.06417  Uani   1.00
H398   H    -0.13260   0.94560   0.03720   0.07700  Uiso   1.00
C399   C    -0.13150   0.90980   0.00450   0.05950  Uani   1.00
H399   H    -0.18370   0.91340   0.00330   0.07100  Uiso   1.00
C400   C    -0.08630   0.88580  -0.01362   0.05104  Uani   1.00
C401   C     0.01030   0.94700   0.04450   0.06720  Uani   1.00
H401   H     0.06290   0.93930   0.04820   0.08100  Uiso   1.00
C402   C    -0.15920   0.83860  -0.02310   0.05250  Uani   1.00
C403   C    -0.15440   0.81290   0.01600   0.06654  Uani   1.00
H403   H    -0.12170   0.81570   0.03300   0.08000  Uiso   1.00
C404   C    -0.19710   0.78350   0.02980   0.07887  Uani   1.00
H404   H    -0.19210   0.76550   0.05650   0.09500  Uiso   1.00
C405   C    -0.24620   0.77910   0.00710   0.07579  Uani   1.00
C406   C    -0.25040   0.80420  -0.03250   0.07524  Uani   1.00
H406   H    -0.28330   0.80100  -0.04920   0.09100  Uiso   1.00
C407   C    -0.20690   0.83320  -0.04710   0.06389  Uani   1.00
H407   H    -0.20940   0.84980  -0.07400   0.07700  Uiso   1.00
C408   C    -0.29580   0.74970   0.02470   0.10526  Uani   1.00
H408   H    -0.28220   0.72820   0.04990   0.12700  Uiso   1.00
C409   C    -0.33480   0.63800  -0.01020   0.12057  Uani   1.00
H40A   H    -0.38570   0.63630  -0.01480   0.14500  Uiso   1.00
H40B   H    -0.30270   0.60770  -0.00020   0.14500  Uiso   1.00
C410   C    -0.30610   0.66460  -0.04890   0.15173  Uani   1.00
H41A   H    -0.31780   0.65500  -0.06910   0.18200  Uiso   1.00
H41B   H    -0.33110   0.69620  -0.05660   0.18200  Uiso   1.00
C411   C    -0.32550   0.62190   0.05710   0.08743  Uani   1.00
H41C   H    -0.35370   0.60060   0.05770   0.10500  Uiso   1.00
H41D   H    -0.34610   0.63490   0.07600   0.10500  Uiso   1.00
C412   C    -0.24660   0.59820   0.06870   0.07053  Uani   1.00
H41E   H    -0.24390   0.56920   0.08940   0.08400  Uiso   1.00
H41F   H    -0.22110   0.59330   0.04660   0.08400  Uiso   1.00
C413   C    -0.40570   0.69060   0.01340   0.16327  Uani   1.00
H41G   H    -0.44610   0.67640   0.02490   0.19600  Uiso   1.00
H41H   H    -0.41860   0.70690  -0.01450   0.19600  Uiso   1.00
C414   C    -0.40040   0.72280   0.03160   0.21038  Uani   1.00
H41I   H    -0.45070   0.74040   0.03320   0.25200  Uiso   1.00
H41J   H    -0.37710   0.70660   0.05800   0.25200  Uiso   1.00
C415   C     0.45360   0.48960   0.08930   0.06755  Uani   1.00
H41K   H     0.48150   0.46000   0.10650   0.08100  Uiso   1.00
H41L   H     0.47130   0.49510   0.06310   0.08100  Uiso   1.00
C416   C     0.37000   0.49160   0.08890   0.07124  Uani   1.00
H41M   H     0.36260   0.46400   0.08840   0.08600  Uiso   1.00
H41N   H     0.34850   0.49510   0.11230   0.08600  Uiso   1.00
C417   C     0.47540   0.50480   0.14430   0.07782  Uani   1.00
H41O   H     0.52730   0.48740   0.15260   0.09400  Uiso   1.00
H41P   H     0.44250   0.48470   0.15480   0.09400  Uiso   1.00
C418   C     0.45640   0.54020   0.16090   0.07670  Uani   1.00
H41Q   H     0.47490   0.52760   0.18810   0.09200  Uiso   1.00
H41R   H     0.48080   0.56390   0.14650   0.09200  Uiso   1.00
C419   C     0.53260   0.53700   0.08500   0.06562  Uani   1.00
H41S   H     0.57220   0.51120   0.08540   0.07900  Uiso   1.00
H41T   H     0.55170   0.55060   0.10040   0.07900  Uiso   1.00
C420   C     0.51570   0.56960   0.04430   0.07994  Uani   1.00
H42A   H     0.48260   0.56090   0.03040   0.09600  Uiso   1.00
H42B   H     0.56200   0.57160   0.03050   0.09600  Uiso   1.00
C421   C     0.15700   0.91590  -0.26850   0.11995  Uani   1.00
H42C   H     0.17960   0.93460  -0.29070   0.14400  Uiso   1.00
H42D   H     0.12130   0.90500  -0.27860   0.14400  Uiso   1.00
C422   C     0.21610   0.87800  -0.24420   0.10540  Uani   1.00
H42E   H     0.24790   0.88820  -0.23110   0.12600  Uiso   1.00
H42F   H     0.24770   0.86480  -0.26070   0.12600  Uiso   1.00
C423   C     0.15680   0.97330  -0.24600   0.11681  Uani   1.00
H42G   H     0.14500   1.00000  -0.26990   0.14000  Uiso   1.00
H42H   H     0.21090   0.95990  -0.24430   0.14000  Uiso   1.00
C424   C     0.13680   0.98600  -0.21170   0.10196  Uani   1.00
H42I   H     0.14750   1.01450  -0.21650   0.12200  Uiso   1.00
H42J   H     0.08310   0.98900  -0.20770   0.12200  Uiso   1.00
C425   C     0.04130   0.96640  -0.26660   0.11844  Uani   1.00
H42K   H     0.04500   0.97630  -0.29480   0.14300  Uiso   1.00
H42L   H     0.02260   0.99270  -0.26040   0.14300  Uiso   1.00
C426   C    -0.01300   0.93830  -0.25440   0.10698  Uani   1.00
H42M   H    -0.05630   0.95120  -0.27320   0.12900  Uiso   1.00
H42N   H     0.01090   0.90860  -0.25380   0.12900  Uiso   1.00
C427   C    -0.00590   0.93280   0.17211   0.06075  Uani   1.00
H42O   H    -0.03040   0.95830   0.17870   0.07300  Uiso   1.00
H42P   H     0.02930   0.91170   0.19380   0.07300  Uiso   1.00
C428   C    -0.06400   0.91120   0.16710   0.06266  Uani   1.00
H42Q   H    -0.09750   0.90770   0.18870   0.07500  Uiso   1.00
H42R   H    -0.09420   0.92980   0.14290   0.07500  Uiso   1.00
C429   C     0.11170   0.94630   0.14820   0.07157  Uani   1.00
H42S   H     0.11020   0.95640   0.16970   0.08600  Uiso   1.00
H42T   H     0.13150   0.96680   0.12600   0.08600  Uiso   1.00
C430   C     0.16370   0.90070   0.16000   0.07689  Uani   1.00
H43A   H     0.20650   0.89840   0.17600   0.09300  Uiso   1.00
H43B   H     0.13710   0.87850   0.17550   0.09300  Uiso   1.00
C431   C    -0.00490   0.99170   0.11170   0.07792  Uani   1.00
H43C   H     0.00830   1.01400   0.11920   0.09300  Uiso   1.00
H43D   H    -0.05900   0.99470   0.11410   0.09300  Uiso   1.00
C432   C     0.01370   1.00000   0.06990   0.08812  Uani   1.00
H43E   H     0.00030   1.03190   0.05430   0.10600  Uiso   1.00
H43F   H     0.06760   0.98840   0.06840   0.10600  Uiso   1.00
C501   C     0.70340   0.47900   0.59600   0.07400  Uiso   1.00
O1     O     0.65370   0.50387   0.56391   0.07640  Uiso   1.00
C502   C     0.31390   0.42700   0.34470   0.06200  Uiso   1.00
O2     O     0.36750   0.38651   0.36427   0.05490  Uiso   1.00
C503   C     0.79580   0.23380   0.47761   0.05290  Uiso   1.00
O3     O     0.86550   0.22497   0.46010   0.05180  Uiso   1.00
C504   C     0.97210   0.98330   0.46350   0.12200  Uiso   1.00
O4     O     0.94730   1.02120   0.43220   0.13300  Uiso   1.00
C505   C     0.61000   0.12710   0.30570   0.08000  Uiso   1.00
O5     O     0.65140   0.08350   0.33144   0.07490  Uiso   1.00
C506   C     0.19490   0.02130   0.47660   0.10600  Uiso   1.00
O6     O     0.27180   0.01890   0.47200   0.09590  Uiso   1.00
C507   C     0.08550   0.00540   0.37380   0.23500  Uiso   1.00
O7     O     0.00730   0.02190   0.36190   0.29100  Uiso   1.00
C508   C     0.28940   1.03180   0.08160   0.14100  Uiso   1.00
O8     O     0.24490   1.00190   0.09040   0.17300  Uiso   1.00
C509   C     0.64120   0.93930   0.10870   0.18800  Uiso   1.00
O9     O     0.71790   0.94920   0.09700   0.24400  Uiso   1.00
C510   C     0.58670   0.92580   0.00520   0.26700  Uiso   1.00
O10    O     0.62350   0.89180  -0.00840   0.34500  Uiso   1.00
C511   C     0.82170   0.46150   0.04730   0.20100  Uiso   1.00
O11    O     0.76390   0.51000   0.02950   0.19800  Uiso   1.00
C512   C     0.35000   0.45600   0.22460   0.06800  Uiso   1.00
O12A   O     0.30190   0.48760   0.19510   0.07800  Uiso   0.67
O12B   O     0.31950   0.50410   0.21890   0.07100  Uiso   0.33
C513   C     0.79040   1.03390   0.05040   0.12100  Uiso   1.00
O13A   O     0.83720   1.03190   0.02240   0.11300  Uiso   0.50
O13B   O     0.81960   0.99700   0.07660   0.13900  Uiso   0.50
C514   C     0.58360   0.23920   0.11360   0.30600  Uiso   1.00
O14    O     0.50140   0.25900   0.10290   0.29100  Uiso   1.00
C515   C     0.69000   1.01580   0.12760   0.45000  Uiso   1.00
O15    O     0.61890   1.00590   0.12460   0.28200  Uiso   1.00
C516   C     0.30670   0.95200   0.41630   0.09200  Uiso   0.50
O16    O     0.36990   0.95784   0.38749   0.09070  Uiso   1.00
C517   C     0.26700   0.92120   0.42370   0.15800  Uiso   0.50
O17    O     0.26760   0.88330   0.46300   0.17900  Uiso   0.50
C518   C     0.51410   0.41800   0.04770   0.13600  Uiso   0.50
O18    O     0.56680   0.37740   0.06620   0.14800  Uiso   0.50
C519   C     0.48840   0.38480   0.06620   0.10700  Uiso   0.50
O19    O     0.44010   0.35160   0.09710   0.26300  Uiso   0.50
C520   C     0.41840   0.92940   0.01070   0.17200  Uiso   0.50
O20    O     0.40570   0.91660   0.05410   0.20800  Uiso   0.50
C521   C     0.72200   0.44730   0.07330   0.13200  Uiso   0.50
O21    O     0.64110   0.43290   0.08110   0.14500  Uiso   1.00
C522   C     0.49040   0.81130  -0.10710   0.09300  Uiso   0.50
O22    O     0.47040   0.85220  -0.09420   0.16000  Uiso   0.50
C523   C     0.49000   0.83290  -0.03570   0.22500  Uiso   0.50
O23    O     0.47100   0.83160   0.00550   0.35000  Uiso   0.50
O24    O     0.32950   0.41519   0.48120   0.05650  Uiso   1.00
O25    O     0.35570   0.36099   0.44007   0.06130  Uiso   1.00
O26    O     0.43980   0.37590   0.53950   0.11500  Uiso   1.00
O27    O     0.36950   0.75122   0.32364   0.07180  Uiso   1.00
O28    O     0.48290   0.75876   0.36490   0.08830  Uiso   1.00
O29    O     0.13670   0.98189   0.22169   0.07580  Uiso   1.00
O30    O     0.26050   0.97040   0.17280   0.10800  Uiso   1.00
O31    O     0.39330   0.91020   0.17610   0.14200  Uiso   1.00
O32    O     0.35600   0.87150   0.13250   0.15800  Uiso   1.00
O33    O     0.59800   0.11740   0.16550   0.12400  Uiso   1.00
O34    O     0.68060   0.03150   0.17740   0.12600  Uiso   1.00
O35    O     0.63730   0.50150   0.00540   0.15000  Uiso   1.00
O36    O     0.00740   0.45670   0.02820   0.14000  Uiso   1.00
O37    O     0.84920   0.56770  -0.01060   0.14500  Uiso   1.00
O38    O     0.68290   0.95420   0.02790   0.23800  Uiso   1.00
O39    O     0.50400   0.94810   0.13300   0.29000  Uiso   1.00
O40    O     0.45200   0.78660   0.08750   0.45300  Uiso   1.00
O41    O     0.45340   0.92540  -0.06930   0.37800  Uiso   1.00
O42    O     0.26930   0.97940   0.02560   0.26500  Uiso   1.00
O43    O     0.42600   0.96770   0.31070   0.22000  Uiso   1.00
O44    O     0.49950   0.95460   0.07160   0.55100  Uiso   1.00
O45    O     0.54680   0.81620  -0.04400   0.13700  Uiso   0.50
O46    O     0.59290   0.78490  -0.08240   0.14100  Uiso   0.50
O47    O     0.44000   0.85950   0.07500   0.22700  Uiso   0.50
O48    O     0.43390   0.88060   0.00380   0.28900  Uiso   0.50
loop_
_atom_site_aniso_label
_atom_site_aniso_U_11
_atom_site_aniso_U_22
_atom_site_aniso_U_33
_atom_site_aniso_U_12
_atom_site_aniso_U_13
_atom_site_aniso_U_23
N1        0.04700   0.03900   0.04700  -0.01200   0.00400  -0.01700
N2        0.05100   0.05400   0.05100  -0.01600   0.01000  -0.02100
N3        0.04100   0.06500   0.04500  -0.01200   0.00900  -0.02500
N4        0.04100   0.04800   0.04200  -0.01600   0.00500  -0.01500
N5        0.06500   0.04600   0.05200  -0.00200  -0.01100  -0.02200
N6        0.04600   0.04100   0.04900  -0.01600   0.01000  -0.01700
N7        0.07900   0.06500   0.07200  -0.00700   0.00600  -0.03500
N8        0.03600   0.03900   0.04700  -0.01300   0.00800  -0.02300
N9        0.06300   0.05000   0.05300  -0.00200  -0.00400  -0.01600
N10       0.05600   0.03700   0.05000  -0.01200   0.00200  -0.01600
N11       0.07600   0.04700   0.07600  -0.00900  -0.01800  -0.02300
N12       0.03600   0.03300   0.04700  -0.00900   0.00400  -0.01200
N13       0.05400   0.05200   0.05200  -0.02200   0.01700  -0.02200
N14       0.04700   0.04000   0.05200  -0.01300  -0.00000  -0.01500
N15       0.07300   0.08600   0.07100  -0.01400   0.01100  -0.04200
N16       0.11600   0.07200   0.05700  -0.03500   0.01600  -0.02900
N17       0.08400   0.06100   0.08300  -0.00700   0.00800  -0.03700
N18       0.04700   0.03600   0.04200  -0.01400   0.00200  -0.01100
N19       0.04400   0.03900   0.05100  -0.01600   0.00800  -0.02100
N20       0.03700   0.04400   0.04600  -0.01100   0.00500  -0.01700
C1        0.03800   0.05100   0.04500  -0.01300   0.00600  -0.01900
C2        0.04500   0.04900   0.04600  -0.01700   0.00600  -0.01900
C3        0.05900   0.04600   0.04400  -0.01800   0.01000  -0.01800
C4        0.05700   0.04500   0.04100  -0.00700  -0.00600  -0.01400
C5        0.05700   0.05800   0.06300  -0.01400  -0.00600  -0.02200
C6        0.06300   0.04100   0.05700  -0.01300   0.00300  -0.01200
C7        0.05700   0.05900   0.05900  -0.00500  -0.00700  -0.02500
C8        0.04600   0.04400   0.04800  -0.01500   0.00300  -0.01700
C9        0.07700   0.05500   0.05600  -0.02500   0.01700  -0.02500
C10       0.08900   0.07000   0.06300  -0.02400   0.01800  -0.04000
C11       0.05600   0.04900   0.05000  -0.01000   0.00200  -0.01700
C12       0.05100   0.04500   0.05100  -0.01000   0.00200  -0.01100
C13       0.05200   0.04300   0.04900  -0.00700   0.00200  -0.01700
C14       0.07700   0.05200   0.06500  -0.01600   0.00300  -0.02900
C15       0.04200   0.04800   0.03900  -0.01300   0.00700  -0.01700
C16       0.04200   0.03700   0.05100  -0.01100   0.01200  -0.02100
C17       0.03900   0.03900   0.04200  -0.01200   0.00300  -0.01400
C18       0.03700   0.03400   0.03500  -0.01100   0.00600  -0.00900
C19       0.04400   0.04000   0.04500  -0.01400   0.00900  -0.01900
C20       0.03600   0.04800   0.04300  -0.01200   0.00700  -0.01500
C21       0.04900   0.03400   0.04800  -0.01600   0.01400  -0.01600
C22       0.05100   0.05500   0.04200  -0.01000   0.00100  -0.01700
C23       0.05000   0.05200   0.05100  -0.00700  -0.00000  -0.01900
C24       0.04200   0.05400   0.05000  -0.01100   0.00200  -0.02200
C25       0.05000   0.04700   0.05000  -0.01400   0.00500  -0.02200
C26       0.05300   0.05200   0.05000  -0.00400   0.00500  -0.01600
C27       0.04400   0.06900   0.05700  -0.01200  -0.00000  -0.02500
C28       0.05900   0.04800   0.04800  -0.01300   0.00600  -0.01800
C29       0.06000   0.04600   0.05200  -0.01600   0.00100  -0.02000
C30       0.05000   0.06400   0.05100  -0.01800   0.00500  -0.01700
C31       0.06900   0.06500   0.04800  -0.02400   0.00200  -0.02400
C32       0.05400   0.06600   0.04700  -0.01900   0.00800  -0.02200
C33       0.05900   0.05700   0.06100  -0.02200   0.00500  -0.02200
C34       0.05500   0.05600   0.06600  -0.01900   0.00900  -0.02600
C35       0.06500   0.06800   0.05600  -0.02000   0.00600  -0.02400
C36       0.04900   0.05100   0.05500  -0.01400  -0.00300  -0.02400
C37       0.05100   0.05900   0.05600  -0.01500   0.00300  -0.02900
C38       0.06100   0.05200   0.06200  -0.01800   0.00400  -0.02400
C39       0.06600   0.05800   0.05700  -0.02000   0.00600  -0.02800
C40       0.07100   0.06000   0.07500  -0.02000   0.00600  -0.04300
C41       0.05900   0.07500   0.05600  -0.02200   0.00200  -0.03400
C42       0.06400   0.05500   0.07900  -0.02200   0.00700  -0.04000
C43       0.03800   0.04700   0.05100  -0.01000   0.00600  -0.02200
C44       0.04200   0.03600   0.05000  -0.00800   0.00200  -0.01600
C45       0.03900   0.03200   0.04700  -0.00600   0.00400  -0.01700
C46       0.04300   0.03800   0.03900  -0.00500   0.00700  -0.01300
C47       0.04000   0.05300   0.06000  -0.02300   0.01400  -0.02400
C48       0.05400   0.05800   0.04200  -0.01100   0.00800  -0.01000
C49       0.04000   0.03700   0.05000  -0.01400   0.01300  -0.02100
C50       0.04400   0.05500   0.05200  -0.01200  -0.00000  -0.02000
C51       0.06000   0.06300   0.04600  -0.01600  -0.00200  -0.02000
C52       0.05600   0.05100   0.05600  -0.01100  -0.00200  -0.01800
C53       0.05300   0.06400   0.04600  -0.02000   0.00100  -0.02100
C54       0.05100   0.06000   0.04600  -0.00400  -0.00300  -0.01300
C55       0.05200   0.05100   0.05300  -0.00100  -0.00100  -0.01700
C56       0.07300   0.06700   0.05700  -0.02300   0.00300  -0.02300
C57       0.04100   0.04700   0.04300  -0.00800   0.00100  -0.01700
C58       0.04800   0.08500   0.06000  -0.01700   0.00700  -0.04600
C59       0.04900   0.06600   0.05400  -0.02000   0.00800  -0.02500
C60       0.04600   0.03400   0.04400  -0.00800   0.00200  -0.01100
C61       0.04600   0.03400   0.05200  -0.00500   0.00900  -0.01300
C62       0.04700   0.03300   0.04800  -0.00500  -0.00200  -0.00800
C63       0.04000   0.04100   0.04700  -0.00100  -0.00200  -0.01200
C64       0.03600   0.03900   0.04200  -0.01000   0.00400  -0.01200
C65       0.04300   0.02700   0.04400  -0.00400   0.00100  -0.01500
C66       0.03600   0.03000   0.03800  -0.00300   0.00700  -0.00900
C67       0.03700   0.02800   0.04100  -0.00800   0.00200  -0.01400
C68       0.04800   0.05100   0.04800  -0.01900   0.00400  -0.02600
C69       0.04400   0.05800   0.03800  -0.01700   0.00800  -0.02300
C70       0.04200   0.03200   0.04800  -0.00400   0.00500  -0.01700
C71       0.03900   0.04000   0.03700  -0.01000   0.00100  -0.01100
C72       0.04100   0.04300   0.04700  -0.01800   0.01400  -0.02300
C73       0.03800   0.03800   0.04800  -0.00400   0.00000  -0.02000
C74       0.04300   0.03700   0.04000  -0.00800   0.00100  -0.01500
C75       0.04200   0.06200   0.05100  -0.01100   0.00900  -0.00900
C76       0.03700   0.05400   0.05700  -0.00100   0.00500  -0.00700
C77       0.04900   0.05300   0.04900  -0.02000   0.00700  -0.02400
C78       0.03100   0.04100   0.04600  -0.00500   0.00400  -0.02100
C79       0.04900   0.03700   0.04700  -0.01600   0.00500  -0.01200
C80       0.03500   0.04100   0.05100  -0.01200   0.00500  -0.01900
C81       0.03400   0.03300   0.04900  -0.00600   0.00600  -0.01900
C82       0.04200   0.03300   0.05700  -0.00400  -0.00400  -0.01300
C83       0.04100   0.02800   0.06100  -0.00500  -0.00600  -0.01700
C84       0.03600   0.03500   0.04600  -0.00400   0.00700  -0.01400
C85       0.08000   0.04900   0.04900  -0.00900   0.00400  -0.01300
C86       0.06700   0.05600   0.04900  -0.00300  -0.00700  -0.01400
C87       0.07200   0.04700   0.06800  -0.00200  -0.01400  -0.02800
C88       0.06300   0.05100   0.08100   0.00500  -0.02400  -0.03300
C89       0.07300   0.03900   0.05200  -0.01200  -0.00200  -0.01500
C90       0.07400   0.03800   0.05100  -0.01300   0.00400  -0.01900
C91       0.04500   0.04300   0.05900  -0.01600   0.00400  -0.01700
C92       0.06200   0.05400   0.05900  -0.02700   0.00900  -0.02700
C93       0.05400   0.03500   0.06000  -0.01300   0.01000  -0.01600
C94       0.05500   0.03700   0.04900  -0.01000   0.00100  -0.00800
C95       0.04000   0.04600   0.05400  -0.01500   0.00900  -0.02100
C96       0.04400   0.03700   0.05800  -0.00800   0.00800  -0.01600
C97       0.09200   0.05500   0.08300   0.00200   0.00700  -0.03700
C98       0.10600   0.04700   0.10100  -0.00300  -0.00000  -0.04100
C99       0.09800   0.07000   0.07500  -0.02600   0.02000  -0.04100
C100      0.07700   0.08600   0.05900  -0.00400   0.01700  -0.03500
C101      0.12500   0.06000   0.08400  -0.03500   0.02100  -0.03900
C102      0.11200   0.09100   0.07500  -0.05100   0.02300  -0.04500
C103      0.04300   0.04200   0.04200  -0.01400   0.00600  -0.02100
C104      0.04300   0.03900   0.04700  -0.01600   0.00200  -0.01800
C105      0.04400   0.04200   0.05100  -0.01200   0.00500  -0.02200
C106      0.03800   0.04400   0.06100  -0.01100   0.00200  -0.02100
C107      0.04400   0.04500   0.04400  -0.01100   0.00200  -0.02200
C108      0.04400   0.05800   0.04300  -0.01000   0.00400  -0.02600
N21       0.04700   0.03200   0.05400  -0.01000   0.00600  -0.01600
N22       0.04500   0.03400   0.03900  -0.01600   0.00800  -0.01400
N23       0.03800   0.03300   0.04300  -0.00800   0.00400  -0.00800
N24       0.04800   0.03600   0.04100  -0.00700   0.00500  -0.01400
N25       0.04500   0.04800   0.04400  -0.00700   0.00600  -0.02400
N26       0.04400   0.04200   0.04200  -0.01500   0.00700  -0.01800
N27       0.04200   0.03900   0.04000  -0.01600   0.00500  -0.01000
N28       0.05500   0.04800   0.06000   0.00500  -0.01700  -0.02100
N29       0.05100   0.04200   0.05100  -0.00500   0.00900  -0.02100
N30       0.04200   0.04400   0.04200  -0.00400   0.00400  -0.02000
N31       0.04300   0.03900   0.04100  -0.01100   0.00200  -0.01500
N32       0.05700   0.04200   0.04000  -0.01900  -0.00000  -0.01300
N33       0.04600   0.04000   0.04200  -0.01300   0.00800  -0.01800
N34       0.04700   0.03400   0.04800  -0.00700   0.01300  -0.01500
N35       0.05100   0.03500   0.04600  -0.01100   0.00100  -0.01100
N36       0.04900   0.04000   0.04600  -0.01500   0.00500  -0.02000
N37       0.04300   0.03900   0.05000  -0.01800   0.00600  -0.01800
N38       0.07400   0.06900   0.07600   0.01000  -0.01500  -0.03800
N39       0.04600   0.04200   0.10000  -0.00600   0.00300  -0.03400
N40       0.05100   0.04400   0.06300  -0.00800  -0.00600  -0.01100
C109      0.05000   0.03500   0.04300  -0.01300   0.00600  -0.01000
C110      0.04900   0.03300   0.04400  -0.00700   0.00600  -0.01100
C111      0.04600   0.04400   0.03900  -0.00800   0.00600  -0.01400
C112      0.04700   0.03200   0.04500  -0.00700   0.00400  -0.00600
C113      0.05400   0.03800   0.05000  -0.01100   0.00100  -0.00600
C114      0.05700   0.04600   0.04700  -0.01800  -0.00300  -0.01200
C115      0.04300   0.03700   0.05000  -0.00400   0.00400  -0.01000
C116      0.04700   0.02900   0.04500  -0.00900   0.00300  -0.01000
C117      0.05600   0.04600   0.04500  -0.01500   0.01200  -0.01800
C118      0.04700   0.04400   0.05100  -0.01400   0.01200  -0.01900
C119      0.04600   0.03600   0.04000  -0.00800   0.00500  -0.01000
C120      0.05500   0.04400   0.04800  -0.01300   0.00900  -0.02100
C121      0.05100   0.04600   0.04700  -0.01300   0.01100  -0.01800
C122      0.04900   0.03800   0.03800  -0.00800   0.00500  -0.00700
C123      0.04700   0.04300   0.04800  -0.01100   0.00700  -0.02100
C124      0.05700   0.03800   0.06700  -0.01400  -0.00200  -0.01300
C125      0.05800   0.03700   0.06600  -0.00400  -0.01100  -0.01800
C126      0.05500   0.06300   0.06400  -0.00800  -0.00100  -0.03600
C127      0.05500   0.05300   0.06800  -0.00800   0.01700  -0.01700
C128      0.06200   0.04700   0.06200  -0.00600   0.00900  -0.01300
C129      0.06300   0.07300   0.06700  -0.00300  -0.00300  -0.04000
C130      0.04000   0.03300   0.04100  -0.01000   0.00800  -0.01800
C131      0.04700   0.03000   0.04100  -0.00700   0.00700  -0.01400
C132      0.04000   0.03100   0.04100  -0.00500   0.00500  -0.00500
C133      0.03100   0.03300   0.04200  -0.00800   0.00600  -0.01700
C134      0.04000   0.03300   0.04700  -0.00600  -0.00100  -0.01900
C135      0.04800   0.02900   0.03600  -0.00500   0.00300  -0.01100
C136      0.03500   0.03900   0.04700  -0.01200   0.00700  -0.02100
C137      0.04200   0.03300   0.03800  -0.00800   0.00600  -0.01800
C138      0.04400   0.03700   0.03900  -0.00800   0.00300  -0.01600
C139      0.03900   0.03400   0.04400  -0.00600  -0.00000  -0.01700
C140      0.04000   0.03500   0.04100  -0.00800   0.00800  -0.01800
C141      0.04400   0.03400   0.04000  -0.00900   0.00500  -0.01000
C142      0.04000   0.04100   0.04300  -0.01200   0.00600  -0.01800
C143      0.05000   0.03000   0.04400  -0.01100   0.00500  -0.01800
C144      0.03800   0.02800   0.03900  -0.00700   0.00600  -0.00600
C145      0.03900   0.04000   0.04300  -0.01200   0.01100  -0.01600
C146      0.04400   0.03700   0.03200  -0.01100   0.00400  -0.01300
C147      0.04000   0.02400   0.03700  -0.00400   0.00500  -0.01000
C148      0.03800   0.03800   0.04400  -0.00900   0.00200  -0.01800
C149      0.04500   0.03600   0.03500  -0.00400   0.00500  -0.01500
C150      0.03900   0.03900   0.04100  -0.00200   0.00800  -0.01400
C151      0.04400   0.03000   0.04700  -0.01200   0.00800  -0.01500
C152      0.04900   0.03700   0.04700  -0.01500   0.00800  -0.00800
C153      0.04400   0.03500   0.05500  -0.00600   0.00600  -0.01000
C154      0.04600   0.04100   0.05100  -0.01200   0.00100  -0.01600
C155      0.05500   0.04800   0.04700  -0.01100   0.00100  -0.01700
C156      0.04200   0.04700   0.05200  -0.00500   0.00300  -0.02300
C157      0.05600   0.05100   0.05100  -0.01900  -0.00300  -0.01100
C158      0.03800   0.03300   0.04000  -0.01000   0.00200  -0.01200
C159      0.03900   0.03200   0.05500  -0.00800   0.00700  -0.01700
C160      0.05100   0.02900   0.05100  -0.01400   0.00200  -0.01200
C161      0.04400   0.03100   0.04100  -0.01300   0.00500  -0.01300
C162      0.04000   0.03600   0.05300  -0.00300   0.00400  -0.02000
C163      0.04900   0.03500   0.05500  -0.01300   0.00600  -0.01700
C164      0.04400   0.03800   0.03700  -0.00300   0.00500  -0.00900
C165      0.03800   0.02700   0.04900  -0.00700   0.00600  -0.01300
C166      0.04700   0.04800   0.04500  -0.02000   0.00600  -0.01900
C167      0.04900   0.03900   0.04000  -0.01100   0.00400  -0.01700
C168      0.03900   0.03000   0.04600  -0.00600   0.00300  -0.01000
C169      0.03900   0.04200   0.05100  -0.01600   0.00100  -0.01400
C170      0.05000   0.04200   0.04100  -0.01400  -0.00500  -0.01100
C171      0.03700   0.03400   0.05300  -0.00600   0.00900  -0.01600
C172      0.03800   0.03800   0.03900  -0.01500   0.00800  -0.01600
C173      0.04500   0.04000   0.05000  -0.00900   0.00100  -0.02300
C174      0.04000   0.04400   0.05000  -0.01600   0.00200  -0.01900
C175      0.04900   0.03900   0.04700  -0.01900   0.01400  -0.02100
C176      0.08100   0.04900   0.04700  -0.02700   0.00300  -0.02400
C177      0.06100   0.03800   0.04600  -0.01200  -0.00600  -0.01400
C178      0.05900   0.03800   0.06400  -0.02000   0.02100  -0.02800
C179      0.04400   0.03500   0.03700  -0.00800   0.00400  -0.01900
C180      0.03200   0.04600   0.04600  -0.00700   0.00400  -0.01800
C181      0.04900   0.04900   0.03700  -0.02200   0.00900  -0.01700
C182      0.03800   0.03200   0.04200  -0.01400   0.00200  -0.01500
C183      0.03600   0.04200   0.05000  -0.00600   0.00200  -0.02000
C184      0.04100   0.04300   0.04600  -0.00700   0.00900  -0.01900
C185      0.04600   0.03600   0.05300  -0.01300   0.00300  -0.02300
C186      0.03600   0.04000   0.03800  -0.00400   0.00600  -0.01700
C187      0.04000   0.03700   0.04500  -0.01200   0.00700  -0.01500
C188      0.03600   0.03900   0.05000  -0.00300   0.00600  -0.02200
C189      0.03500   0.03500   0.03600  -0.00100   0.00300  -0.01100
C190      0.05300   0.04100   0.03900  -0.01200   0.01000  -0.01200
C191      0.05600   0.03800   0.04600  -0.01800   0.01000  -0.01900
C192      0.03700   0.04100   0.04200  -0.00100   0.01000  -0.01300
C193      0.05300   0.05300   0.04300  -0.00200   0.00800  -0.02800
C194      0.05100   0.04200   0.05000  -0.00200   0.01000  -0.02300
C195      0.05100   0.04300   0.05100  -0.00900   0.00100  -0.02500
C196      0.04500   0.04900   0.05100  -0.01400   0.00500  -0.02500
C197      0.05400   0.05800   0.05000  -0.01300   0.00400  -0.02800
C198      0.05400   0.05400   0.04400  -0.00400   0.00700  -0.02400
C199      0.04200   0.04700   0.03400  -0.00900   0.00200  -0.01400
C200      0.04500   0.04500   0.03700  -0.01000   0.00300  -0.01400
C201      0.05900   0.04100   0.04200  -0.01000   0.01900  -0.01500
C202      0.05200   0.04700   0.04800  -0.01200   0.02000  -0.01400
C203      0.05000   0.04400   0.04500  -0.01700   0.00900  -0.00900
C204      0.07100   0.03400   0.04500  -0.01800  -0.00400  -0.00800
C205      0.04700   0.04200   0.05100  -0.01600   0.00300  -0.01200
C206      0.06400   0.03500   0.05200  -0.01500   0.00400  -0.00600
C207      0.04200   0.04300   0.04400  -0.01500   0.00400  -0.01800
C208      0.04000   0.04600   0.05400  -0.01400   0.00600  -0.02300
C209      0.04400   0.04200   0.05700  -0.01500   0.00700  -0.01900
C210      0.04500   0.04900   0.05200  -0.02100   0.01300  -0.02300
C211      0.08400   0.06300   0.06900   0.02200  -0.02600  -0.02500
C212      0.07300   0.09000   0.08600   0.02400  -0.02500  -0.05100
C213      0.05300   0.04000   0.06700   0.00300  -0.01700  -0.01500
C214      0.06100   0.04500   0.06700  -0.00800  -0.01200  -0.00500
C215      0.04500   0.05500   0.11400   0.00900  -0.01700  -0.05000
C216      0.05100   0.04900   0.10800  -0.00600   0.01700  -0.03600
N41       0.05500   0.03800   0.04000  -0.01800   0.00500  -0.01500
N42       0.07500   0.04900   0.05500  -0.01000   0.02400  -0.02500
N43       0.05300   0.03300   0.04300  -0.00100   0.00200  -0.01700
N44       0.04700   0.03700   0.04800  -0.01200   0.00300  -0.01600
N45       0.05600   0.04500   0.05600  -0.01000  -0.01100  -0.00900
N46       0.04100   0.03300   0.04900  -0.00600  -0.00000  -0.02100
N47       0.04000   0.03600   0.04200  -0.00900   0.00000  -0.01500
N48       0.06000   0.06700   0.05400  -0.02400   0.01600  -0.02900
N49       0.06700   0.06700   0.05400  -0.03300   0.01400  -0.02400
N50       0.04900   0.05300   0.05800  -0.01200   0.00200  -0.02600
N51       0.08100   0.04800   0.07400   0.00200  -0.01700  -0.01600
N52       0.04900   0.04700   0.05700  -0.01000   0.00900  -0.02700
N53       0.06300   0.04300   0.04500  -0.00700   0.00400  -0.01900
N54       0.04800   0.03100   0.04700  -0.00300   0.00200  -0.01600
N55       0.04300   0.04600   0.03900  -0.01300   0.00700  -0.01500
N56       0.04500   0.03800   0.04400  -0.00600   0.00400  -0.01600
N57       0.04700   0.03700   0.04900  -0.00500  -0.00500  -0.02100
N58       0.06800   0.08200   0.04600  -0.02400   0.01200  -0.02900
N59       0.07000   0.05600   0.06700  -0.02000   0.01900  -0.02600
N60       0.06300   0.04900   0.05500  -0.02400   0.00900  -0.02600
C217      0.05200   0.03800   0.04600  -0.00900   0.00800  -0.02300
C218      0.05200   0.02900   0.03900  -0.00500   0.00400  -0.00700
C219      0.05200   0.04800   0.05100  -0.01300   0.00900  -0.02200
C220      0.06100   0.03900   0.04500  -0.01900   0.00600  -0.01700
C221      0.07400   0.03300   0.05100  -0.01600   0.00700  -0.01000
C222      0.05800   0.04400   0.05100  -0.01100   0.00100  -0.01700
C223      0.07700   0.04000   0.04100  -0.02300   0.00200  -0.01100
C224      0.05200   0.02600   0.04300  -0.00400   0.00700  -0.01300
C225      0.05300   0.03500   0.04500  -0.01400   0.01400  -0.01700
C226      0.05900   0.03900   0.03900  -0.01100   0.01200  -0.01900
C227      0.05700   0.03500   0.04400  -0.01300   0.01300  -0.01600
C228      0.04700   0.04400   0.04400  -0.01100   0.00600  -0.01500
C229      0.05100   0.03700   0.03400  -0.01100   0.01200  -0.01200
C230      0.05700   0.03900   0.04700  -0.01500   0.01600  -0.01800
C231      0.04700   0.03300   0.03800  -0.00800   0.00700  -0.01300
C232      0.04600   0.04500   0.04100  -0.01300   0.00500  -0.02100
C233      0.03800   0.03800   0.04500  -0.01000   0.00500  -0.01800
C234      0.03700   0.04000   0.04800  -0.01200   0.00800  -0.02300
C235      0.04600   0.04300   0.04700  -0.01600   0.01100  -0.02400
C236      0.05200   0.03500   0.04800  -0.01100   0.01200  -0.01900
C237      0.04000   0.05000   0.04100  -0.01700   0.00600  -0.01900
C238      0.07600   0.04700   0.05000  -0.01700   0.02200  -0.01800
C239      0.05500   0.05200   0.04600  -0.00700   0.00900  -0.01400
C240      0.07600   0.04400   0.05000  -0.01100   0.01000  -0.01800
C241      0.06900   0.03800   0.05100  -0.01600   0.02100  -0.01900
C242      0.08600   0.05200   0.08400  -0.02900   0.03800  -0.04000
C243      0.09400   0.04200   0.09300  -0.03100   0.04700  -0.03600
C244      0.07000   0.05400   0.05000  -0.01600   0.01400  -0.02100
C245      0.06700   0.03900   0.05700  -0.00500   0.01500  -0.01800
C246      0.07100   0.04700   0.07000   0.00100   0.02000  -0.02400
C247      0.06700   0.05500   0.06500  -0.00200   0.00800  -0.02200
C248      0.06200   0.05000   0.06000  -0.01700   0.02300  -0.02500
C249      0.08100   0.04200   0.06300  -0.00800   0.01400  -0.01400
C250      0.08200   0.04700   0.04900  -0.00800   0.01100  -0.01000
C251      0.07200   0.04100   0.06600  -0.01600   0.01900  -0.01400
C252      0.07000   0.04600   0.06000   0.00100   0.01400  -0.02300
C253      0.09200   0.04500   0.04100  -0.02200   0.01200  -0.01200
C254      0.08400   0.05100   0.04500  -0.02600   0.01400  -0.01700
C255      0.07300   0.04900   0.04400   0.00700   0.00700  -0.01500
C256      0.07400   0.08600   0.04900   0.01900   0.00600  -0.01700
C257      0.07500   0.08100   0.05000  -0.00400   0.01900  -0.00900
C258      0.06900   0.05300   0.06100   0.01800  -0.00900  -0.02500
C259      0.05000   0.04600   0.04700  -0.01400   0.01100  -0.02500
C260      0.05700   0.04600   0.04400  -0.00900   0.00200  -0.02000
C261      0.05100   0.05200   0.06000  -0.01300   0.01000  -0.03400
C262      0.07000   0.06200   0.04700  -0.01700   0.00900  -0.02600
C263      0.09100   0.04800   0.04400  -0.01300   0.00600  -0.01400
C264      0.06700   0.04100   0.04700  -0.01400   0.00900  -0.02000
C265      0.06800   0.07400   0.04600  -0.01000   0.00100  -0.02600
C266      0.04300   0.03600   0.03600  -0.01000  -0.00000  -0.01400
C267      0.04400   0.04200   0.04300  -0.01500   0.00400  -0.01800
C268      0.04900   0.03700   0.04500  -0.01000   0.00600  -0.02100
C269      0.04600   0.03100   0.03600  -0.01000   0.00200  -0.01200
C270      0.04300   0.06100   0.06100  -0.00700  -0.00100  -0.03800
C271      0.04100   0.05800   0.05800  -0.00400  -0.00100  -0.02800
C272      0.05700   0.03800   0.04700  -0.01800   0.00500  -0.01500
C273      0.05500   0.04300   0.04300  -0.01100   0.01200  -0.02200
C274      0.04000   0.05000   0.05400  -0.00700   0.00700  -0.02300
C275      0.05000   0.03900   0.04900  -0.01300   0.01000  -0.00900
C276      0.04100   0.04300   0.04700  -0.00600   0.00500  -0.02400
C277      0.03700   0.05200   0.06100  -0.00900   0.01200  -0.02900
C278      0.04700   0.03500   0.05900  -0.00600   0.01700  -0.01900
C279      0.04000   0.04400   0.05400  -0.00600   0.00400  -0.02500
C280      0.04100   0.04600   0.04300  -0.01000   0.00400  -0.02000
C281      0.04900   0.04000   0.04300  -0.01100  -0.00000  -0.01700
C282      0.05300   0.04500   0.04000  -0.00500   0.00100  -0.01900
C283      0.04200   0.03700   0.04200  -0.00700   0.00900  -0.02100
C284      0.04500   0.04600   0.04700  -0.01100   0.00200  -0.02300
C285      0.05400   0.03700   0.04400  -0.00600  -0.00200  -0.01300
C286      0.04700   0.04900   0.04600  -0.01300   0.01200  -0.02900
C287      0.05200   0.03400   0.04300  -0.00600  -0.00500  -0.01500
C288      0.05100   0.03800   0.04100  -0.01300   0.00300  -0.01700
C289      0.05100   0.04700   0.05100  -0.01300   0.00500  -0.02200
C290      0.04600   0.04700   0.04900  -0.01100   0.00100  -0.02200
C291      0.05500   0.04300   0.04700  -0.00500   0.00400  -0.01300
C292      0.05100   0.05100   0.05300  -0.00900   0.01300  -0.02000
C293      0.05400   0.03300   0.04900  -0.00600  -0.00200  -0.01400
C294      0.04600   0.04500   0.04000  -0.00800   0.00600  -0.02100
C295      0.05600   0.03500   0.04400  -0.00500  -0.00000  -0.01900
C296      0.04700   0.04600   0.03900  -0.01300   0.00200  -0.01500
C297      0.05100   0.04900   0.04300  -0.00600   0.00400  -0.01800
C298      0.05900   0.04800   0.05600  -0.01400   0.00900  -0.02600
C299      0.05800   0.05700   0.04700  -0.02100   0.01200  -0.02500
C300      0.06100   0.04000   0.04300   0.00100  -0.00100  -0.01800
C301      0.06800   0.07600   0.06100  -0.03800   0.01800  -0.03300
C302      0.09000   0.07800   0.06400  -0.05300   0.02500  -0.02600
C303      0.08500   0.04400   0.08900  -0.00900  -0.01500  -0.00800
C304      0.10600   0.04600   0.09800   0.00700  -0.04100  -0.02800
C305      0.05500   0.05300   0.06800  -0.01500   0.00600  -0.02100
C306      0.04900   0.04900   0.05200  -0.00400  -0.00300  -0.01900
C307      0.05600   0.03200   0.05200   0.00000   0.00300  -0.01600
C308      0.06500   0.04600   0.05200  -0.00000  -0.00100  -0.02100
C309      0.04900   0.03200   0.05600  -0.00000  -0.00500  -0.02300
C310      0.04800   0.04200   0.05300  -0.01000   0.00900  -0.02300
C311      0.04700   0.03900   0.05700  -0.01000   0.00700  -0.02300
C312      0.05700   0.03900   0.05800  -0.00900   0.00500  -0.02300
C313      0.05200   0.04200   0.03900  -0.01400   0.00700  -0.01500
C314      0.04700   0.04400   0.04800  -0.01000   0.01100  -0.01900
C315      0.05200   0.03600   0.04800  -0.01200   0.00700  -0.01200
C316      0.05100   0.03700   0.06300  -0.01000   0.00100  -0.02200
C317      0.05000   0.04100   0.04600  -0.01300   0.00600  -0.02200
C318      0.04400   0.04700   0.03800  -0.00700   0.00200  -0.01700
C319      0.08100   0.06400   0.05800  -0.02700   0.02000  -0.03200
C320      0.08300   0.05300   0.04900  -0.02700   0.01700  -0.02400
C321      0.07300   0.06200   0.04900  -0.01500   0.01200  -0.01800
C322      0.07900   0.06600   0.05700  -0.02200   0.02200  -0.02200
C323      0.06800   0.08500   0.05200  -0.03000   0.00700  -0.03300
C324      0.06700   0.10500   0.04900  -0.02300   0.01000  -0.03700
N61       0.04800   0.04300   0.04200  -0.01000   0.00600  -0.00800
N62       0.05400   0.03000   0.04900  -0.01000   0.00600  -0.01600
N63       0.06300   0.06500   0.07500  -0.01200   0.01500  -0.03300
N64       0.06200   0.06300   0.04300  -0.02200   0.00900  -0.02300
N65       0.06800   0.11000   0.10700  -0.04800   0.00700  -0.00600
N66       0.04900   0.05400   0.06200  -0.00100  -0.00200  -0.01000
N67       0.20800   0.04800   0.05900  -0.04400   0.05100  -0.03100
N68       0.10200   0.04400   0.04400  -0.02200   0.00800  -0.01100
N69       0.09000   0.16400   0.06700  -0.07600   0.00000  -0.00400
N70       0.08100   0.08900   0.29000  -0.03800   0.03600  -0.00600
N71       0.08000   0.07300   0.05500  -0.04200   0.01300  -0.02500
N72       0.05500   0.04900   0.07600  -0.00400  -0.00200  -0.01900
N73       0.09500   0.08400   0.08200  -0.05000   0.00300  -0.01500
N74       0.05700   0.06900   0.06100  -0.00300   0.00100  -0.01900
N75       0.17100   0.05100   0.04500  -0.02500   0.01300  -0.02200
N76       0.14900   0.05700   0.06400  -0.04700   0.04700  -0.02700
N77       0.16500   0.06400   0.08500  -0.04200   0.04000  -0.02600
N78       0.07800   0.04200   0.05100  -0.02000   0.01300  -0.02100
N79       0.09600   0.09100   0.07000  -0.04700   0.02100  -0.04500
N80       0.14200   0.05500   0.04900  -0.03900  -0.00100  -0.01200
C325      0.05800   0.03900   0.03800  -0.01300   0.00800  -0.01400
C326      0.06500   0.04900   0.04900  -0.01300   0.02300  -0.01500
C327      0.06200   0.05900   0.06300  -0.00800   0.01400  -0.00500
C328      0.06200   0.07200   0.05500  -0.02800   0.01600  -0.01000
C329      0.07200   0.05300   0.05100  -0.02600   0.00500  -0.01000
C330      0.06100   0.04700   0.04300  -0.01400   0.01000  -0.00900
C331      0.07600   0.12500   0.06700  -0.03700   0.00400   0.00500
C332      0.05000   0.04400   0.05000  -0.01700   0.01300  -0.01400
C333      0.05900   0.04700   0.04900  -0.00300   0.01300  -0.01700
C334      0.06200   0.05900   0.04300  -0.00800   0.00300  -0.01600
C335      0.05100   0.04400   0.05000  -0.00900   0.00500  -0.02400
C336      0.05800   0.06100   0.05600   0.00000   0.00700  -0.02400
C337      0.07100   0.07000   0.04900  -0.00700   0.01100  -0.03000
C338      0.05600   0.05900   0.05500  -0.01000   0.00000  -0.02000
C339      0.05500   0.04000   0.04800  -0.01500   0.01500  -0.01900
C340      0.08000   0.05900   0.04900  -0.02900   0.00500  -0.01600
C341      0.09000   0.06300   0.07200  -0.04100   0.01900  -0.02600
C342      0.08200   0.04300   0.03900  -0.01500   0.01800  -0.01600
C343      0.07000   0.03600   0.05000  -0.01100   0.01600  -0.02100
C344      0.05700   0.04400   0.03800  -0.00800   0.00400  -0.01900
C345      0.12300   0.05000   0.06400  -0.03600   0.03700  -0.03200
C346      0.05700   0.03300   0.04300  -0.01300   0.00900  -0.01100
C347      0.04800   0.04500   0.05200  -0.01100   0.00700  -0.01900
C348      0.05800   0.05500   0.04300  -0.01200   0.01100  -0.02300
C349      0.06100   0.03700   0.04400  -0.01500   0.00800  -0.01300
C350      0.05800   0.04500   0.04900  -0.01800   0.01300  -0.01500
C351      0.06300   0.04200   0.04600  -0.01700   0.01400  -0.01700
C352      0.07000   0.05100   0.04700  -0.01800   0.00500  -0.01500
C353      0.05300   0.03400   0.04600  -0.01700   0.01000  -0.00900
C354      0.06600   0.04100   0.04700  -0.00900  -0.00500  -0.01700
C355      0.05800   0.04000   0.05300  -0.00900  -0.00200  -0.01500
C356      0.05800   0.03300   0.04600  -0.01300   0.01600  -0.01100
C357      0.06200   0.03900   0.04400  -0.02300   0.00400  -0.01200
C358      0.05400   0.03800   0.04300  -0.01300   0.00700  -0.01100
C359      0.06600   0.03800   0.05200  -0.01900   0.01500  -0.01300
C360      0.05400   0.04100   0.04600  -0.01500   0.00800  -0.01900
C361      0.06400   0.03700   0.07200  -0.01100   0.01600  -0.01900
C362      0.05600   0.05200   0.08500  -0.01800   0.01800  -0.02600
C363      0.05200   0.05900   0.05100  -0.01400   0.00900  -0.02500
C364      0.05600   0.03900   0.04500  -0.00300  -0.00100  -0.01100
C365      0.05400   0.03500   0.04500  -0.01500   0.00400  -0.01200
C366      0.04700   0.07000   0.05600  -0.01600   0.00800  -0.03000
C367      0.05900   0.05900   0.09600  -0.02300   0.01400  -0.03600
C368      0.13500   0.06200   0.10500  -0.03200  -0.01900  -0.03800
C369      0.14000   0.05100   0.14600  -0.01100  -0.03000  -0.03200
C370      0.07000   0.04200   0.16500  -0.01800   0.02100  -0.06100
C371      0.04700   0.06900   0.10700  -0.01400   0.01800  -0.02500
C372      0.04900   0.06800   0.09300  -0.01300   0.00900  -0.03900
C373      0.12300   0.17500   0.08200  -0.10300  -0.02800  -0.00700
C374      0.05600   0.05000   0.07500  -0.01300   0.00500  -0.02400
C375      0.05700   0.04500   0.06500  -0.00900   0.00300  -0.01400
C376      0.06900   0.04300   0.05800  -0.01400   0.00200  -0.01300
C377      0.05300   0.06100   0.05400  -0.00800  -0.00000  -0.02100
C378      0.08700   0.08200   0.09000  -0.04600   0.02400  -0.04300
C379      0.09100   0.08900   0.08100  -0.04700   0.03600  -0.04700
C380      0.05500   0.05400   0.05500  -0.00800  -0.00500  -0.01100
C381      0.06900   0.05700   0.07100  -0.02600   0.01700  -0.02800
C382      0.07300   0.05800   0.10100  -0.02000   0.03200  -0.04300
C383      0.10600   0.05800   0.08000  -0.03300   0.04300  -0.03000
C384      0.10200   0.05100   0.06900  -0.02800   0.02400  -0.02600
C385      0.08600   0.07800   0.06100  -0.02800   0.01600  -0.02600
C386      0.06900   0.08400   0.06600  -0.02400   0.01800  -0.02500
C387      0.13700   0.04900   0.07400  -0.03300   0.03200  -0.03000
C388      0.05100   0.04500   0.04900  -0.01200  -0.00100  -0.01800
C389      0.09100   0.03500   0.04800  -0.01700   0.00200  -0.01300
C390      0.08500   0.04100   0.05400  -0.01200   0.00800  -0.02000
C391      0.08000   0.03600   0.05100  -0.01700   0.00600  -0.01900
C392      0.10000   0.04300   0.05100  -0.00900   0.00700  -0.01600
C393      0.09000   0.04700   0.05500  -0.00300   0.00100  -0.02100
C394      0.12600   0.04600   0.04700  -0.02200   0.01300  -0.01900
C395      0.06300   0.05600   0.05700  -0.01300   0.00300  -0.02500
C396      0.07000   0.06100   0.05300  -0.01800  -0.00100  -0.01700
C397      0.07300   0.05000   0.04700  -0.02100   0.00500  -0.01300
C398      0.09500   0.04100   0.05600  -0.01300   0.00800  -0.02100
C399      0.06400   0.04800   0.06100  -0.00800   0.00600  -0.01900
C400      0.05800   0.04800   0.04400  -0.01000  -0.00000  -0.01600
C401      0.10600   0.05400   0.04500  -0.03100  -0.00300  -0.01500
C402      0.06300   0.04400   0.05200  -0.01500   0.01200  -0.02000
C403      0.09600   0.04600   0.05500  -0.01400   0.00500  -0.01900
C404      0.11400   0.05500   0.07100  -0.02600   0.03400  -0.02800
C405      0.07700   0.05500   0.09100  -0.02600   0.02900  -0.02000
C406      0.06300   0.06900   0.09000  -0.02600   0.00000  -0.02000
C407      0.06200   0.05700   0.06900  -0.02300  -0.00600  -0.01400
C408      0.12700   0.06500   0.13100  -0.04200   0.06900  -0.04100
C409      0.09500   0.18400   0.07200  -0.09200  -0.00100  -0.00100
C410      0.07800   0.24400   0.08300  -0.08400  -0.01200   0.02100
C411      0.09500   0.10100   0.08100  -0.06200   0.02900  -0.03000
C412      0.07900   0.08100   0.06000  -0.03800   0.00500  -0.02500
C413      0.05500   0.12500   0.23300  -0.03600   0.01000   0.02300
C414      0.10500   0.10300   0.40000  -0.06700   0.11800  -0.05700
C415      0.06200   0.04400   0.08100  -0.00300  -0.00000  -0.01300
C416      0.06000   0.04800   0.08300  -0.00400  -0.00000  -0.00600
C417      0.05800   0.07000   0.07100   0.01400  -0.00100  -0.00800
C418      0.05000   0.09400   0.06500   0.00600  -0.01200  -0.02100
C419      0.04600   0.05600   0.08400  -0.00300   0.00200  -0.02100
C420      0.06100   0.05500   0.09500   0.00000   0.01700  -0.00800
C421      0.23900   0.05400   0.05500  -0.03600   0.06600  -0.01500
C422      0.18400   0.07500   0.07600  -0.06200   0.07200  -0.03800
C423      0.21700   0.06200   0.07200  -0.05500   0.05500  -0.01900
C424      0.18800   0.04800   0.06700  -0.03500   0.02000  -0.01700
C425      0.25000   0.05200   0.04400  -0.03100   0.02900  -0.01500
C426      0.21600   0.05200   0.04900  -0.02900   0.02500  -0.02000
C427      0.09300   0.04000   0.04900  -0.01300   0.01200  -0.02000
C428      0.08000   0.04200   0.06500  -0.00800   0.01300  -0.02500
C429      0.09500   0.08100   0.05700  -0.04900   0.01000  -0.03000
C430      0.08900   0.07500   0.07300  -0.02100   0.00500  -0.03500
C431      0.13200   0.04000   0.06200  -0.02300  -0.00300  -0.01800
C432      0.17100   0.05900   0.04200  -0.06200  -0.00200  -0.00600
loop_
_geom_bond_atom_site_label_1
_geom_bond_atom_site_label_2
_geom_bond_distance
_geom_bond_site_symmetry_2
_ccdc_geom_bond_type
N1     C15     1.410   .     S
N1     C1      1.420   .     S
N1     C8      1.437   .     S
N2     C22     1.413   .     S
N2     C36     1.424   .     S
N2     C29     1.431   .     S
N3     C57     1.383   .     S
N3     C50     1.426   .     S
N3     C43     1.440   .     S
N4     C64     1.420   .     S
N4     C71     1.428   .     S
N4     C78     1.431   .     S
N5     C87     1.454   .     S
N5     C89     1.458   .     S
N5     C85     1.461   .     S
N6     C93     1.471   .     S
N6     C95     1.476   .     S
N6     C91     1.479   .     S
N7     C99     1.457   .     S
N7     C97     1.457   .     S
N7     C101    1.462   .     S
N8     C103    1.463   .     S
N8     C107    1.472   .     S
N8     C105    1.476   .     S
N9     C7      1.252   .     S
N9     C86     1.470   .     S
N10    C77     1.264   .     S
N10    C90     1.462   .     S
N11    C42     1.249   .     S
N11    C88     1.473   .     S
N12    C70     1.273   .     S
N12    C96     1.468   .     S
N13    C28     1.262   .     S
N13    C92     1.459   .     S
N14    C63     1.279   .     S
N14    C94     1.448   .     S
N15    C35     1.282   .     S
N15    C100    1.480   .     S
N16    C56     1.275   .     S
N16    C102    1.467   .     S
N17    C14     1.258   .     S
N17    C98     1.485   .     S
N18    C21     1.277   .     S
N18    C104    1.468   .     S
N19    C49     1.264   .     S
N19    C106    1.470   .     S
N20    C84     1.274   .     S
N20    C108    1.465   .     S
C1     C2      1.391   .     S
C1     C6      1.394   .     S
C2     C3      1.372   .     S
C2     H2      0.951   .     S
C3     C4      1.400   .     S
C3     H3      0.951   .     S
C4     C5      1.392   .     S
C4     C7      1.480   .     S
C5     C6      1.382   .     S
C5     H5      0.952   .     S
C6     H6      0.948   .     S
C7     H7      0.952   .     S
C8     C9      1.370   .     S
C8     C13     1.396   .     S
C9     C10     1.414   .     S
C9     H9      0.949   .     S
C10    C11     1.398   .     S
C10    H10     0.950   .     S
C11    C12     1.352   .     S
C11    C14     1.498   .     S
C12    C13     1.372   .     S
C12    H12     0.949   .     S
C13    H13     0.950   .     S
C14    H14     0.949   .     S
C15    C20     1.373   .     S
C15    C16     1.405   .     S
C16    C17     1.388   .     S
C16    H16     0.950   .     S
C17    C18     1.398   .     S
C17    H17     0.950   .     S
C18    C19     1.386   .     S
C18    C21     1.456   .     S
C19    C20     1.384   .     S
C19    H19     0.950   .     S
C20    H20     0.951   .     S
C21    H21     0.950   .     S
C22    C27     1.391   .     S
C22    C23     1.397   .     S
C23    C24     1.390   .     S
C23    H23     0.952   .     S
C24    C25     1.392   .     S
C24    H24     0.949   .     S
C25    C26     1.395   .     S
C25    C28     1.461   .     S
C26    C27     1.397   .     S
C26    H26     0.951   .     S
C27    H27     0.950   .     S
C28    H28     0.950   .     S
C29    C34     1.375   .     S
C29    C30     1.388   .     S
C30    C31     1.395   .     S
C30    H30     0.949   .     S
C31    C32     1.403   .     S
C31    H31     0.953   .     S
C32    C33     1.380   .     S
C32    C35     1.492   .     S
C33    C34     1.381   .     S
C33    H33     0.947   .     S
C34    H34     0.949   .     S
C35    H35     0.949   .     S
C36    C37     1.372   .     S
C36    C41     1.384   .     S
C37    C38     1.399   .     S
C37    H37     0.952   .     S
C38    C39     1.370   .     S
C38    H38     0.948   .     S
C39    C40     1.366   .     S
C39    C42     1.500   .     S
C40    C41     1.396   .     S
C40    H40     0.953   .     S
C41    H41     0.952   .     S
C42    H42     0.950   .     S
C43    C44     1.379   .     S
C43    C48     1.401   .     S
C44    C45     1.384   .     S
C44    H44     0.951   .     S
C45    C46     1.393   .     S
C45    H45     0.950   .     S
C46    C47     1.362   .     S
C46    C49     1.462   .     S
C47    C48     1.383   .     S
C47    H47     0.950   .     S
C48    H48     0.950   .     S
C49    H49     0.950   .     S
C50    C51     1.388   .     S
C50    C55     1.399   .     S
C51    C52     1.379   .     S
C51    H51     0.949   .     S
C52    C53     1.408   .     S
C52    H52     0.950   .     S
C53    C54     1.382   .     S
C53    C56     1.467   .     S
C54    C55     1.386   .     S
C54    H54     0.950   .     S
C55    H55     0.951   .     S
C56    H56     0.951   .     S
C57    C62     1.385   .     S
C57    C58     1.411   .     S
C58    C59     1.381   .     S
C58    H58     0.952   .     S
C59    C60     1.378   .     S
C59    H59     0.947   .     S
C60    C61     1.396   .     S
C60    C63     1.450   .     S
C61    C62     1.392   .     S
C61    H61     0.950   .     S
C62    H62     0.949   .     S
C63    H63     0.951   .     S
C64    C69     1.376   .     S
C64    C65     1.386   .     S
C65    C66     1.383   .     S
C65    H65     0.951   .     S
C66    C67     1.381   .     S
C66    H66     0.949   .     S
C67    C68     1.389   .     S
C67    C70     1.460   .     S
C68    C69     1.380   .     S
C68    H68     0.950   .     S
C69    H69     0.950   .     S
C70    H70     0.952   .     S
C71    C76     1.363   .     S
C71    C72     1.373   .     S
C72    C73     1.383   .     S
C72    H72     0.950   .     S
C73    C74     1.374   .     S
C73    H73     0.951   .     S
C74    C75     1.380   .     S
C74    C77     1.476   .     S
C75    C76     1.396   .     S
C75    H75     0.950   .     S
C76    H76     0.951   .     S
C77    H77     0.951   .     S
C78    C83     1.389   .     S
C78    C79     1.400   .     S
C79    C80     1.360   .     S
C79    H79     0.950   .     S
C80    C81     1.394   .     S
C80    H80     0.948   .     S
C81    C82     1.387   .     S
C81    C84     1.463   .     S
C82    C83     1.371   .     S
C82    H82     0.949   .     S
C83    H83     0.950   .     S
C84    H84     0.951   .     S
C85    C86     1.508   .     S
C85    H85A    0.994   .     S
C85    H85B    0.990   .     S
C86    H86A    0.990   .     S
C86    H86B    0.990   .     S
C87    C88     1.501   .     S
C87    H87A    0.988   .     S
C87    H87B    0.992   .     S
C88    H88A    0.989   .     S
C88    H88B    0.989   .     S
C89    C90     1.525   .     S
C89    H89A    0.989   .     S
C89    H89B    0.990   .     S
C90    H90A    0.989   .     S
C90    H90B    0.988   .     S
C91    C92     1.515   .     S
C91    H91A    0.990   .     S
C91    H91B    0.990   .     S
C92    H92A    0.991   .     S
C92    H92B    0.991   .     S
C93    C94     1.494   .     S
C93    H93A    0.991   .     S
C93    H93B    0.989   .     S
C94    H94A    0.990   .     S
C94    H94B    0.989   .     S
C95    C96     1.519   .     S
C95    H95A    0.990   .     S
C95    H95B    0.991   .     S
C96    H96A    0.990   .     S
C96    H96B    0.988   .     S
C97    C98     1.537   .     S
C97    H97A    0.989   .     S
C97    H97B    0.990   .     S
C98    H98A    0.990   .     S
C98    H98B    0.991   .     S
C99    C100    1.495   .     S
C99    H99A    0.991   .     S
C99    H99B    0.990   .     S
C100   H10A    0.989   .     S
C100   H10B    0.991   .     S
C101   C102    1.514   .     S
C101   H10C    0.991   .     S
C101   H10D    0.988   .     S
C102   H10E    0.990   .     S
C102   H10F    0.993   .     S
C103   C104    1.504   .     S
C103   H10G    0.991   .     S
C103   H10H    0.991   .     S
C104   H10I    0.990   .     S
C104   H10J    0.990   .     S
C105   C106    1.512   .     S
C105   H10K    0.990   .     S
C105   H10L    0.990   .     S
C106   H10M    0.989   .     S
C106   H10N    0.989   .     S
C107   C108    1.507   .     S
C107   H10O    0.989   .     S
C107   H10P    0.990   .     S
C108   H10Q    0.989   .     S
C108   H10R    0.990   .     S
N21    C109    1.420   .     S
N21    C123    1.424   .     S
N21    C116    1.425   .     S
N22    C144    1.418   .     S
N22    C137    1.428   .     S
N22    C130    1.433   .     S
N23    C151    1.403   .     S
N23    C165    1.424   .     S
N23    C158    1.434   .     S
N24    C172    1.404   .     S
N24    C179    1.428   .     S
N24    C186    1.444   .     S
N25    C195    1.468   .     S
N25    C193    1.474   .     S
N25    C197    1.477   .     S
N26    C199    1.463   .     S
N26    C201    1.467   .     S
N26    C203    1.475   .     S
N27    C207    1.454   .     S
N27    C205    1.469   .     S
N27    C209    1.472   .     S
N28    C215    1.451   .     S
N28    C211    1.466   .     S
N28    C213    1.469   .     S
N29    C115    1.257   .     S
N29    C194    1.475   .     S
N30    C192    1.268   .     S
N30    C198    1.479   .     S
N31    C150    1.266   .     S
N31    C196    1.467   .     S
N32    C185    1.265   .     S
N32    C204    1.455   .     S
N33    C136    1.251   .     S
N33    C200    1.469   .     S
N34    C171    1.259   .     S
N34    C202    1.479   .     S
N35    C122    1.269   .     S
N35    C206    1.451   .     S
N36    C143    1.261   .     S
N36    C210    1.460   .     S
N37    C164    1.257   .     S
N37    C208    1.452   .     S
N38    C129    1.254   .     S
N38    C212    1.491   .     S
N39    C178    1.259   .     S
N39    C216    1.468   .     S
N40    C157    1.268   .     S
N40    C214    1.467   .     S
C109   C114    1.374   .     S
C109   C110    1.389   .     S
C110   C111    1.381   .     S
C110   H110    0.950   .     S
C111   C112    1.388   .     S
C111   H111    0.949   .     S
C112   C113    1.383   .     S
C112   C115    1.479   .     S
C113   C114    1.401   .     S
C113   H113    0.949   .     S
C114   H114    0.949   .     S
C115   H115    0.950   .     S
C116   C121    1.378   .     S
C116   C117    1.393   .     S
C117   C118    1.362   .     S
C117   H117    0.949   .     S
C118   C119    1.373   .     S
C118   H118    0.950   .     S
C119   C120    1.391   .     S
C119   C122    1.472   .     S
C120   C121    1.371   .     S
C120   H120    0.949   .     S
C121   H121    0.951   .     S
C122   H122    0.948   .     S
C123   C128    1.378   .     S
C123   C124    1.392   .     S
C124   C125    1.379   .     S
C124   H124    0.950   .     S
C125   C126    1.387   .     S
C125   H125    0.949   .     S
C126   C127    1.387   .     S
C126   C129    1.473   .     S
C127   C128    1.385   .     S
C127   H127    0.948   .     S
C128   H128    0.950   .     S
C129   H129    0.950   .     S
C130   C131    1.385   .     S
C130   C135    1.389   .     S
C131   C132    1.382   .     S
C131   H131    0.950   .     S
C132   C133    1.398   .     S
C132   H132    0.951   .     S
C133   C134    1.388   .     S
C133   C136    1.476   .     S
C134   C135    1.370   .     S
C134   H134    0.950   .     S
C135   H135    0.949   .     S
C136   H136    0.952   .     S
C137   C142    1.382   .     S
C137   C138    1.397   .     S
C138   C139    1.384   .     S
C138   H138    0.950   .     S
C139   C140    1.376   .     S
C139   H139    0.951   .     S
C140   C141    1.393   .     S
C140   C143    1.479   .     S
C141   C142    1.392   .     S
C141   H141    0.951   .     S
C142   H142    0.950   .     S
C143   H143    0.950   .     S
C144   C145    1.386   .     S
C144   C149    1.398   .     S
C145   C146    1.374   .     S
C145   H145    0.950   .     S
C146   C147    1.393   .     S
C146   H146    0.951   .     S
C147   C148    1.382   .     S
C147   C150    1.471   .     S
C148   C149    1.379   .     S
C148   H148    0.951   .     S
C149   H149    0.952   .     S
C150   H150    0.951   .     S
C151   C156    1.373   .     S
C151   C152    1.388   .     S
C152   C153    1.408   .     S
C152   H152    0.950   .     S
C153   C154    1.379   .     S
C153   H153    0.950   .     S
C154   C155    1.388   .     S
C154   C157    1.470   .     S
C155   C156    1.397   .     S
C155   H155    0.951   .     S
C156   H156    0.950   .     S
C157   H157    0.950   .     S
C158   C163    1.381   .     S
C158   C159    1.384   .     S
C159   C160    1.372   .     S
C159   H159    0.950   .     S
C160   C161    1.419   .     S
C160   H160    0.951   .     S
C161   C162    1.386   .     S
C161   C164    1.475   .     S
C162   C163    1.372   .     S
C162   H162    0.950   .     S
C163   H163    0.950   .     S
C164   H164    0.952   .     S
C165   C170    1.375   .     S
C165   C166    1.390   .     S
C166   C167    1.383   .     S
C166   H166    0.949   .     S
C167   C168    1.394   .     S
C167   H167    0.952   .     S
C168   C169    1.382   .     S
C168   C171    1.478   .     S
C169   C170    1.391   .     S
C169   H169    0.951   .     S
C170   H170    0.948   .     S
C171   H171    0.951   .     S
C172   C177    1.382   .     S
C172   C173    1.390   .     S
C173   C174    1.388   .     S
C173   H173    0.949   .     S
C174   C175    1.388   .     S
C174   H174    0.948   .     S
C175   C176    1.388   .     S
C175   C178    1.481   .     S
C176   C177    1.369   .     S
C176   H176    0.948   .     S
C177   H177    0.950   .     S
C178   H178    0.950   .     S
C179   C184    1.381   .     S
C179   C180    1.394   .     S
C180   C181    1.371   .     S
C180   H180    0.950   .     S
C181   C182    1.387   .     S
C181   H181    0.950   .     S
C182   C183    1.389   .     S
C182   C185    1.470   .     S
C183   C184    1.382   .     S
C183   H183    0.949   .     S
C184   H184    0.949   .     S
C185   H185    0.950   .     S
C186   C191    1.372   .     S
C186   C187    1.383   .     S
C187   C188    1.388   .     S
C187   H187    0.951   .     S
C188   C189    1.395   .     S
C188   H188    0.949   .     S
C189   C190    1.400   .     S
C189   C192    1.473   .     S
C190   C191    1.371   .     S
C190   H190    0.950   .     S
C191   H191    0.950   .     S
C192   H192    0.952   .     S
C193   C194    1.496   .     S
C193   H19A    0.991   .     S
C193   H19B    0.990   .     S
C194   H19C    0.990   .     S
C194   H19D    0.990   .     S
C195   C196    1.520   .     S
C195   H19E    0.989   .     S
C195   H19F    0.991   .     S
C196   H19G    0.989   .     S
C196   H19H    0.991   .     S
C197   C198    1.522   .     S
C197   H19I    0.991   .     S
C197   H19J    0.992   .     S
C198   H19K    0.991   .     S
C198   H19L    0.990   .     S
C199   C200    1.512   .     S
C199   H19M    0.992   .     S
C199   H19N    0.989   .     S
C200   H20A    0.989   .     S
C200   H20B    0.990   .     S
C201   C202    1.519   .     S
C201   H20C    0.989   .     S
C201   H20D    0.991   .     S
C202   H20E    0.990   .     S
C202   H20F    0.987   .     S
C203   C204    1.511   .     S
C203   H20G    0.990   .     S
C203   H20H    0.991   .     S
C204   H20I    0.990   .     S
C204   H20J    0.990   .     S
C205   C206    1.518   .     S
C205   H20K    0.992   .     S
C205   H20L    0.989   .     S
C206   H20M    0.991   .     S
C206   H20N    0.992   .     S
C207   C208    1.525   .     S
C207   H20O    0.990   .     S
C207   H20P    0.991   .     S
C208   H20Q    0.991   .     S
C208   H20R    0.991   .     S
C209   C210    1.519   .     S
C209   H20S    0.989   .     S
C209   H20T    0.989   .     S
C210   H21A    0.991   .     S
C210   H21B    0.991   .     S
C211   C212    1.498   .     S
C211   H21C    0.990   .     S
C211   H21D    0.989   .     S
C212   H21E    0.988   .     S
C212   H21F    0.990   .     S
C213   C214    1.501   .     S
C213   H21G    0.990   .     S
C213   H21H    0.989   .     S
C214   H21I    0.993   .     S
C214   H21J    0.988   .     S
C215   C216    1.507   .     S
C215   H21K    0.988   .     S
C215   H21L    0.989   .     S
C216   H21M    0.990   .     S
C216   H21N    0.990   .     S
N41    C217    1.409   .     S
N41    C224    1.419   .     S
N41    C231    1.429   .     S
N42    C245    1.418   .     S
N42    C238    1.422   .     S
N42    C252    1.428   .     S
N43    C259    1.399   .     S
N43    C266    1.433   .     S
N43    C273    1.436   .     S
N44    C294    1.418   .     S
N44    C280    1.435   .     S
N44    C287    1.435   .     S
N45    C303    1.460   .     S
N45    C301    1.464   .     S
N45    C305    1.475   .     S
N46    C311    1.459   .     S
N46    C309    1.468   .     S
N46    C307    1.479   .     S
N47    C317    1.456   .     S
N47    C313    1.461   .     S
N47    C315    1.463   .     S
N48    C319    1.459   .     S
N48    C321    1.473   .     S
N48    C323    1.478   .     S
N49    C223    1.259   .     S
N49    C302    1.475   .     S
N50    C300    1.252   .     S
N50    C306    1.467   .     S
N51    C258    1.267   .     S
N51    C304    1.465   .     S
N52    C293    1.260   .     S
N52    C312    1.467   .     S
N53    C244    1.262   .     S
N53    C308    1.484   .     S
N54    C272    1.259   .     S
N54    C310    1.464   .     S
N55    C237    1.267   .     S
N55    C318    1.458   .     S
N56    C286    1.275   .     S
N56    C314    1.457   .     S
N57    C279    1.266   .     S
N57    C316    1.468   .     S
N58    C265    1.262   .     S
N58    C324    1.466   .     S
N59    C251    1.251   .     S
N59    C322    1.475   .     S
N60    C230    1.262   .     S
N60    C320    1.459   .     S
C217   C218    1.390   .     S
C217   C222    1.409   .     S
C218   C219    1.381   .     S
C218   H218    0.949   .     S
C219   C220    1.407   .     S
C219   H219    0.951   .     S
C220   C221    1.377   .     S
C220   C223    1.470   .     S
C221   C222    1.390   .     S
C221   H221    0.950   .     S
C222   H222    0.950   .     S
C223   H223    0.951   .     S
C224   C229    1.391   .     S
C224   C225    1.397   .     S
C225   C226    1.387   .     S
C225   H225    0.950   .     S
C226   C227    1.398   .     S
C226   H226    0.951   .     S
C227   C228    1.378   .     S
C227   C230    1.474   .     S
C228   C229    1.376   .     S
C228   H228    0.950   .     S
C229   H229    0.949   .     S
C230   H230    0.950   .     S
C231   C236    1.379   .     S
C231   C232    1.397   .     S
C232   C233    1.366   .     S
C232   H232    0.951   .     S
C233   C234    1.392   .     S
C233   H233    0.949   .     S
C234   C235    1.394   .     S
C234   C237    1.480   .     S
C235   C236    1.391   .     S
C235   H235    0.947   .     S
C236   H236    0.949   .     S
C237   H237    0.949   .     S
C238   C243    1.365   .     S
C238   C239    1.400   .     S
C239   C240    1.394   .     S
C239   H239    0.950   .     S
C240   C241    1.376   .     S
C240   H240    0.949   .     S
C241   C242    1.400   .     S
C241   C244    1.468   .     S
C242   C243    1.381   .     S
C242   H242    0.950   .     S
C243   H243    0.953   .     S
C244   H244    0.949   .     S
C245   C246    1.382   .     S
C245   C250    1.381   .     S
C246   C247    1.379   .     S
C246   H246    0.950   .     S
C247   C248    1.410   .     S
C247   H247    0.951   .     S
C248   C249    1.375   .     S
C248   C251    1.476   .     S
C249   C250    1.395   .     S
C249   H249    0.947   .     S
C250   H250    0.950   .     S
C251   H251    0.952   .     S
C252   C257    1.384   .     S
C252   C253    1.393   .     S
C253   C254    1.380   .     S
C253   H253    0.952   .     S
C254   C255    1.390   .     S
C254   H254    0.948   .     S
C255   C256    1.366   .     S
C255   C258    1.475   .     S
C256   C257    1.394   .     S
C256   H256    0.949   .     S
C257   H257    0.950   .     S
C258   H258    0.950   .     S
C259   C260    1.394   .     S
C259   C264    1.399   .     S
C260   C261    1.379   .     S
C260   H260    0.950   .     S
C261   C262    1.389   .     S
C261   H261    0.953   .     S
C262   C263    1.380   .     S
C262   C265    1.464   .     S
C263   C264    1.378   .     S
C263   H263    0.950   .     S
C264   H264    0.950   .     S
C265   H265    0.950   .     S
C266   C267    1.380   .     S
C266   C271    1.384   .     S
C267   C268    1.391   .     S
C267   H267    0.950   .     S
C268   C269    1.375   .     S
C268   H268    0.950   .     S
C269   C270    1.382   .     S
C269   C272    1.477   .     S
C270   C271    1.384   .     S
C270   H270    0.950   .     S
C271   H271    0.951   .     S
C272   H272    0.949   .     S
C273   C278    1.373   .     S
C273   C274    1.400   .     S
C274   C275    1.381   .     S
C274   H274    0.951   .     S
C275   C276    1.375   .     S
C275   H275    0.951   .     S
C276   C277    1.398   .     S
C276   C279    1.470   .     S
C277   C278    1.389   .     S
C277   H277    0.949   .     S
C278   H278    0.950   .     S
C279   H279    0.952   .     S
C280   C285    1.380   .     S
C280   C281    1.383   .     S
C281   C282    1.394   .     S
C281   H281    0.949   .     S
C282   C283    1.392   .     S
C282   H282    0.951   .     S
C283   C284    1.374   .     S
C283   C286    1.469   .     S
C284   C285    1.397   .     S
C284   H284    0.949   .     S
C285   H285    0.951   .     S
C286   H286    0.950   .     S
C287   C292    1.374   .     S
C287   C288    1.393   .     S
C288   C289    1.377   .     S
C288   H288    0.950   .     S
C289   C290    1.405   .     S
C289   H289    0.951   .     S
C290   C291    1.373   .     S
C290   C293    1.488   .     S
C291   C292    1.384   .     S
C291   H291    0.950   .     S
C292   H292    0.949   .     S
C293   H293    0.951   .     S
C294   C299    1.389   .     S
C294   C295    1.409   .     S
C295   C296    1.374   .     S
C295   H295    0.951   .     S
C296   C297    1.398   .     S
C296   H296    0.948   .     S
C297   C298    1.390   .     S
C297   C300    1.478   .     S
C298   C299    1.363   .     S
C298   H298    0.949   .     S
C299   H299    0.949   .     S
C300   H300    0.949   .     S
C301   C302    1.505   .     S
C301   H30A    0.991   .     S
C301   H30B    0.992   .     S
C302   H30C    0.992   .     S
C302   H30D    0.989   .     S
C303   C304    1.507   .     S
C303   H30E    0.990   .     S
C303   H30F    0.992   .     S
C304   H30G    0.991   .     S
C304   H30H    0.992   .     S
C305   C306    1.511   .     S
C305   H30I    0.989   .     S
C305   H30J    0.989   .     S
C306   H30K    0.986   .     S
C306   H30L    0.989   .     S
C307   C308    1.510   .     S
C307   H30M    0.990   .     S
C307   H30N    0.991   .     S
C308   H30O    0.991   .     S
C308   H30P    0.991   .     S
C309   C310    1.532   .     S
C309   H30Q    0.989   .     S
C309   H30R    0.991   .     S
C310   H31A    0.990   .     S
C310   H31B    0.990   .     S
C311   C312    1.509   .     S
C311   H31C    0.989   .     S
C311   H31D    0.993   .     S
C312   H31E    0.990   .     S
C312   H31F    0.992   .     S
C313   C314    1.523   .     S
C313   H31G    0.990   .     S
C313   H31H    0.991   .     S
C314   H31I    0.991   .     S
C314   H31J    0.990   .     S
C315   C316    1.519   .     S
C315   H31K    0.989   .     S
C315   H31L    0.990   .     S
C316   H31M    0.992   .     S
C316   H31N    0.987   .     S
C317   C318    1.507   .     S
C317   H31O    0.990   .     S
C317   H31P    0.990   .     S
C318   H31Q    0.990   .     S
C318   H31R    0.991   .     S
C319   C320    1.505   .     S
C319   H31S    0.990   .     S
C319   H31T    0.989   .     S
C320   H32A    0.991   .     S
C320   H32B    0.991   .     S
C321   C322    1.521   .     S
C321   H32C    0.990   .     S
C321   H32D    0.990   .     S
C322   H32E    0.991   .     S
C322   H32F    0.990   .     S
C323   C324    1.518   .     S
C323   H32G    0.989   .     S
C323   H32H    0.989   .     S
C324   H32I    0.988   .     S
C324   H32J    0.992   .     S
N61    C325    1.403   .     S
N61    C339    1.422   .     S
N61    C332    1.429   .     S
N62    C353    1.410   .     S
N62    C360    1.413   .     S
N62    C346    1.440   .     S
N63    C381    1.417   .     S
N63    C374    1.422   .     S
N63    C367    1.426   .     S
N64    C402    1.408   .     S
N64    C400    1.424   .     S
N64    C388    1.431   .     S
N65    C409    1.456   .     S
N65    C411    1.460   .     S
N65    C413    1.466   .     S
N66    C417    1.454   .     S
N66    C419    1.458   .     S
N66    C415    1.466   .     S
N67    C423    1.448   .     S
N67    C421    1.470   .     S
N67    C425    1.490   .     S
N68    C427    1.462   .     S
N68    C431    1.471   .     S
N68    C429    1.473   .     S
N69    C331    1.273   .     S
N69    C410    1.481   .     S
N70    C408    1.283   .     S
N70    C414    1.447   .     S
N71    C352    1.270   .     S
N71    C412    1.454   .     S
N72    C338    1.269   .     S
N72    C416    1.456   .     S
N73    C373    1.143   .     S
N73    C420    1.610   .     S
N74    C366    1.272   .     S
N74    C418    1.487   .     S
N75    C394    1.284   .     S
N75    C426    1.493   .     S
N76    C345    1.261   .     S
N76    C422    1.484   .     S
N77    C387    1.271   .     S
N77    C424    1.496   .     S
N78    C359    1.254   .     S
N78    C428    1.477   .     S
N79    C380    1.260   .     S
N79    C430    1.462   .     S
N80    C401    1.294   .     S
N80    C432    1.481   .     S
C325   C326    1.384   .     S
C325   C330    1.397   .     S
C326   C327    1.374   .     S
C326   H326    0.950   .     S
C327   C328    1.392   .     S
C327   H327    0.949   .     S
C328   C329    1.397   .     S
C328   C331    1.473   .     S
C329   C330    1.363   .     S
C329   H329    0.950   .     S
C330   H330    0.950   .     S
C331   H331    0.950   .     S
C332   C333    1.373   .     S
C332   C337    1.376   .     S
C333   C334    1.382   .     S
C333   H333    0.951   .     S
C334   C335    1.381   .     S
C334   H334    0.949   .     S
C335   C336    1.375   .     S
C335   C338    1.468   .     S
C336   C337    1.379   .     S
C336   H336    0.952   .     S
C337   H337    0.950   .     S
C338   H338    0.952   .     S
C339   C340    1.363   .     S
C339   C344    1.374   .     S
C340   C341    1.407   .     S
C340   H340    0.950   .     S
C341   C342    1.381   .     S
C341   H341    0.949   .     S
C342   C343    1.367   .     S
C342   C345    1.492   .     S
C343   C344    1.371   .     S
C343   H343    0.948   .     S
C344   H344    0.947   .     S
C345   H345    0.951   .     S
C346   C351    1.381   .     S
C346   C347    1.380   .     S
C347   C348    1.375   .     S
C347   H347    0.950   .     S
C348   C349    1.379   .     S
C348   H348    0.953   .     S
C349   C350    1.397   .     S
C349   C352    1.470   .     S
C350   C351    1.386   .     S
C350   H350    0.951   .     S
C351   H351    0.950   .     S
C352   H352    0.951   .     S
C353   C354    1.370   .     S
C353   C358    1.389   .     S
C354   C355    1.403   .     S
C354   H354    0.952   .     S
C355   C356    1.401   .     S
C355   H355    0.950   .     S
C356   C357    1.378   .     S
C356   C359    1.475   .     S
C357   C358    1.379   .     S
C357   H357    0.949   .     S
C358   H358    0.948   .     S
C359   H359    0.950   .     S
C360   C361    1.380   .     S
C360   C365    1.391   .     S
C361   C362    1.391   .     S
C361   H361    0.950   .     S
C362   C363    1.379   .     S
C362   H362    0.950   .     S
C363   C364    1.393   .     S
C363   C366    1.459   .     S
C364   C365    1.379   .     S
C364   H364    0.950   .     S
C365   H365    0.951   .     S
C366   H366    0.948   .     S
C367   C372    1.380   .     S
C367   C368    1.388   .     S
C368   C369    1.359   .     S
C368   H368    0.949   .     S
C369   C370    1.327   .     S
C369   H369    0.949   .     S
C370   C371    1.395   .     S
C370   C373    1.550   .     S
C371   C372    1.393   .     S
C371   H371    0.952   .     S
C372   H372    0.951   .     S
C373   H373    0.950   .     S
C374   C375    1.372   .     S
C374   C379    1.383   .     S
C375   C376    1.361   .     S
C375   H375    0.949   .     S
C376   C377    1.377   .     S
C376   H376    0.951   .     S
C377   C378    1.402   .     S
C377   C380    1.467   .     S
C378   C379    1.381   .     S
C378   H378    0.949   .     S
C379   H379    0.949   .     S
C380   H380    0.949   .     S
C381   C386    1.368   .     S
C381   C382    1.401   .     S
C382   C383    1.385   .     S
C382   H382    0.949   .     S
C383   C384    1.387   .     S
C383   H383    0.951   .     S
C384   C385    1.365   .     S
C384   C387    1.493   .     S
C385   C386    1.386   .     S
C385   H385    0.950   .     S
C386   H386    0.948   .     S
C387   H387    0.950   .     S
C388   C389    1.367   .     S
C388   C393    1.371   .     S
C389   C390    1.376   .     S
C389   H389    0.952   .     S
C390   C391    1.383   .     S
C390   H390    0.949   .     S
C391   C392    1.381   .     S
C391   C394    1.467   .     S
C392   C393    1.386   .     S
C392   H392    0.949   .     S
C393   H393    0.948   .     S
C394   H394    0.951   .     S
C395   C396    1.382   .     S
C395   C400    1.385   .     S
C395   H395    0.951   .     S
C396   C397    1.376   .     S
C396   H396    0.949   .     S
C397   C398    1.396   .     S
C397   C401    1.460   .     S
C398   C399    1.390   .     S
C398   H398    0.951   .     S
C399   C400    1.368   .     S
C399   H399    0.949   .     S
C401   H401    0.950   .     S
C402   C407    1.386   .     S
C402   C403    1.391   .     S
C403   C404    1.367   .     S
C403   H403    0.949   .     S
C404   C405    1.352   .     S
C404   H404    0.952   .     S
C405   C406    1.403   .     S
C405   C408    1.482   .     S
C406   C407    1.371   .     S
C406   H406    0.951   .     S
C407   H407    0.951   .     S
C408   H408    0.949   .     S
C409   C410    1.548   .     S
C409   H40A    0.990   .     S
C409   H40B    0.990   .     S
C410   H41A    0.987   .     S
C410   H41B    0.991   .     S
C411   C412    1.482   .     S
C411   H41C    0.990   .     S
C411   H41D    0.990   .     S
C412   H41E    0.989   .     S
C412   H41F    0.988   .     S
C413   C414    1.522   .     S
C413   H41G    0.990   .     S
C413   H41H    0.991   .     S
C414   H41I    0.990   .     S
C414   H41J    0.992   .     S
C415   C416    1.541   .     S
C415   H41K    0.988   .     S
C415   H41L    0.989   .     S
C416   H41M    0.991   .     S
C416   H41N    0.988   .     S
C417   C418    1.520   .     S
C417   H41O    0.991   .     S
C417   H41P    0.991   .     S
C418   H41Q    0.988   .     S
C418   H41R    0.990   .     S
C419   C420    1.502   .     S
C419   H41S    0.991   .     S
C419   H41T    0.992   .     S
C420   H42A    0.990   .     S
C420   H42B    0.989   .     S
C421   C422    1.482   .     S
C421   H42C    0.989   .     S
C421   H42D    0.989   .     S
C422   H42E    0.987   .     S
C422   H42F    0.991   .     S
C423   C424    1.516   .     S
C423   H42G    0.990   .     S
C423   H42H    0.990   .     S
C424   H42I    0.987   .     S
C424   H42J    0.989   .     S
C425   C426    1.502   .     S
C425   H42K    0.990   .     S
C425   H42L    0.987   .     S
C426   H42M    0.991   .     S
C426   H42N    0.990   .     S
C427   C428    1.506   .     S
C427   H42O    0.990   .     S
C427   H42P    0.990   .     S
C428   H42Q    0.991   .     S
C428   H42R    0.989   .     S
C429   C430    1.519   .     S
C429   H42S    0.991   .     S
C429   H42T    0.989   .     S
C430   H43A    0.990   .     S
C430   H43B    0.991   .     S
C431   C432    1.530   .     S
C431   H43C    0.990   .     S
C431   H43D    0.990   .     S
C432   H43E    0.990   .     S
C432   H43F    0.989   .     S
C501   O1      1.402   .     S
C502   O2      1.430   .     S
C503   O3      1.444   .     S
C504   O4      1.365   .     S
C505   O5      1.462   .     S
C506   O6      1.419   .     S
C507   O7      1.447   .     S
C508   O8      1.405   .     S
C509   O9      1.554   .     S
C510   O10     1.448   .     S
C511   O11     1.633   .     S
C512   O12A    1.376   .     S
C512   O12B    1.526   .     S
O12A   O12B    1.316   .     S
C513   O13B    1.269   .     S
C513   O13A    1.348   .     S
C514   O14     1.513   .     S
C515   O15     1.464   .     S
C516   C517    1.368   .     S
C516   O16     1.561   .     S
C517   O17     1.548   .     S
C518   C519    1.278   .     S
C518   O18     1.417   .     S
O18    C519    1.417   .     S
C519   O19     1.689   .     S
C520   O20     1.547   .     S
C520   O48     1.731   .     S
O20    O47     1.751   .     S
C521   O21     1.677   .     S
C522   O22     1.598   .     S
C523   O45     1.159   .     S
C523   O23     1.563   .     S
O23    O48     1.616   .     S
