
#######################################################################
#
#                 Cambridge Crystallographic Data Centre
#                                CCDC 
#
#######################################################################
#
# If this CIF has been generated from an entry in the Cambridge 
# Structural Database, then it will include bibliographic, chemical, 
# crystal, experimental, refinement or atomic coordinate data resulting 
# from the CCDC's data processing and validation procedures.
#
#######################################################################

data_DOPJEZ
_symmetry_cell_setting           monoclinic
_symmetry_space_group_name_H-M   'P 21/c'
_symmetry_Int_Tables_number      14
_space_group_name_Hall           '-P 2ybc'
loop_
_symmetry_equiv_pos_site_id
_symmetry_equiv_pos_as_xyz
1 x,y,z
2 -x,1/2+y,1/2-z
3 -x,-y,-z
4 x,1/2-y,1/2+z
_cell_length_a                   25.7426(8)
_cell_length_b                   21.2737(6)
_cell_length_c                   42.0407(11)
_cell_angle_alpha                90
_cell_angle_beta                 98.2499(10)
_cell_angle_gamma                90
_cell_volume                     22784.9
loop_
_atom_site_label
_atom_site_type_symbol
_atom_site_fract_x
_atom_site_fract_y
_atom_site_fract_z
O1 O 0.25172(9) 0.62488(10) -0.06246(5)
O2 O 0.31581(8) 0.59168(10) -0.02244(5)
O3 O 0.23382(10) 0.83948(11) 0.05465(6)
O4 O 0.14960(10) 0.83296(11) 0.02905(6)
O5 O 0.01908(9) 0.57831(10) 0.13332(5)
O6 O 0.10163(10) 0.59047(10) 0.16093(6)
O7 O 0.16205(8) 0.34786(10) 0.07538(5)
O8 O 0.10218(9) 0.36833(11) 0.03123(5)
B1 B 0.26545(16) 0.58248(19) -0.03797(9)
B2 B 0.18472(18) 0.81488(19) 0.05516(11)
B3 B 0.06487(18) 0.61176(18) 0.13656(10)
B4 B 0.15281(15) 0.37623(18) 0.04644(10)
C1 C 0.29115(14) 0.67232(16) -0.05959(9)
H1 H 0.3008 0.6848 -0.0809
C2 C 0.33877(13) 0.64505(16) -0.03667(9)
H2 H 0.3674 0.6315 -0.0489
C3 C 0.35831(13) 0.69567(16) -0.01182(9)
C4 C 0.31188(13) 0.73988(16) -0.01404(8)
C5 C 0.30211(14) 0.78654(15) 0.00800(9)
H3 H 0.3268 0.7954 0.0265
C6 C 0.25482(14) 0.81940(16) 0.00179(9)
C7 C 0.23385(15) 0.86588(16) 0.02338(10)
H4 H 0.2530 0.9069 0.0242
C8 C 0.17568(15) 0.87256(17) 0.00875(10)
H5 H 0.1637 0.9171 0.0097
C9 C 0.16943(15) 0.84853(16) -0.02652(10)
C10 C 0.21848(14) 0.80691(16) -0.02556(9)
C11 C 0.22819(14) 0.76181(16) -0.04768(9)
H6 H 0.2040 0.7544 -0.0666
C12 C 0.27480(13) 0.72765(15) -0.04114(8)
C13 C 0.37376(15) 0.66840(18) 0.02222(9)
H7 H 0.3426 0.6506 0.0298
H8 H 0.3883 0.7019 0.0369
H9 H 0.4002 0.6354 0.0216
C14 C 0.40600(15) 0.72953(19) -0.02253(11)
H10 H 0.4345 0.6993 -0.0232
H11 H 0.4179 0.7630 -0.0072
H12 H 0.3959 0.7477 -0.0439
C15 C 0.11837(15) 0.8126(2) -0.03614(11)
H13 H 0.1178 0.7952 -0.0578
H14 H 0.0886 0.8412 -0.0360
H15 H 0.1159 0.7783 -0.0209
C16 C 0.1730(2) 0.90374(19) -0.04935(11)
H16 H 0.1712 0.8880 -0.0714
H17 H 0.2063 0.9259 -0.0432
H18 H 0.1438 0.9327 -0.0481
C17 C 0.17391(14) 0.76878(15) 0.08246(9)
C18 C 0.21744(16) 0.75158(17) 0.10397(10)
H19 H 0.2506 0.7697 0.1020
C19 C 0.21367(17) 0.70858(18) 0.12820(12)
C20 C 0.16747(16) 0.68127(17) 0.13156(10)
H20 H 0.1659 0.6517 0.1483
C21 C 0.12112(14) 0.69645(15) 0.11025(9)
C22 C 0.07258(15) 0.66672(14) 0.11219(9)
C23 C 0.02970(15) 0.68258(15) 0.09081(9)
H21 H -0.0030 0.6629 0.0923
C24 C 0.03273(15) 0.72764(15) 0.06639(8)
C25 C 0.07923(14) 0.75603(15) 0.06375(8)
H22 H 0.0810 0.7862 0.0473
C26 C 0.12478(14) 0.74113(15) 0.08515(9)
C27 C 0.02908(14) 0.52348(15) 0.15385(8)
H23 H -0.0013 0.5132 0.1653
C28 C 0.07857(15) 0.53950(16) 0.17724(9)
H24 H 0.0702 0.5526 0.1988
C29 C 0.11409(15) 0.48043(16) 0.17941(8)
C30 C 0.09362(13) 0.44588(15) 0.14842(7)
C31 C 0.11788(12) 0.39834(14) 0.13370(8)
H25 H 0.1511 0.3824 0.1430
C32 C 0.09211(12) 0.37440(13) 0.10482(7)
C33 C 0.11212(13) 0.32697(15) 0.08322(8)
H26 H 0.1139 0.2837 0.0926
C34 C 0.07392(13) 0.33119(15) 0.05205(8)
H27 H 0.0655 0.2885 0.0428
C35 C 0.02343(12) 0.36533(15) 0.05904(7)
C36 C 0.04278(12) 0.39739(14) 0.09121(7)
C37 C 0.01835(12) 0.44396(14) 0.10634(7)
H28 H -0.0155 0.4590 0.0977
C38 C 0.04513(13) 0.46830(14) 0.13489(7)
C39 C 0.17318(16) 0.49611(19) 0.18307(10)
H29 H 0.1830 0.5213 0.2025
H30 H 0.1806 0.5199 0.1643
H31 H 0.1935 0.4570 0.1848
C40 C 0.10267(17) 0.44044(18) 0.20827(9)
H32 H 0.0650 0.4313 0.2061
H33 H 0.1134 0.4637 0.2282
H34 H 0.1223 0.4009 0.2088
C41 C 0.00198(14) 0.41133(17) 0.03313(8)
H35 H -0.0305 0.4300 0.0385
H36 H -0.0054 0.3893 0.0125
H37 H 0.0279 0.4445 0.0316
C42 C -0.01783(13) 0.31578(16) 0.06400(8)
H38 H -0.0025 0.2851 0.0801
H39 H -0.0294 0.2942 0.0436
H40 H -0.0479 0.3363 0.0715
C43 C 0.19669(13) 0.41703(16) 0.03397(8)
C44 C 0.24363(13) 0.41839(17) 0.05350(8)
H41 H 0.2483 0.3932 0.0724
C45 C 0.28512(14) 0.45572(18) 0.04661(9)
C46 C 0.27964(13) 0.49341(16) 0.02014(8)
H42 H 0.3079 0.5197 0.0162
C47 C 0.23247(13) 0.49359(15) -0.00127(8)
C48 C 0.22566(12) 0.53251(15) -0.02942(8)
C49 C 0.17840(13) 0.52942(15) -0.04957(8)
H43 H 0.1734 0.5544 -0.0685
C50 C 0.13794(13) 0.49069(15) -0.04285(9)
C51 C 0.14291(13) 0.45526(16) -0.01617(8)
H44 H 0.1142 0.4301 -0.0119
C52 C 0.19012(13) 0.45476(15) 0.00570(8)
O9 O 0.35407(14) 1.10074(18) 0.13319(10)
O10 O 0.31426(12) 1.17605(17) 0.16086(7)
O11 O 0.13387(9) 1.18515(10) 0.03625(5)
O12 O 0.14799(10) 1.08580(10) 0.01780(6)
O13 O 0.17484(15) 1.09789(19) 0.23610(7)
O14 O 0.15476(17) 0.99434(17) 0.23521(8)
O15 O -0.04946(10) 1.11242(11) 0.13200(6)
O16 O -0.00372(10) 1.20052(10) 0.12209(6)
O17 O -0.06105(10) 0.86681(11) 0.03910(7)
O18 O -0.01420(10) 0.73686(10) 0.04631(6)
N1 N -0.05662(13) 0.93055(13) 0.04842(9)
B5 B 0.3219(3) 1.1119(4) 0.15513(15)
B6 B 0.11800(17) 1.12296(19) 0.03399(9)
B7 B -0.01663(17) 1.1405(2) 0.11309(11)
B8 B 0.1851(3) 1.0406(3) 0.22612(13)
C53 C 0.2982(2) 0.8902(3) 0.16341(17)
C54 C 0.2813(2) 0.8333(2) 0.17274(14)
H45 H 0.2579 0.8265 0.1879
C55 C 0.30374(14) 0.78778(17) 0.15642(10)
O19 O 0.3346(2) 0.8165(2) 0.13700(17)
O20 O 0.2606(2) 0.6852(2) 0.14498(13)
N2 N 0.3312(2) 0.8798(3) 0.14132(17)
C56 C 0.3040(3) 0.7171(3) 0.1470(2)
H46 H 0.3167 0.7142 0.1260
H47 H 0.3302 0.6956 0.1629
C57 C 0.36028(19) 1.1610(3) 0.11742(14)
H48 H 0.3964 1.1671 0.1119
C58 C 0.34545(19) 1.2112(3) 0.14177(14)
H49 H 0.3770 1.2304 0.1548
C59 C 0.31141(16) 1.2606(2) 0.12036(12)
C60 C 0.28834(15) 1.22075(18) 0.09201(10)
C61 C 0.24300(14) 1.23189(16) 0.07077(9)
H50 H 0.2216 1.2675 0.0732
C62 C 0.22969(15) 1.18936(16) 0.04581(9)
C63 C 0.18134(15) 1.18845(16) 0.02121(9)
H51 H 0.1805 1.2247 0.0060
C64 C 0.18470(16) 1.12520(17) 0.00401(9)
H52 H 0.1742 1.1298 -0.0197
C65 C 0.24139(18) 1.10147(17) 0.01181(11)
C66 C 0.26163(16) 1.13800(16) 0.04181(10)
C67 C 0.30645(16) 1.1265(2) 0.06389(12)
H53 H 0.3280 1.0910 0.0617
C68 C 0.31870(16) 1.1686(2) 0.08926(12)
C69 C 0.27162(18) 1.2918(2) 0.13780(12)
H54 H 0.2504 1.3210 0.1233
H55 H 0.2896 1.3150 0.1563
H56 H 0.2488 1.2598 0.1452
C70 C 0.34940(19) 1.3106(2) 0.10973(15)
H57 H 0.3294 1.3414 0.0956
H58 H 0.3751 1.2899 0.0982
H59 H 0.3677 1.3320 0.1287
C71 C 0.2461(2) 1.03015(18) 0.01596(13)
H60 H 0.2265 1.0167 0.0331
H61 H 0.2832 1.0187 0.0217
H62 H 0.2317 1.0094 -0.0042
C72 C 0.2711(2) 1.1214(2) -0.01640(12)
H63 H 0.2595 1.0952 -0.0353
H64 H 0.3090 1.1159 -0.0099
H65 H 0.2636 1.1656 -0.0217
C73 C 0.1294(3) 1.0923(3) 0.25154(11)
H66 H 0.1341 1.1138 0.2729
C74 C 0.1202(3) 1.0210(3) 0.25477(13)
H67 H 0.1298 1.0072 0.2776
C75 C 0.0623(2) 1.0078(2) 0.24297(11)
C76 C 0.0449(2) 1.0661(2) 0.22303(10)
C77 C 0.0001(2) 1.0753(2) 0.20117(11)
H68 H -0.0246 1.0424 0.1962
C78 C -0.00784(19) 1.1333(2) 0.18664(10)
C79 C -0.04934(19) 1.15250(18) 0.15964(11)
H69 H -0.0848 1.1550 0.1666
C80 C -0.03066(18) 1.21768(18) 0.14857(10)
H70 H -0.0605 1.2472 0.1420
C81 C 0.0077(2) 1.2427(2) 0.17684(11)
C82 C 0.0272(2) 1.18415(19) 0.19502(11)
C83 C 0.0712(2) 1.1744(2) 0.21657(11)
H71 H 0.0950 1.2081 0.2223
C84 C 0.0815(2) 1.1151(3) 0.23035(10)
C85 C 0.0535(3) 0.9461(2) 0.22355(14)
H72 H 0.0159 0.9404 0.2163
H73 H 0.0667 0.9106 0.2372
H74 H 0.0723 0.9482 0.2049
C86 C 0.0304(3) 1.0063(3) 0.27172(13)
H75 H 0.0384 1.0440 0.2849
H76 H 0.0401 0.9689 0.2848
H77 H -0.0072 1.0052 0.2636
C87 C 0.0516(2) 1.2833(2) 0.16610(11)
H78 H 0.0741 1.2570 0.1547
H79 H 0.0726 1.3021 0.1850
H80 H 0.0359 1.3168 0.1518
C88 C -0.0250(3) 1.2841(2) 0.19784(14)
H81 H -0.0365 1.3226 0.1861
H82 H -0.0031 1.2951 0.2181
H83 H -0.0558 1.2604 0.2024
C89 C 0.2949(2) 1.0586(3) 0.17150(12)
C90 C 0.3034(2) 0.9980(3) 0.16518(12)
H84 H 0.3283 0.9881 0.1513
C91 C 0.2770(3) 0.9485(3) 0.17834(17)
C92 C 0.2411(3) 0.9624(3) 0.19738(15)
H85 H 0.2227 0.9293 0.2060
C93 C 0.2301(2) 1.0250(3) 0.20480(11)
C94 C 0.2582(2) 1.0733(2) 0.19158(11)
H86 H 0.2520 1.1160 0.1965
C95 C 0.07047(13) 1.09745(15) 0.04882(8)
C96 C 0.05197(13) 1.03681(15) 0.04071(7)
H87 H 0.0682 1.0129 0.0258
C97 C 0.01016(13) 1.01048(14) 0.05404(7)
C98 C -0.01311(13) 1.04494(15) 0.07633(7)
H88 H -0.0413 1.0272 0.0856
C99 C 0.00463(13) 1.10575(15) 0.08527(8)
C100 C 0.04572(13) 1.13087(15) 0.07092(8)
H89 H 0.0573 1.1724 0.0764
C101 C -0.00851(14) 0.94649(15) 0.04539(8)
C102 C 0.01899(14) 0.89561(15) 0.03396(7)
H90 H 0.0541 0.8955 0.0294
C103 C -0.01492(15) 0.84790(16) 0.03104(8)
C104 C -0.01403(16) 0.77988(16) 0.01989(9)
H91 H -0.0451 0.7718 0.0036
H92 H 0.0178 0.7727 0.0096
O21 O 0.51289(15) 0.2562(2) -0.07450(11)
O22 O 0.54293(13) 0.3134(2) -0.11468(10)
O23 O 0.31373(14) 0.22388(17) -0.19657(8)
O24 O 0.27209(14) 0.20943(16) -0.15214(9)
O25 O 0.52152(10) 0.55703(17) -0.12063(6)
O26 O 0.45998(11) 0.60310(15) -0.09338(6)
O27 O 0.29446(11) 0.53403(17) -0.21962(7)
O28 O 0.34278(12) 0.45187(15) -0.23472(7)
O29 O 0.42853(11) 0.40715(12) 0.04628(6)
O30 O 0.32928(9) 0.45176(13) 0.06945(6)
O31 O 0.10264(11) 0.47976(14) -0.13284(7)
O32 O 0.09089(9) 0.49097(11) -0.06422(6)
N3 N 0.45389(13) 0.39008(15) 0.02008(8)
N4 N 0.13682(16) 0.4726(2) -0.15549(9)
B9 B 0.5200(2) 0.3143(4) -0.08695(18)
B10 B 0.2813(2) 0.2498(3) -0.17644(16)
B11 B 0.48915(19) 0.5508(3) -0.09769(10)
B12 B 0.3028(2) 0.4701(3) -0.21868(12)
C105 C 0.5233(3) 0.2109(3) -0.09895(19)
H93 H 0.5444 0.1738 -0.0899
C106 C 0.5508(3) 0.2504(4) -0.12334(18)
H94 H 0.5893 0.2408 -0.1203
C107 C 0.5254(3) 0.2373(4) -0.16066(18)
C108 C 0.4719(2) 0.2087(3) -0.15265(16)
C109 C 0.4287(2) 0.1985(3) -0.17439(15)
H95 H 0.4280 0.2086 -0.1965
C110 C 0.3848(2) 0.1724(2) -0.16291(15)
C111 C 0.3320(2) 0.1648(3) -0.18186(14)
H96 H 0.3312 0.1302 -0.1980
C112 C 0.2980(2) 0.1506(2) -0.15658(15)
H97 H 0.2721 0.1167 -0.1638
C113 C 0.3341(3) 0.1318(3) -0.12599(18)
C114 C 0.3838(2) 0.1572(2) -0.13135(17)
C115 C 0.4298(3) 0.1665(2) -0.10847(16)
H98 H 0.4312 0.1555 -0.0865
C116 C 0.4726(2) 0.1928(3) -0.12054(18)
C117 C 0.5204(3) 0.2939(4) -0.18159(19)
H99 H 0.5008 0.3265 -0.1719
H100 H 0.5016 0.2828 -0.2028
H101 H 0.5554 0.3098 -0.1839
C118 C 0.5544(3) 0.1833(4) -0.1735(2)
H102 H 0.5337 0.1670 -0.1932
H103 H 0.5600 0.1499 -0.1574
H104 H 0.5885 0.1981 -0.1784
C119 C 0.3172(3) 0.1507(4) -0.09554(19)
H105 H 0.2833 0.1312 -0.0936
H106 H 0.3137 0.1965 -0.0950
H107 H 0.3434 0.1370 -0.0776
C120 C 0.3377(4) 0.0542(4) -0.1270(2)
H108 H 0.3395 0.0404 -0.1490
H109 H 0.3064 0.0361 -0.1197
H110 H 0.3691 0.0402 -0.1129
C121 C 0.50684(18) 0.6164(3) -0.13639(10)
H111 H 0.5381 0.6403 -0.1414
C122 C 0.47651(18) 0.6528(2) -0.11375(10)
H112 H 0.4987 0.6852 -0.1011
C123 C 0.4282(2) 0.6821(2) -0.13489(10)
C124 C 0.42213(19) 0.6387(2) -0.16331(9)
C125 C 0.37689(18) 0.6295(2) -0.18585(10)
H113 H 0.3453 0.6518 -0.1845
C126 C 0.38051(18) 0.5862(2) -0.21020(9)
C127 C 0.33661(19) 0.5613(2) -0.23529(10)
H114 H 0.3233 0.5939 -0.2516
C128 C 0.3611(2) 0.5048(3) -0.25033(10)
H115 H 0.3491 0.5030 -0.2740
C129 C 0.42141(19) 0.5147(2) -0.24336(9)
C130 C 0.42669(19) 0.5551(2) -0.21323(9)
C131 C 0.47138(17) 0.5644(2) -0.19038(9)
H116 H 0.5032 0.5427 -0.1919
C132 C 0.46772(17) 0.6062(2) -0.16546(9)
C133 C 0.3793(2) 0.6873(2) -0.11855(11)
H117 H 0.3505 0.7051 -0.1337
H118 H 0.3865 0.7147 -0.0997
H119 H 0.3693 0.6454 -0.1118
C134 C 0.4433(3) 0.7500(2) -0.14545(13)
H120 H 0.4761 0.7480 -0.1548
H121 H 0.4481 0.7778 -0.1267
H122 H 0.4152 0.7665 -0.1615
C135 C 0.4502(2) 0.4525(3) -0.23887(13)
H123 H 0.4450 0.4290 -0.2591
H124 H 0.4365 0.4280 -0.2222
H125 H 0.4878 0.4602 -0.2324
C136 C 0.4403(2) 0.5523(3) -0.27049(10)
H126 H 0.4768 0.5653 -0.2640
H127 H 0.4181 0.5896 -0.2751
H128 H 0.4380 0.5261 -0.2898
C137 C 0.50364(15) 0.3763(3) -0.07231(11)
C138 C 0.48227(14) 0.3771(2) -0.04364(10)
H129 H 0.4811 0.3395 -0.0316
C139 C 0.46245(13) 0.43331(19) -0.03225(9)
C140 C 0.46431(13) 0.48830(19) -0.04983(8)
H130 H 0.4503 0.5259 -0.0423
C141 C 0.48629(14) 0.4897(2) -0.07847(9)
C142 C 0.50525(15) 0.4328(3) -0.08898(10)
H131 H 0.5200 0.4326 -0.1085
C143 C 0.26195(19) 0.3171(2) -0.17990(11)
C144 C 0.22344(19) 0.3401(2) -0.16294(11)
H132 H 0.2070 0.3121 -0.1499
C145 C 0.20807(18) 0.4030(2) -0.16442(11)
C146 C 0.23298(17) 0.4448(2) -0.18257(10)
H133 H 0.2234 0.4879 -0.1831
C147 C 0.27180(19) 0.4244(3) -0.19998(11)
C148 C 0.2852(2) 0.3597(3) -0.19854(11)
H134 H 0.3111 0.3450 -0.2108
C149 C 0.44111(14) 0.43497(17) -0.00149(8)
C150 C 0.40907(13) 0.48051(17) 0.00949(8)
H135 H 0.3953 0.5172 -0.0015
C151 C 0.40182(14) 0.46139(18) 0.03885(8)
C152 C 0.37440(13) 0.48753(19) 0.06431(9)
H136 H 0.3991 0.4892 0.0846
H137 H 0.3633 0.5311 0.0585
C153 C 0.16690(17) 0.4245(2) -0.14534(11)
C154 C 0.15456(17) 0.39982(19) -0.11666(10)
H138 H 0.1710 0.3656 -0.1047
C155 C 0.11439(16) 0.43485(18) -0.10962(10)
C156 C 0.08281(14) 0.43571(17) -0.08269(9)
H139 H 0.0451 0.4322 -0.0915
H140 H 0.0923 0.3989 -0.0687
C157 C 0.2300(2) 0.3086(3) -0.04629(14)
C158 C 0.2414(2) 0.2729(3) -0.07209(16)
H141 H 0.2758 0.2736 -0.0778
C159 C 0.2026(3) 0.2363(2) -0.08948(13)
H142 H 0.2104 0.2119 -0.1071
C160 C 0.1523(2) 0.2353(3) -0.08108(14)
H143 H 0.1258 0.2103 -0.0930
C161 C 0.1409(2) 0.2710(3) -0.05528(16)
H144 H 0.1065 0.2704 -0.0495
C162 C 0.1797(3) 0.3077(3) -0.03789(13)
H145 H 0.1719 0.3321 -0.0203
C163 C 0.2796(3) 0.3389(4) -0.0277(2)
H146 H 0.2971 0.3088 -0.0121
H147 H 0.2698 0.3764 -0.0164
H148 H 0.3035 0.3510 -0.0428

#END
