
#######################################################################
#
#                 Cambridge Crystallographic Data Centre
#                                CCDC 
#
#######################################################################
#
# If this CIF has been generated from an entry in the Cambridge 
# Structural Database, then it will include bibliographic, chemical, 
# crystal, experimental, refinement or atomic coordinate data resulting 
# from the CCDC's data processing and validation procedures.
#
#######################################################################

data_CANHOR00
_symmetry_cell_setting           monoclinic
_symmetry_space_group_name_H-M   'C 2/c'
_symmetry_Int_Tables_number      15
_space_group_name_Hall           '-C 2yn'
loop_
_symmetry_equiv_pos_site_id
_symmetry_equiv_pos_as_xyz
1 x,y,z
2 -x,y,1/2-z
3 1/2+x,1/2+y,z
4 1/2-x,1/2+y,1/2-z
5 -x,-y,-z
6 x,-y,1/2+z
7 1/2-x,1/2-y,-z
8 1/2+x,1/2-y,1/2+z
_cell_length_a                   44.854(3)
_cell_length_b                   16.5714(6)
_cell_length_c                   41.878(2)
_cell_angle_alpha                90
_cell_angle_beta                 107.702(4)
_cell_angle_gamma                90
_cell_volume                     29653.8
loop_
_atom_site_label
_atom_site_type_symbol
_atom_site_fract_x
_atom_site_fract_y
_atom_site_fract_z
C1 C 0.0958(2) 0.4659(5) 0.34495(19)
C2 C 0.1009(2) 0.3161(5) 0.3591(2)
C3 C 0.09119(18) 0.3612(5) 0.29898(19)
C4 C 0.0819(2) 0.3792(4) 0.33224(18)
C5 C 0.0459(2) 0.3752(6) 0.3249(3)
H1 H 0.0359 0.4159 0.3081
H2 H 0.0383 0.3214 0.3164
H3 H 0.0406 0.3856 0.3456
C6 C 0.1226(2) 0.4481(5) 0.3764(2)
C7 C 0.1234(2) 0.3691(5) 0.3854(2)
C8 C 0.1447(2) 0.3403(6) 0.4147(2)
H4 H 0.1444 0.2857 0.4216
C9 C 0.1659(2) 0.3945(6) 0.4332(2)
C10 C 0.1661(2) 0.4745(6) 0.4245(2)
H5 H 0.1813 0.5100 0.4381
C11 C 0.1438(2) 0.5034(6) 0.3959(2)
H6 H 0.1432 0.5588 0.3898
N1 N 0.1851(2) 0.3617(6) 0.4650(2)
C12 C 0.1205(2) 0.2695(5) 0.3416(2)
C13 C 0.11627(19) 0.2965(5) 0.3096(2)
C14 C 0.13285(19) 0.2614(5) 0.2900(2)
H7 H 0.1286 0.2762 0.2671
C15 C 0.15514(19) 0.2059(5) 0.3040(2)
C16 C 0.1598(2) 0.1768(5) 0.3363(2)
H8 H 0.1747 0.1354 0.3452
C17 C 0.1423(2) 0.2099(5) 0.3553(2)
H9 H 0.1452 0.1918 0.3776
N2 N 0.17283(18) 0.1723(4) 0.28389(17)
C18 C 0.10567(19) 0.4390(5) 0.2927(2)
C19 C 0.1075(2) 0.4989(5) 0.3166(2)
C20 C 0.11971(19) 0.5743(5) 0.3144(2)
H10 H 0.1204 0.6143 0.3308
C21 C 0.13075(19) 0.5904(5) 0.2880(2)
C22 C 0.1295(2) 0.5314(5) 0.2640(2)
H11 H 0.1373 0.5430 0.2458
C23 C 0.11708(19) 0.4565(5) 0.2664(2)
H12 H 0.1164 0.4168 0.2498
N3 N 0.14331(18) 0.6679(4) 0.28470(16)
C24 C 0.0738(2) 0.5314(6) 0.3530(2)
H13 H 0.0841 0.5846 0.3540
H14 H 0.0542 0.5332 0.3340
C25 C 0.0653(3) 0.5213(8) 0.3838(3)
H15 H 0.0844 0.5120 0.4028
H16 H 0.0516 0.4734 0.3817
C26 C 0.0482(4) 0.5961(9) 0.3908(4)
H17 H 0.0427 0.5880 0.4115
H18 H 0.0618 0.6434 0.3933
H19 H 0.0290 0.6048 0.3721
C27 C 0.0819(2) 0.2550(6) 0.3741(3)
H20 H 0.0651 0.2314 0.3553
H21 H 0.0961 0.2105 0.3850
C28 C 0.0674(3) 0.2891(7) 0.3990(3)
H22 H 0.0481 0.3192 0.3870
H23 H 0.0821 0.3275 0.4139
C29 C 0.0593(3) 0.2231(8) 0.4199(3)
H24 H 0.0498 0.2470 0.4360
H25 H 0.0444 0.1856 0.4052
H26 H 0.0783 0.1939 0.4321
C30 C 0.0649(2) 0.3338(5) 0.2665(2)
H27 H 0.0467 0.3700 0.2636
H28 H 0.0728 0.3427 0.2471
C31 C 0.0533(2) 0.2490(6) 0.2647(2)
H29 H 0.0430 0.2402 0.2822
H30 H 0.0712 0.2113 0.2689
C32 C 0.0299(2) 0.2319(8) 0.2299(3)
H31 H 0.0225 0.1761 0.2290
H32 H 0.0121 0.2689 0.2258
H33 H 0.0402 0.2400 0.2126
C33 C 0.47254(18) 0.4247(5) 0.42331(17)
C34 C 0.46035(18) 0.5641(5) 0.44066(18)
C35 C 0.46262(18) 0.5403(5) 0.38146(17)
C36 C 0.47905(19) 0.5175(4) 0.41976(16)
C37 C 0.51432(19) 0.5389(6) 0.4321(2)
H34 H 0.5170 0.5969 0.4293
H35 H 0.5230 0.5245 0.4558
H36 H 0.5253 0.5088 0.4189
C38 C 0.45395(19) 0.4230(5) 0.44805(18)
C39 C 0.44852(19) 0.4981(5) 0.45916(19)
C40 C 0.4331(2) 0.5068(5) 0.4829(2)
H37 H 0.4304 0.5589 0.4911
C41 C 0.4217(2) 0.4399(6) 0.4946(2)
C42 C 0.4269(2) 0.3628(6) 0.4835(2)
H38 H 0.4194 0.3164 0.4919
C43 C 0.44305(19) 0.3546(5) 0.4605(2)
H39 H 0.4468 0.3024 0.4532
N4 N 0.40628(18) 0.4506(4) 0.51983(16)
C44 C 0.4339(2) 0.6050(5) 0.4148(2)
C45 C 0.43584(18) 0.5952(5) 0.38275(19)
C46 C 0.4143(2) 0.6349(5) 0.3564(2)
H40 H 0.4165 0.6327 0.3345
C47 C 0.3902(2) 0.6765(5) 0.3615(2)
C48 C 0.3873(2) 0.6843(5) 0.3941(2)
H41 H 0.3708 0.7149 0.3979
C49 C 0.4092(2) 0.6462(5) 0.4199(2)
H42 H 0.4072 0.6484 0.4418
N5 N 0.36969(18) 0.7209(4) 0.33444(15)
C50 C 0.4482(2) 0.4621(5) 0.36596(18)
C51 C 0.45319(19) 0.3984(5) 0.38837(18)
C52 C 0.43964(19) 0.3231(5) 0.37950(19)
H43 H 0.4433 0.2803 0.3953
C53 C 0.4207(2) 0.3126(5) 0.3471(2)
C54 C 0.4165(2) 0.3737(5) 0.3234(2)
H44 H 0.4040 0.3648 0.3009
C55 C 0.43079(19) 0.4472(5) 0.33268(19)
H45 H 0.4288 0.4882 0.3163
N6 N 0.40517(17) 0.2361(4) 0.33947(16)
C56 C 0.50200(19) 0.3686(5) 0.4365(2)
H46 H 0.5169 0.3960 0.4559
H47 H 0.4951 0.3186 0.4452
C57 C 0.5198(2) 0.3441(6) 0.4129(2)
H48 H 0.5242 0.3926 0.4013
H49 H 0.5067 0.3071 0.3957
C58 C 0.5507(2) 0.3022(6) 0.4315(3)
H50 H 0.5617 0.2870 0.4155
H51 H 0.5638 0.3390 0.4483
H52 H 0.5463 0.2536 0.4427
C59 C 0.4783(2) 0.6324(5) 0.4659(2)
H53 H 0.4661 0.6443 0.4815
H54 H 0.4987 0.6102 0.4795
C60 C 0.4843(3) 0.7109(5) 0.4508(2)
H55 H 0.5001 0.7018 0.4391
H56 H 0.4647 0.7287 0.4340
C61 C 0.4956(3) 0.7765(5) 0.4762(2)
H57 H 0.4990 0.8259 0.4649
H58 H 0.4798 0.7868 0.4876
H59 H 0.5152 0.7599 0.4927
C62 C 0.48256(19) 0.5798(6) 0.3608(2)
H60 H 0.4679 0.6029 0.3401
H61 H 0.4942 0.6256 0.3740
C63 C 0.5058(2) 0.5281(6) 0.3504(2)
H62 H 0.5227 0.5117 0.3707
H63 H 0.4951 0.4785 0.3395
C64 C 0.5199(3) 0.5702(7) 0.3268(3)
H64 H 0.5347 0.5340 0.3210
H65 H 0.5033 0.5855 0.3064
H66 H 0.5309 0.6187 0.3376
C65 C 0.2124(3) 0.3818(7) 0.4734(2)
H67 H 0.2205 0.4144 0.4593
C66 C 0.2333(2) 0.3534(7) 0.5073(2)
C67 C 0.2237(2) 0.3064(7) 0.5292(2)
C68 C 0.2439(2) 0.2898(8) 0.5611(2)
H68 H 0.2366 0.2597 0.5765
C69 C 0.2746(2) 0.3169(7) 0.5705(2)
H69 H 0.2883 0.3050 0.5922
C70 C 0.2851(2) 0.3614(6) 0.5481(2)
C71 C 0.2639(2) 0.3785(7) 0.5169(2)
H70 H 0.2709 0.4093 0.5015
O1 O 0.19363(18) 0.2790(7) 0.52257(17)
H71 H 0.1851 0.2767 0.5017
C72 C 0.2025(2) 0.1654(5) 0.2957(2)
H72 H 0.2124 0.1837 0.3179
C73 C 0.22174(19) 0.1313(5) 0.27697(19)
C74 C 0.2091(2) 0.0981(5) 0.24463(19)
C75 C 0.22872(19) 0.0662(5) 0.22858(19)
H73 H 0.2201 0.0465 0.2064
C76 C 0.2610(2) 0.0618(5) 0.24380(19)
H74 H 0.2741 0.0372 0.2325
C77 C 0.27384(18) 0.0941(5) 0.27604(19)
C78 C 0.25414(19) 0.1308(5) 0.2914(2)
H75 H 0.2630 0.1566 0.3124
O2 O 0.17776(13) 0.0977(4) 0.23016(13)
H76 H 0.1692 0.1244 0.2420
C79 C 0.1715(2) 0.6709(5) 0.28512(19)
H77 H 0.1840 0.6237 0.2909
C80 C 0.18580(19) 0.7452(5) 0.27691(18)
C81 C 0.1672(2) 0.8126(5) 0.26384(19)
C82 C 0.1808(2) 0.8781(6) 0.2527(2)
H78 H 0.1683 0.9230 0.2427
C83 C 0.2124(2) 0.8777(5) 0.2563(2)
H79 H 0.2214 0.9238 0.2494
C84 C 0.23152(18) 0.8116(5) 0.26965(19)
C85 C 0.21759(19) 0.7460(5) 0.28025(19)
H80 H 0.2301 0.7008 0.2900
O3 O 0.13585(14) 0.8150(4) 0.25917(15)
H81 H 0.1303 0.7724 0.2666
C86 C 0.3807(2) 0.4135(6) 0.5164(2)
H82 H 0.3723 0.3798 0.4975
C87 C 0.3640(2) 0.4221(5) 0.54141(19)
C88 C 0.3759(2) 0.4673(6) 0.5705(2)
C89 C 0.3596(2) 0.4739(6) 0.5939(2)
H83 H 0.3686 0.5006 0.6146
C90 C 0.3299(2) 0.4403(5) 0.5860(2)
H84 H 0.3179 0.4479 0.6010
C91 C 0.3173(2) 0.3961(5) 0.5569(2)
C92 C 0.3344(2) 0.3880(5) 0.5343(2)
H85 H 0.3259 0.3590 0.5140
O4 O 0.40489(16) 0.5030(4) 0.57810(14)
H86 H 0.4139 0.4882 0.5642
C93 C 0.3407(2) 0.7252(5) 0.3309(2)
H87 H 0.3326 0.6975 0.3463
C94 C 0.3191(2) 0.7718(5) 0.3035(2)
C95 C 0.3297(2) 0.8098(5) 0.2794(2)
C96 C 0.3088(2) 0.8502(5) 0.2527(2)
H88 H 0.3163 0.8787 0.2369
C97 C 0.2776(2) 0.8483(5) 0.2494(2)
H89 H 0.2634 0.8732 0.2303
C98 C 0.26579(19) 0.8115(5) 0.2728(2)
C99 C 0.28733(19) 0.7732(5) 0.29953(19)
H90 H 0.2799 0.7469 0.3158
O5 O 0.36073(14) 0.8138(4) 0.28285(14)
H91 H 0.3703 0.7778 0.2962
C100 C 0.3764(2) 0.2333(5) 0.3240(2)
H92 H 0.3654 0.2826 0.3176
C101 C 0.35906(19) 0.1583(5) 0.31550(19)
C102 C 0.3731(2) 0.0839(6) 0.3264(2)
C103 C 0.3556(2) 0.0144(6) 0.3185(2)
H93 H 0.3655 -0.0366 0.3238
C104 C 0.3238(2) 0.0181(5) 0.3031(2)
H94 H 0.3118 -0.0302 0.2998
C105 C 0.30885(18) 0.0912(5) 0.29214(19)
C106 C 0.32673(19) 0.1605(5) 0.29986(18)
H95 H 0.3167 0.2114 0.2944
O6 O 0.40422(14) 0.0784(4) 0.34283(16)
H96 H 0.4117 0.1250 0.3476

#END
