
#######################################################################
#
#                 Cambridge Crystallographic Data Centre
#                                CCDC 
#
#######################################################################
#
# If this CIF has been generated from an entry in the Cambridge 
# Structural Database, then it will include bibliographic, chemical, 
# crystal, experimental, refinement or atomic coordinate data resulting 
# from the CCDC's data processing and validation procedures.
#
#######################################################################

data_IFOLUM
_symmetry_cell_setting           triclinic
_symmetry_space_group_name_H-M   'P -1'
_symmetry_Int_Tables_number      2
_space_group_name_Hall           '-P 1'
loop_
_symmetry_equiv_pos_site_id
_symmetry_equiv_pos_as_xyz
1 x,y,z
2 -x,-y,-z
_cell_length_a                   17.939(4)
_cell_length_b                   20.419(4)
_cell_length_c                   21.475(4)
_cell_angle_alpha                65.46(3)
_cell_angle_beta                 81.08(3)
_cell_angle_gamma                79.92(3)
_cell_volume                     7015.37
loop_
_atom_site_label
_atom_site_type_symbol
_atom_site_fract_x
_atom_site_fract_y
_atom_site_fract_z
C70 C 0.4066(5) -0.1800(5) 0.7769(4)
C71 C 0.4743(6) -0.1375(5) 1.2189(4)
H67 H 0.4679 -0.1865 1.2384
C72 C 0.3311(6) -0.3454(5) 0.9266(5)
H68 H 0.280(3) -0.3428(16) 0.956(3)
H69 H 0.376(4) -0.353(2) 0.955(3)
H70 H 0.335(4) -0.389(3) 0.9122(9)
C73 C 0.5306(5) -0.1131(4) 1.1646(4)
C74 C -0.0480(5) -0.0234(5) 1.2271(4)
H71 H -0.072(2) -0.0132(11) 1.267(4)
C75 C 0.5362(6) -0.0386(5) 1.1365(5)
H72 H 0.579(4) -0.017(2) 1.096(4)
C76 C 0.4793(5) -0.1493(5) 0.7512(5)
H73 H 0.517(3) -0.173(3) 0.790(2)
H74 H 0.4697(8) -0.093(3) 0.737(3)
H75 H 0.503(2) -0.160(3) 0.708(3)
C77 C 0.3293(6) 0.1322(4) 0.7088(4)
H76 H 0.358(5) 0.108(4) 0.723(2)
C78 C 0.2420(5) 0.1735(5) 1.2090(4)
C79 C 0.0309(7) -0.1909(6) 0.9906(5)
H77 H 0.0159(8) -0.1813(6) 0.9464(11)
C80 C 0.2413(6) 0.3276(4) 0.7563(4)
C81 C 0.4765(5) -0.2926(5) 0.8620(4)
H78 H 0.4715(6) -0.343(3) 0.8757(10)
H79 H 0.517(3) -0.2805(9) 0.825(2)
C82 C 0.3421(5) -0.0734(4) 0.6834(4)
H80 H 0.383(3) -0.0779(5) 0.659(2)
H81 H 0.305(3) -0.0676(6) 0.6607(18)
C83 C 0.0232(6) 0.2708(5) 1.1305(5)
H82 H 0.0292(10) 0.285(4) 1.083(3)
H83 H 0.004(2) 0.312(4) 1.141(3)
H84 H -0.011(3) 0.236(3) 1.150(3)
C84 C -0.0018(6) -0.1830(5) 1.1004(5)
C85 C 0.1525(11) -0.2443(9) 0.9556(7)
H85 H 0.2039(16) -0.2581(9) 0.9674(8)
C86 C 0.2373(5) 0.2375(5) 1.1492(4)
C87 C -0.0198(8) -0.1676(6) 1.0362(5)
H86 H -0.069(7) -0.140(4) 1.022(2)
C88 C 0.4034(5) -0.2483(4) 0.8337(4)
C89 C 0.0332(6) 0.1441(5) 1.2624(5)
H87 H 0.0412(8) 0.1272(13) 1.304(3)
H88 H -0.002(3) 0.179(3) 1.2561(6)
C90 C 0.3341(5) -0.2739(5) 0.8614(4)
C91 C 0.1652(6) 0.2705(4) 1.1232(4)
C92 C 0.0693(11) -0.2191(9) 1.1161(7)
H89 H 0.081(3) -0.227(2) 1.150(9)
C93 C 0.3097(6) 0.2719(5) 1.1105(5)
H90 H 0.352(3) 0.237(2) 1.122(3)
H91 H 0.315(2) 0.310(3) 1.122(3)
H92 H 0.3064(18) 0.290(3) 1.064(3)
C94 C 0.0968(10) -0.2247(7) 1.0068(6)
C95 C 0.1191(14) -0.2403(13) 1.0710(8)
H93 H 0.176(14) -0.269(7) 1.085(4)
C96 C 0.0306(5) 0.0766(4) 1.1962(4)
H94 H 0.068(4) 0.107(3) 1.163(3)
C97 C 0.2694(5) -0.1679(4) 0.7751(4)
C98 C 0.4339(5) -0.0174(4) 1.2143(4)
C99 C 0.2577(6) 0.2501(5) 0.6854(4)
C100 C -0.0548(7) -0.1589(5) 1.1500(5)
H95 H -0.0568(7) -0.201(3) 1.197(3)
H96 H -0.108(4) -0.1458(10) 1.1339(12)
C101 C 0.2073(6) 0.2325(5) 0.6536(5)
H97 H 0.175(5) 0.259(4) 0.639(2)
C102 C 0.0383(6) 0.0064(5) 1.1244(5)
H98 H 0.069(4) 0.031(3) 1.098(4)
C103 C 0.2484(6) 0.3261(5) 0.6845(4)
H99 H 0.202(3) 0.355(2) 0.6610(17)
H100 H 0.293(3) 0.3510(18) 0.657(2)
C104 C 0.1048(5) 0.1748(4) 1.2198(4)
C105 C 0.3177(5) 0.1433(5) 1.2396(4)
C106 C 0.4628(5) -0.1538(4) 0.9992(4)
H101 H 0.420(4) -0.121(3) 0.972(3)
C107 C 0.1834(5) 0.0668(4) 1.3019(4)
H102 H 0.140(3) 0.047(2) 1.310(2)
H103 H 0.193(4) 0.0714(6) 1.339(2)
H104 H 0.222(3) 0.038(2) 1.2909(16)
C108 C 0.3840(5) 0.0312(4) 1.2420(4)
H105 H 0.3617(19) 0.0094(18) 1.296(4)
C109 C 0.2669(5) -0.2362(4) 0.8323(4)
C110 C 0.2178(6) 0.1655(5) 0.6486(4)
H106 H 0.179(4) 0.1535(12) 0.624(2)
C111 C 0.4282(6) -0.0912(5) 1.2442(5)
H107 H 0.393(4) -0.109(2) 1.281(4)
C112 C 0.2093(6) 0.3524(5) 0.9467(5)
H108 H 0.243(3) 0.389(4) 0.9508(6)
C113 C 0.2703(5) 0.3797(4) 0.8302(4)
H109 H 0.300(3) 0.413(3) 0.8370(8)
N7 N 0.1435(5) -0.2451(7) 0.9081(5)
N8 N 0.1638(5) 0.3209(4) 0.9982(4)
N9 N 0.3659(4) 0.0984(4) 1.2050(3)
N10 N 0.3400(4) -0.0082(4) 0.6975(3)
N11 N 0.5006(4) -0.2843(4) 0.9208(4)
N12 N 0.0050(4) 0.0875(4) 1.2502(3)
C114 C 0.4874(5) 0.0070(4) 1.1604(4)
H110 H 0.4899(6) 0.043(5) 1.145(2)
C115 C 0.2806(5) 0.1137(4) 0.6762(4)
C116 C 0.5803(6) -0.1637(5) 1.1383(5)
H111 H 0.5930(12) -0.208(3) 1.176(3)
H112 H 0.626(4) -0.1434(15) 1.1171(16)
C117 C 0.4691(5) -0.2314(4) 0.9359(4)
H113 H 0.417(4) -0.192(3) 0.905(2)
C118 C 0.2895(5) 0.0442(4) 0.6694(4)
H114 H 0.255(3) 0.0378(8) 0.642(3)
C119 C 0.0052(5) 0.0197(4) 1.1818(4)
C120 C 0.1782(6) 0.2971(5) 0.8701(5)
H115 H 0.149(4) 0.276(3) 0.898(4)
C121 C 0.0169(5) -0.0498(5) 1.1131(4)
H116 H 0.038(2) -0.0573(9) 1.072(4)
C122 C 0.2191(5) 0.3425(4) 0.8826(4)
C123 C -0.0340(5) -0.0952(4) 1.1588(4)
C124 C -0.0669(6) -0.0808(5) 1.2163(5)
H117 H -0.102(4) -0.110(3) 1.248(4)
C125 C 0.3382(5) -0.1424(4) 0.7479(4)
C126 C 0.5515(6) -0.2621(5) 1.0304(4)
H118 H 0.572(2) -0.303(5) 1.0245(8)
C127 C 0.1928(6) -0.2675(6) 0.8581(5)
H119 H 0.166(2) -0.2556(10) 0.821(3)
H120 H 0.2035(9) -0.318(4) 0.8776(14)
C128 C 0.1947(5) -0.1265(5) 0.7474(4)
H121 H 0.155(2) -0.141(3) 0.782(2)
H122 H 0.1865(19) -0.136(3) 0.710(3)
H123 H 0.1965(14) -0.077(3) 0.733(3)
C129 C 0.4914(6) -0.1375(5) 1.0482(4)
H124 H 0.471(2) -0.094(5) 1.0541(7)
C130 C 0.1905(6) 0.2901(5) 0.8079(5)
H125 H 0.158(3) 0.253(4) 0.7995(9)
C131 C 0.3198(7) 0.1984(5) 0.7119(5)
H126 H 0.359(4) 0.2106(14) 0.734(2)
C132 C 0.5776(6) -0.2465(5) 1.0792(4)
H127 H 0.619(4) -0.282(4) 1.110(3)
C133 C 0.1598(6) 0.3381(5) 1.0587(5)
H128 H 0.112(3) 0.368(2) 1.0620(5)
H129 H 0.201(3) 0.366(2) 1.0535(6)
C134 C 0.1760(5) 0.1415(4) 1.2424(4)
C135 C 0.4944(5) -0.2163(4) 0.9899(4)
C136 C 0.2809(6) 0.3718(4) 0.7685(5)
H130 H 0.320(4) 0.400(3) 0.730(4)
C137 C 0.5474(5) -0.1815(5) 1.0870(4)
C138 C 0.0996(5) 0.2383(5) 1.1594(4)

#END
