
#######################################################################
#
#                 Cambridge Crystallographic Data Centre
#                                CCDC 
#
#######################################################################
#
# If this CIF has been generated from an entry in the Cambridge 
# Structural Database, then it will include bibliographic, chemical, 
# crystal, experimental, refinement or atomic coordinate data resulting 
# from the CCDC's data processing and validation procedures.
#
#######################################################################

data_OVENIO
_symmetry_cell_setting           tetragonal
_symmetry_space_group_name_H-M   'P 41'
_symmetry_Int_Tables_number      76
_space_group_name_Hall           'P 4w'
loop_
_symmetry_equiv_pos_site_id
_symmetry_equiv_pos_as_xyz
1 x,y,z
2 -y,x,1/4+z
3 -x,-y,1/2+z
4 y,-x,3/4+z
_cell_length_a                   20.2276(15)
_cell_length_b                   20.2276(15)
_cell_length_c                   32.016(3)
_cell_angle_alpha                90
_cell_angle_beta                 90
_cell_angle_gamma                90
_cell_volume                     13099.5
loop_
_atom_site_label
_atom_site_type_symbol
_atom_site_fract_x
_atom_site_fract_y
_atom_site_fract_z
N1 N 0.4790(5) 0.7415(5) 0.5784(3)
H1 H 0.4523 0.7087 0.5688
H2 H 0.4691 0.7789 0.5639
N2 N 0.4745(5) 0.8745(5) 0.6327(4)
H3 H 0.4300 0.8747 0.6370
H4 H 0.4819 0.8827 0.6052
N3 N 0.7210(6) 0.6648(6) 0.7385(4)
H5 H 0.7004 0.6605 0.7637
H6 H 0.6892 0.6669 0.7184
N4 N 0.7544(5) 0.8465(4) 0.7375(3)
H7 H 0.7804 0.8491 0.7606
H8 H 0.7815 0.8404 0.7151
N5 N 0.8761(5) 1.0264(5) 0.5240(3)
H9 H 0.8808 1.0183 0.5518
H10 H 0.8791 1.0709 0.5201
N6 N 0.7370(4) 1.0235(5) 0.5719(3)
H11 H 0.7031 1.0492 0.5811
H12 H 0.7732 1.0330 0.5876
N7 N 1.0095(5) 0.7626(5) 0.5924(3)
H13 H 1.0371 0.7951 0.5833
H14 H 1.0181 0.7260 0.5768
N8 N 1.0146(4) 0.6253(5) 0.6447(3)
H15 H 1.0581 0.6258 0.6519
H16 H 1.0123 0.6185 0.6166
N9 N 0.7580(4) 0.4904(5) 0.5676(3)
H17 H 0.7895 0.4626 0.5777
H18 H 0.7193 0.4811 0.5809
N10 N 0.6254(5) 0.4880(5) 0.5118(4)
H19 H 0.6144 0.4951 0.5390
H20 H 0.6269 0.4436 0.5074
N11 N 0.8438(6) 0.7408(5) 0.4229(4)
H21 H 0.8461 0.7169 0.3989
H22 H 0.8393 0.7116 0.4444
N12 N 0.6641(5) 0.7727(6) 0.4144(3)
H23 H 0.6663 0.7980 0.3910
H24 H 0.6666 0.8005 0.4367
C1 C 0.9079(7) 0.5712(6) 0.6642(5)
C2 C 0.8767(7) 0.5591(6) 0.6257(6)
H25 H 0.9026 0.5448 0.6026
C3 C 0.8084(6) 0.5676(5) 0.6204(4)
C4 C 0.7688(6) 0.5832(5) 0.6551(4)
H26 H 0.7224 0.5884 0.6519
C5 C 0.7985(5) 0.5912(5) 0.6946(4)
C6 C 0.8669(5) 0.5856(6) 0.6980(4)
H27 H 0.8867 0.5920 0.7246
C7 C 0.9811(6) 0.5670(7) 0.6669(5)
H28 H 0.9961 0.5251 0.6539
H29 H 0.9946 0.5665 0.6966
C8 C 0.7779(6) 0.5616(6) 0.5769(4)
H30 H 0.7385 0.5904 0.5750
H31 H 0.8102 0.5767 0.5557
C9 C 0.7613(7) 0.6083(7) 0.7314(5)
H32 H 0.7321 0.5699 0.7366
H33 H 0.7939 0.6084 0.7545
C10 C 0.6817(6) 0.9418(5) 0.6195(4)
C11 C 0.7178(8) 0.9294(6) 0.6554(4)
H34 H 0.7647 0.9284 0.6543
C12 C 0.6850(7) 0.9182(5) 0.6929(4)
C13 C 0.6132(6) 0.9174(6) 0.6947(4)
H35 H 0.5904 0.9092 0.7201
C14 C 0.5799(7) 0.9288(6) 0.6582(4)
C15 C 0.6135(7) 0.9426(6) 0.6202(4)
H36 H 0.5892 0.9522 0.5955
C16 C 0.7184(8) 0.9500(6) 0.5784(4)
H37 H 0.6901 0.9348 0.5551
H38 H 0.7589 0.9226 0.5787
C17 C 0.7201(6) 0.9086(6) 0.7324(4)
H39 H 0.7527 0.9448 0.7355
H40 H 0.6878 0.9129 0.7555
C18 C 0.5056(6) 0.9280(6) 0.6583(5)
H41 H 0.4903 0.9233 0.6876
H42 H 0.4896 0.9713 0.6479
C19 C 0.5581(5) 0.6911(6) 0.5275(4)
C20 C 0.5580(6) 0.6241(6) 0.5239(4)
H43 H 0.5483 0.5975 0.5476
C21 C 0.5720(5) 0.5945(6) 0.4864(4)
C22 C 0.5873(5) 0.6331(6) 0.4517(4)
H44 H 0.5979 0.6126 0.4259
C23 C 0.5873(5) 0.6993(5) 0.4548(3)
C24 C 0.5728(5) 0.7304(5) 0.4929(3)
H45 H 0.5730 0.7773 0.4951
C25 C 0.5471(6) 0.7238(6) 0.5701(3)
H46 H 0.5624 0.6932 0.5922
H47 H 0.5746 0.7641 0.5717
C26 C 0.5726(6) 0.5194(6) 0.4831(4)
H48 H 0.5816 0.5065 0.4538
H49 H 0.5285 0.5020 0.4907
C27 C 0.5972(6) 0.7390(6) 0.4153(3)
H50 H 0.5620 0.7729 0.4132
H51 H 0.5933 0.7094 0.3908
C28 C 0.9331(6) 0.8153(6) 0.5432(4)
C29 C 0.9354(6) 0.8871(7) 0.5398(4)
H52 H 0.9437 0.9122 0.5643
C30 C 0.9264(5) 0.9194(6) 0.5036(4)
C31 C 0.9168(5) 0.8826(5) 0.4671(4)
H53 H 0.9122 0.9048 0.4411
C32 C 0.9138(5) 0.8136(5) 0.4683(4)
C33 C 0.9220(5) 0.7820(6) 0.5057(4)
H54 H 0.9201 0.7351 0.5062
C34 C 0.9419(6) 0.7832(8) 0.5840(4)
H55 H 0.9277 0.8142 0.6062
H56 H 0.9128 0.7440 0.5854
C35 C 0.9310(8) 0.9933(6) 0.5009(6)
H57 H 0.9738 1.0079 0.5127
H58 H 0.9296 1.0069 0.4712
C36 C 0.9054(7) 0.7752(7) 0.4282(4)
H59 H 0.9107 0.8063 0.4046
H60 H 0.9417 0.7425 0.4263
C37 C 0.7866(7) 0.7803(8) 0.4214(5)
H61 H 0.7896 0.8117 0.3977
H62 H 0.7822 0.8061 0.4475
C38 C 0.7207(7) 0.7308(9) 0.4152(6)
H63 H 0.7242 0.7056 0.3888
H64 H 0.7175 0.6990 0.4387
C39 C 0.5015(6) 0.8078(6) 0.6435(3)
H65 H 0.5482 0.8054 0.6345
H66 H 0.5003 0.8022 0.6742
C40 C 0.4639(6) 0.7529(6) 0.6237(4)
H67 H 0.4161 0.7623 0.6265
H68 H 0.4732 0.7117 0.6392
C41 C 0.7499(7) 0.4791(6) 0.5217(4)
H69 H 0.7420 0.4314 0.5167
H70 H 0.7914 0.4914 0.5073
C42 C 0.6933(6) 0.5183(8) 0.5028(4)
H71 H 0.6997 0.5210 0.4722
H72 H 0.6944 0.5639 0.5141
C43 C 0.7099(9) 0.7872(8) 0.7415(6)
H73 H 0.6768 0.7860 0.7188
H74 H 0.6867 0.7872 0.7688
C44 C 0.7594(9) 0.7272(9) 0.7382(7)
H75 H 0.7854 0.7305 0.7121
H76 H 0.7906 0.7279 0.7621
C45 C 1.0265(6) 0.7475(6) 0.6368(4)
H77 H 1.0186 0.7873 0.6541
H78 H 1.0740 0.7363 0.6387
C46 C 0.9860(6) 0.6904(7) 0.6542(3)
H79 H 0.9824 0.6954 0.6848
H80 H 0.9408 0.6925 0.6424
C47 C 0.8095(6) 1.0036(8) 0.5103(4)
H81 H 0.8050 0.9563 0.5177
H82 H 0.8075 1.0067 0.4794
C48 C 0.7512(7) 1.0404(8) 0.5280(4)
H83 H 0.7598 1.0885 0.5261
H84 H 0.7117 1.0306 0.5109

#END
