
#######################################################################
#
#                 Cambridge Crystallographic Data Centre
#                                CCDC 
#
#######################################################################
#
# If this CIF has been generated from an entry in the Cambridge 
# Structural Database, then it will include bibliographic, chemical, 
# crystal, experimental, refinement or atomic coordinate data resulting 
# from the CCDC's data processing and validation procedures.
#
#######################################################################

data_OVENOU
_symmetry_cell_setting           orthorhombic
_symmetry_space_group_name_H-M   'F d d 2'
_symmetry_Int_Tables_number      43
_space_group_name_Hall           'F 2 -2d'
loop_
_symmetry_equiv_pos_site_id
_symmetry_equiv_pos_as_xyz
1 x,y,z
2 -x,-y,z
3 1/4-x,1/4+y,1/4+z
4 1/4+x,1/4-y,1/4+z
5 x,1/2+y,1/2+z
6 -x,1/2-y,1/2+z
7 1/4-x,3/4+y,3/4+z
8 1/4+x,3/4-y,3/4+z
9 1/2+x,y,1/2+z
10 1/2-x,-y,1/2+z
11 3/4-x,1/4+y,3/4+z
12 3/4+x,1/4-y,3/4+z
13 1/2+x,1/2+y,z
14 1/2-x,1/2-y,z
15 3/4-x,3/4+y,1/4+z
16 3/4+x,3/4-y,1/4+z
_cell_length_a                   32.757(2)
_cell_length_b                   34.249(2)
_cell_length_c                   31.088(2)
_cell_angle_alpha                90
_cell_angle_beta                 90
_cell_angle_gamma                90
_cell_volume                     34877.5
loop_
_atom_site_label
_atom_site_type_symbol
_atom_site_fract_x
_atom_site_fract_y
_atom_site_fract_z
N1 N 0.17155(11) 0.48656(10) 0.40720(11)
H1 H 0.1899 0.4883 0.4291
H2 H 0.1463 0.4843 0.4190
N2 N 0.23171(11) 0.41143(10) 0.34467(13)
H3 H 0.2164 0.4140 0.3204
H4 H 0.2224 0.3902 0.3593
N3 N 0.07868(13) 0.58388(11) 0.52441(12)
H5 H 0.0898 0.6055 0.5369
H6 H 0.0541 0.5793 0.5371
N4 N 0.12177(11) 0.49375(10) 0.57580(12)
H7 H 0.1228 0.4809 0.5502
H8 H 0.1475 0.5021 0.5822
N5 N 0.23783(12) 0.65679(11) 0.46203(12)
H9 H 0.2524 0.6354 0.4539
H10 H 0.2540 0.6781 0.4579
N6 N 0.26096(11) 0.65609(10) 0.58019(11)
H11 H 0.2502 0.6326 0.5880
H12 H 0.2423 0.6749 0.5866
N7 N 0.41626(12) 0.58657(10) 0.50086(12)
H13 H 0.4024 0.6068 0.4887
H14 H 0.4401 0.5836 0.4862
N8 N 0.36751(14) 0.49973(12) 0.44543(13)
H15 H 0.3645 0.4884 0.4717
H16 H 0.3422 0.5064 0.4358
N9 N 0.30999(11) 0.50566(10) 0.64607(11)
H17 H 0.3170 0.4958 0.6199
H18 H 0.2864 0.5194 0.6428
N10 N 0.26215(14) 0.41577(12) 0.69314(14)
H19 H 0.2713 0.3909 0.6891
H20 H 0.2737 0.4242 0.7181
N11 N 0.30962(12) 0.34867(10) 0.50579(11)
H21 H 0.3158 0.3302 0.5258
H22 H 0.3168 0.3723 0.5168
N12 N 0.19785(13) 0.34393(11) 0.53144(13)
H23 H 0.1937 0.3236 0.5131
H24 H 0.1896 0.3661 0.5179
C1 C 0.16118(14) 0.55813(12) 0.40801(13)
C2 C 0.18697(14) 0.59067(12) 0.40994(13)
H25 H 0.2125 0.5903 0.3955
C3 C 0.17497(15) 0.62392(12) 0.43325(13)
C4 C 0.13786(15) 0.62385(12) 0.45506(13)
H26 H 0.1299 0.6461 0.4712
C5 C 0.11208(14) 0.59123(13) 0.45344(13)
C6 C 0.12380(14) 0.55903(12) 0.42929(14)
H27 H 0.1060 0.5372 0.4272
C7 C 0.17324(14) 0.52332(12) 0.38113(13)
H28 H 0.1545 0.5210 0.3562
H29 H 0.2013 0.5271 0.3700
C8 C 0.20082(15) 0.66025(12) 0.43327(14)
H30 H 0.1840 0.6826 0.4430
H31 H 0.2099 0.6657 0.4035
C9 C 0.07239(15) 0.59131(15) 0.47732(14)
H32 H 0.0543 0.5709 0.4653
H33 H 0.0588 0.6169 0.4734
C10 C 0.30396(13) 0.40414(12) 0.36984(14)
C11 C 0.30500(13) 0.37373(12) 0.39929(14)
H34 H 0.2871 0.3522 0.3957
C12 C 0.33184(13) 0.37427(11) 0.43396(14)
C13 C 0.35846(13) 0.40596(12) 0.43907(13)
H35 H 0.3771 0.4064 0.4624
C14 C 0.35752(13) 0.43670(11) 0.40999(14)
C15 C 0.33032(13) 0.43574(12) 0.37546(14)
H36 H 0.3297 0.4568 0.3556
C16 C 0.27547(13) 0.40427(13) 0.33183(15)
H37 H 0.2774 0.3788 0.3169
H38 H 0.2842 0.4248 0.3114
C17 C 0.33441(14) 0.34107(12) 0.46600(15)
H39 H 0.3246 0.3168 0.4522
H40 H 0.3633 0.3371 0.4742
C18 C 0.38568(14) 0.47087(13) 0.41531(15)
H41 H 0.4123 0.4618 0.4267
H42 H 0.3905 0.4833 0.3870
C19 C 0.38887(12) 0.59724(11) 0.57532(12)
C20 C 0.38161(13) 0.56579(11) 0.60248(14)
H43 H 0.3996 0.5440 0.6020
C21 C 0.34864(14) 0.56576(11) 0.63012(13)
C22 C 0.32184(13) 0.59708(12) 0.63008(12)
H44 H 0.2989 0.5969 0.6487
C23 C 0.32835(13) 0.62877(11) 0.60293(12)
C24 C 0.36195(13) 0.62914(11) 0.57600(13)
H45 H 0.3668 0.6510 0.5579
C25 C 0.42584(13) 0.59678(12) 0.54674(15)
H46 H 0.4389 0.6228 0.5475
H47 H 0.4457 0.5776 0.5582
C26 C 0.34249(17) 0.53235(14) 0.66103(16)
H48 H 0.3684 0.5176 0.6640
H49 H 0.3351 0.5428 0.6897
C27 C 0.29902(14) 0.66329(12) 0.60563(14)
H50 H 0.2917 0.6680 0.6361
H51 H 0.3128 0.6870 0.5946
C28 C 0.19239(14) 0.40871(15) 0.66252(15)
C29 C 0.19501(13) 0.37613(13) 0.63564(14)
H52 H 0.2137 0.3558 0.6421
C30 C 0.17034(13) 0.37339(12) 0.59944(14)
C31 C 0.14171(13) 0.40275(12) 0.59093(14)
H53 H 0.1242 0.4006 0.5667
C32 C 0.13887(13) 0.43502(13) 0.61775(15)
C33 C 0.16471(14) 0.43808(14) 0.65317(15)
H54 H 0.1633 0.4605 0.6711
C34 C 0.21844(18) 0.4120(2) 0.70249(18)
H55 H 0.2094 0.4350 0.7193
H56 H 0.2141 0.3885 0.7205
C35 C 0.17185(14) 0.33784(12) 0.57114(15)
H57 H 0.1438 0.3309 0.5622
H58 H 0.1830 0.3156 0.5879
C36 C 0.10751(14) 0.46646(14) 0.60984(17)
H59 H 0.0814 0.4544 0.6009
H60 H 0.1026 0.4811 0.6368
C37 C 0.18049(13) 0.45086(12) 0.38151(15)
H61 H 0.1652 0.4520 0.3541
H62 H 0.1710 0.4276 0.3975
C38 C 0.22580(13) 0.44681(13) 0.37200(16)
H63 H 0.2358 0.4703 0.3567
H64 H 0.2413 0.4441 0.3992
C39 C 0.22845(14) 0.65358(13) 0.50842(14)
H65 H 0.2148 0.6284 0.5145
H66 H 0.2100 0.6750 0.5173
C40 C 0.26847(13) 0.65607(13) 0.53281(13)
H67 H 0.2859 0.6335 0.5251
H68 H 0.2831 0.6803 0.5246
C41 C 0.1061(2) 0.54975(17) 0.5316(2)
H69 H 0.1347 0.5589 0.5342
H70 H 0.1045 0.5319 0.5067
C42 C 0.09411(14) 0.52830(12) 0.57182(14)
H71 H 0.0971 0.5455 0.5972
H72 H 0.0653 0.5197 0.5699
C43 C 0.39144(15) 0.55000(13) 0.49595(15)
H73 H 0.4024 0.5295 0.5151
H74 H 0.3628 0.5552 0.5045
C44 C 0.39258(17) 0.53605(14) 0.45026(16)
H75 H 0.3818 0.5567 0.4310
H76 H 0.4212 0.5306 0.4418
C45 C 0.26502(14) 0.34829(13) 0.49800(14)
H77 H 0.2577 0.3252 0.4805
H78 H 0.2570 0.3720 0.4818
C46 C 0.24226(14) 0.34703(13) 0.54085(14)
H79 H 0.2514 0.3243 0.5580
H80 H 0.2479 0.3710 0.5576
C47 C 0.30299(16) 0.47300(13) 0.67634(15)
H81 H 0.3297 0.4642 0.6877
H82 H 0.2868 0.4828 0.7010
C48 C 0.2821(4) 0.4396(3) 0.6580(3)
H83 H 0.3018 0.4232 0.6421
H84 H 0.2610 0.4487 0.6375

#END
