
#######################################################################
#
#                 Cambridge Crystallographic Data Centre
#                                CCDC 
#
#######################################################################
#
# If this CIF has been generated from an entry in the Cambridge 
# Structural Database, then it will include bibliographic, chemical, 
# crystal, experimental, refinement or atomic coordinate data resulting 
# from the CCDC's data processing and validation procedures.
#
#######################################################################

data_OVENEK
_symmetry_cell_setting           orthorhombic
_symmetry_space_group_name_H-M   'F d d 2'
_symmetry_Int_Tables_number      43
_space_group_name_Hall           'F 2 -2d'
loop_
_symmetry_equiv_pos_site_id
_symmetry_equiv_pos_as_xyz
1 x,y,z
2 -x,-y,z
3 1/4-x,1/4+y,1/4+z
4 1/4+x,1/4-y,1/4+z
5 x,1/2+y,1/2+z
6 -x,1/2-y,1/2+z
7 1/4-x,3/4+y,3/4+z
8 1/4+x,3/4-y,3/4+z
9 1/2+x,y,1/2+z
10 1/2-x,-y,1/2+z
11 3/4-x,1/4+y,3/4+z
12 3/4+x,1/4-y,3/4+z
13 1/2+x,1/2+y,z
14 1/2-x,1/2-y,z
15 3/4-x,3/4+y,1/4+z
16 3/4+x,3/4-y,1/4+z
_cell_length_a                   32.848(6)
_cell_length_b                   34.298(6)
_cell_length_c                   31.413(5)
_cell_angle_alpha                90
_cell_angle_beta                 90
_cell_angle_gamma                90
_cell_volume                     35390.5
loop_
_atom_site_label
_atom_site_type_symbol
_atom_site_fract_x
_atom_site_fract_y
_atom_site_fract_z
N1 N 0.5782(3) 0.2623(3) 0.5932(3)
H1 H 0.6025 0.2647 0.5809
H2 H 0.5597 0.2607 0.5725
N2 N 0.5191(3) 0.3385(2) 0.6530(3)
H3 H 0.5280 0.3591 0.6385
H4 H 0.5341 0.3366 0.6765
N3 N 0.6715(3) 0.1669(3) 0.4754(3)
H5 H 0.6955 0.1717 0.4633
H6 H 0.6612 0.1456 0.4633
N4 N 0.6284(2) 0.2577(2) 0.4255(3)
H7 H 0.6035 0.2495 0.4188
H8 H 0.6269 0.2700 0.4504
N5 N 0.5137(3) 0.0929(3) 0.5380(3)
H9 H 0.4982 0.0721 0.5426
H10 H 0.4995 0.1138 0.5460
N6 N 0.4893(3) 0.0947(3) 0.4217(3)
H11 H 0.5080 0.0769 0.4153
H12 H 0.4992 0.1179 0.4145
N7 N 0.3345(3) 0.1636(3) 0.4993(3)
H13 H 0.3480 0.1438 0.5109
H14 H 0.3112 0.1663 0.5134
N8 N 0.3839(3) 0.2494(3) 0.5543(3)
H15 H 0.4079 0.2419 0.5647
H16 H 0.3882 0.2603 0.5290
N9 N 0.4399(3) 0.2442(2) 0.3542(2)
H17 H 0.4330 0.2534 0.3797
H18 H 0.4630 0.2309 0.3572
N10 N 0.4885(3) 0.3335(3) 0.3072(3)
H19 H 0.4776 0.3268 0.2824
H20 H 0.4799 0.3576 0.3124
N11 N 0.4407(2) 0.4016(2) 0.4943(3)
H21 H 0.4340 0.3784 0.4837
H22 H 0.4342 0.4195 0.4750
N12 N 0.5512(3) 0.4073(3) 0.4671(3)
H23 H 0.5599 0.3859 0.4804
H24 H 0.5551 0.4274 0.4845
C1 C 0.5895(3) 0.1907(3) 0.5920(3)
C2 C 0.5641(3) 0.1580(3) 0.5897(3)
H25 H 0.5392 0.1580 0.6039
C3 C 0.5762(3) 0.1253(3) 0.5661(3)
C4 C 0.6119(3) 0.1264(3) 0.5440(3)
H26 H 0.6196 0.1050 0.5277
C5 C 0.6375(3) 0.1595(3) 0.5455(3)
C6 C 0.6264(3) 0.1901(3) 0.5700(3)
H27 H 0.6439 0.2113 0.5723
C7 C 0.5774(3) 0.2248(3) 0.6185(3)
H28 H 0.5959 0.2271 0.6425
H29 H 0.5502 0.2206 0.6296
C8 C 0.5507(4) 0.0900(3) 0.5656(4)
H30 H 0.5421 0.0842 0.5945
H31 H 0.5671 0.0682 0.5558
C9 C 0.6776(4) 0.1597(4) 0.5214(3)
H32 H 0.6951 0.1797 0.5330
H33 H 0.6911 0.1347 0.5252
C10 C 0.4474(3) 0.3450(3) 0.6289(3)
C11 C 0.4462(3) 0.3764(3) 0.5997(3)
H34 H 0.4636 0.3976 0.6032
C12 C 0.4189(3) 0.3756(3) 0.5655(3)
C13 C 0.3925(3) 0.3438(3) 0.5604(3)
H35 H 0.3740 0.3432 0.5379
C14 C 0.3941(3) 0.3133(3) 0.5891(3)
C15 C 0.4212(3) 0.3140(3) 0.6225(3)
H36 H 0.4218 0.2931 0.6413
C16 C 0.4758(3) 0.3451(3) 0.6653(3)
H37 H 0.4676 0.3249 0.6851
H38 H 0.4737 0.3700 0.6798
C17 C 0.4163(3) 0.4087(3) 0.5339(3)
H39 H 0.3881 0.4127 0.5261
H40 H 0.4260 0.4324 0.5474
C18 C 0.3658(3) 0.2785(3) 0.5831(4)
H41 H 0.3604 0.2665 0.6106
H42 H 0.3401 0.2874 0.5715
C19 C 0.3618(3) 0.1531(3) 0.4259(3)
C20 C 0.3692(3) 0.1843(3) 0.3992(3)
H43 H 0.3519 0.2058 0.4000
C21 C 0.4022(3) 0.1843(3) 0.3710(3)
C22 C 0.4286(3) 0.1523(3) 0.3709(3)
H44 H 0.4507 0.1517 0.3524
C23 C 0.4217(3) 0.1221(3) 0.3982(3)
C24 C 0.3884(3) 0.1216(3) 0.4256(3)
H45 H 0.3840 0.1004 0.4434
C25 C 0.3251(3) 0.1537(3) 0.4545(4)
H46 H 0.3057 0.1725 0.4436
H47 H 0.3122 0.1282 0.4538
C26 C 0.4078(3) 0.2174(3) 0.3393(3)
H48 H 0.4153 0.2068 0.3118
H49 H 0.3824 0.2315 0.3361
C27 C 0.4513(3) 0.0868(3) 0.3963(4)
H50 H 0.4378 0.0638 0.4075
H51 H 0.4586 0.0816 0.3669
C28 C 0.5582(3) 0.3416(3) 0.3380(3)
C29 C 0.5547(3) 0.3746(3) 0.3643(4)
H52 H 0.5364 0.3943 0.3576
C30 C 0.5789(3) 0.3775(3) 0.4006(3)
C31 C 0.6071(3) 0.3488(3) 0.4094(3)
H53 H 0.6239 0.3513 0.4331
C32 C 0.6107(3) 0.3161(3) 0.3837(3)
C33 C 0.5859(3) 0.3128(3) 0.3489(4)
H54 H 0.5878 0.2906 0.3320
C34 C 0.5327(3) 0.3377(4) 0.2984(4)
H55 H 0.5369 0.3604 0.2807
H56 H 0.5419 0.3150 0.2825
C35 C 0.5763(3) 0.4132(3) 0.4283(4)
H57 H 0.6035 0.4208 0.4367
H58 H 0.5648 0.4344 0.4118
C36 C 0.6426(3) 0.2853(4) 0.3927(4)
H59 H 0.6486 0.2712 0.3666
H60 H 0.6674 0.2978 0.4022
C37 C 0.5699(3) 0.2985(3) 0.6187(4)
H61 H 0.5799 0.3211 0.6033
H62 H 0.5844 0.2971 0.6456
C38 C 0.5250(3) 0.3032(3) 0.6271(4)
H63 H 0.5103 0.3057 0.6004
H64 H 0.5146 0.2806 0.6421
C39 C 0.5218(3) 0.0958(3) 0.4922(4)
H65 H 0.5394 0.0747 0.4834
H66 H 0.5355 0.1202 0.4861
C40 C 0.4817(3) 0.0939(4) 0.4673(3)
H67 H 0.4673 0.0701 0.4747
H68 H 0.4646 0.1158 0.4752
C41 C 0.6439(5) 0.2000(5) 0.4673(5)
H69 H 0.6165 0.1902 0.4630
H70 H 0.6436 0.2168 0.4922
C42 C 0.6561(3) 0.2230(3) 0.4299(3)
H71 H 0.6544 0.2071 0.4045
H72 H 0.6840 0.2318 0.4331
C43 C 0.3591(4) 0.1999(4) 0.5051(4)
H73 H 0.3872 0.1946 0.4974
H74 H 0.3490 0.2199 0.4860
C44 C 0.3578(5) 0.2146(4) 0.5488(4)
H75 H 0.3668 0.1943 0.5681
H76 H 0.3300 0.2212 0.5561
C45 C 0.4845(3) 0.4027(4) 0.5015(3)
H77 H 0.4927 0.3800 0.5178
H78 H 0.4915 0.4258 0.5177
C46 C 0.5069(3) 0.4032(3) 0.4593(3)
H79 H 0.5016 0.3792 0.4440
H80 H 0.4973 0.4248 0.4421
C47 C 0.4469(4) 0.2772(3) 0.3252(3)
H81 H 0.4615 0.2673 0.3006
H82 H 0.4205 0.2860 0.3152
C48 C 0.467(2) 0.3087(16) 0.3394(13)
H83 H 0.4873 0.3000 0.3599
H84 H 0.4481 0.3251 0.3546

#END
