data_image0
_cell_length_a       17.397
_cell_length_b       17.397
_cell_length_c       57.414
_cell_angle_alpha    90
_cell_angle_beta     90
_cell_angle_gamma    120

_symmetry_space_group_name_H-M    "P 1"
_symmetry_int_tables_number       1

loop_
  _symmetry_equiv_pos_as_xyz
  'x, y, z'

loop_
  _atom_site_label
  _atom_site_occupancy
  _atom_site_fract_x
  _atom_site_fract_y
  _atom_site_fract_z
  _atom_site_thermal_displace_type
  _atom_site_B_iso_or_equiv
  _atom_site_type_symbol
  C1       1.0000 0.72645  0.60805  0.45620  Biso   1.000  C
  C2       1.0000 0.69420  0.58057  0.43357  Biso   1.000  C
  H1       1.0000 0.69088  0.61588  0.46739  Biso   1.000  H
  C3       1.0000 0.81026  0.62391  0.46215  Biso   1.000  C
  C4       1.0000 0.60351  0.56358  0.42740  Biso   1.000  C
  C5       1.0000 0.74628  0.56802  0.41720  Biso   1.000  C
  C6       1.0000 0.86170  0.61090  0.44562  Biso   1.000  C
  C7       1.0000 0.85037  0.65723  0.48525  Biso   1.000  C
  N1       1.0000 0.57627  0.55037  0.40642  Biso   1.000  N
  H2       1.0000 0.56536  0.56258  0.43941  Biso   1.000  H
  H3       1.0000 0.72401  0.54798  0.40199  Biso   1.000  H
  C8       1.0000 0.83101  0.58482  0.42317  Biso   1.000  C
  H4       1.0000 0.91839  0.62013  0.44991  Biso   1.000  H
  N2       1.0000 0.81644  0.67708  0.50174  Biso   1.000  N
  H5       1.0000 0.90750  0.66433  0.48781  Biso   1.000  H
  C9       1.0000 0.48634  0.53570  0.40274  Biso   1.000  C
  C10      1.0000 0.88649  0.57081  0.40595  Biso   1.000  C
  C11      1.0000 0.87165  0.71577  0.52261  Biso   1.000  C
  C12      1.0000 0.42672  0.44245  0.39320  Biso   1.000  C
  C13      1.0000 0.49094  0.60480  0.38527  Biso   1.000  C
  H6       1.0000 0.46190  0.54247  0.41789  Biso   1.000  H
  N3       1.0000 0.96160  0.58389  0.41122  Biso   1.000  N
  H7       1.0000 0.86430  0.55150  0.39071  Biso   1.000  H
  H8       1.0000 0.92431  0.70728  0.52160  Biso   1.000  H
  C14      1.0000 0.81936  0.67004  0.54466  Biso   1.000  C
  C15      1.0000 0.90340  0.81341  0.52343  Biso   1.000  C
  C16      1.0000 0.33533  0.42751  0.38682  Biso   1.000  C
  N4       1.0000 0.41606  0.37767  0.41122  Biso   1.000  N
  H9       1.0000 0.45503  0.43342  0.37911  Biso   1.000  H
  C17      1.0000 0.39885  0.58847  0.37928  Biso   1.000  C
  H10      1.0000 0.52664  0.66493  0.39199  Biso   1.000  H
  H11      1.0000 0.52091  0.60221  0.37090  Biso   1.000  H
  C18      1.0000 0.01573  0.57327  0.39320  Biso   1.000  C
  N5       1.0000 0.79975  0.57851  0.54448  Biso   1.000  N
  H12      1.0000 0.76283  0.67183  0.54501  Biso   1.000  H
  C19      1.0000 0.87493  0.71750  0.56589  Biso   1.000  C
  H13      1.0000 0.85160  0.82237  0.52411  Biso   1.000  H
  H14      1.0000 0.93680  0.84182  0.50900  Biso   1.000  H
  C20      1.0000 0.96379  0.85821  0.54490  Biso   1.000  C
  C21      1.0000 0.34159  0.49568  0.36953  Biso   1.000  C
  H15      1.0000 0.29918  0.36751  0.38010  Biso   1.000  H
  H16      1.0000 0.30514  0.43083  0.40110  Biso   1.000  H
  C22      1.0000 0.42920  0.31567  0.40595  Biso   1.000  C
  H17      1.0000 0.37061  0.59557  0.39341  Biso   1.000  H
  H18      1.0000 0.40377  0.63281  0.36770  Biso   1.000  H
  H19      1.0000 0.97842  0.54499  0.37911  Biso   1.000  H
  C23      1.0000 0.04938  0.51366  0.40274  Biso   1.000  C
  C24      1.0000 0.09223  0.66466  0.38682  Biso   1.000  C
  C25      1.0000 0.72021  0.51831  0.54473  Biso   1.000  C
  H20      1.0000 0.92547  0.70648  0.56680  Biso   1.000  H
  H21      1.0000 0.83840  0.69168  0.58000  Biso   1.000  H
  C26      1.0000 0.91128  0.81779  0.56598  Biso   1.000  C
  H22      1.0000 0.98562  0.92279  0.54480  Biso   1.000  H
  H23      1.0000 0.01568  0.84932  0.54450  Biso   1.000  H
  H24      1.0000 0.28142  0.48559  0.36610  Biso   1.000  H
  H25      1.0000 0.36769  0.48970  0.35479  Biso   1.000  H
  C27      1.0000 0.41515  0.24618  0.42317  Biso   1.000  C
  H26      1.0000 0.44853  0.31282  0.39071  Biso   1.000  H
  N6       1.0000 0.97412  0.42373  0.40642  Biso   1.000  N
  H27      1.0000 0.08062  0.53809  0.41789  Biso   1.000  H
  C28      1.0000 0.11385  0.50902  0.38527  Biso   1.000  C
  H28      1.0000 0.06827  0.70077  0.38010  Biso   1.000  H
  H29      1.0000 0.12570  0.69493  0.40110  Biso   1.000  H
  C29      1.0000 0.15413  0.65843  0.36953  Biso   1.000  C
  C30      1.0000 0.69409  0.42399  0.54548  Biso   1.000  C
  H30      1.0000 0.67523  0.53411  0.54440  Biso   1.000  H
  H31      1.0000 0.86141  0.82980  0.56671  Biso   1.000  H
  H32      1.0000 0.94890  0.84440  0.57989  Biso   1.000  H
  C31      1.0000 0.43196  0.17828  0.41720  Biso   1.000  C
  C32      1.0000 0.38910  0.25076  0.44562  Biso   1.000  C
  C33      1.0000 0.96011  0.39652  0.42740  Biso   1.000  C
  H33      1.0000 0.13828  0.47338  0.39199  Biso   1.000  H
  H34      1.0000 0.08130  0.47908  0.37090  Biso   1.000  H
  C34      1.0000 0.18963  0.60115  0.37928  Biso   1.000  C
  H35      1.0000 0.20423  0.71863  0.36610  Biso   1.000  H
  H36      1.0000 0.12197  0.63227  0.35479  Biso   1.000  H
  C35      1.0000 0.60443  0.36067  0.54565  Biso   1.000  C
  C36      1.0000 0.75628  0.39559  0.54565  Biso   1.000  C
  H37      1.0000 0.45204  0.17602  0.40199  Biso   1.000  H
  C37      1.0000 0.41941  0.11363  0.43357  Biso   1.000  C
  C38      1.0000 0.37608  0.18631  0.46215  Biso   1.000  C
  H38      1.0000 0.37987  0.29828  0.44991  Biso   1.000  H
  C39      1.0000 0.88635  0.30578  0.43357  Biso   1.000  C
  H39      1.0000 0.99721  0.43461  0.43941  Biso   1.000  H
  H40      1.0000 0.22498  0.62942  0.39341  Biso   1.000  H
  H41      1.0000 0.22899  0.59617  0.36770  Biso   1.000  H
  C40      1.0000 0.57601  0.27014  0.54548  Biso   1.000  C
  H42      1.0000 0.56160  0.37939  0.54589  Biso   1.000  H
  C41      1.0000 0.72990  0.30592  0.54548  Biso   1.000  C
  H43      1.0000 0.81781  0.43840  0.54589  Biso   1.000  H
  C42      1.0000 0.39191  0.11841  0.45620  Biso   1.000  C
  C43      1.0000 0.43640  0.03989  0.42740  Biso   1.000  C
  C44      1.0000 0.34282  0.19315  0.48525  Biso   1.000  C
  C45      1.0000 0.82173  0.25368  0.41720  Biso   1.000  C
  C46      1.0000 0.88160  0.27353  0.45620  Biso   1.000  C
  C47      1.0000 0.48168  0.20184  0.54473  Biso   1.000  C
  C48      1.0000 0.63931  0.24372  0.54565  Biso   1.000  C
  C49      1.0000 0.79813  0.27983  0.54473  Biso   1.000  C
  H44      1.0000 0.38411  0.07500  0.46739  Biso   1.000  H
  N7       1.0000 0.44963  0.02589  0.40642  Biso   1.000  N
  H45      1.0000 0.43739  0.00279  0.43941  Biso   1.000  H
  N8       1.0000 0.32295  0.13938  0.50174  Biso   1.000  N
  H46      1.0000 0.33571  0.24319  0.48781  Biso   1.000  H
  C50      1.0000 0.75380  0.16899  0.42317  Biso   1.000  C
  H47      1.0000 0.82397  0.27598  0.40199  Biso   1.000  H
  C51      1.0000 0.81363  0.18976  0.46215  Biso   1.000  C
  H48      1.0000 0.92503  0.30910  0.46739  Biso   1.000  H
  N9       1.0000 0.42147  0.22122  0.54448  Biso   1.000  N
  H49      1.0000 0.46591  0.14111  0.54440  Biso   1.000  H
  H50      1.0000 0.62061  0.18220  0.54589  Biso   1.000  H
  N10      1.0000 0.77875  0.20025  0.54448  Biso   1.000  N
  H51      1.0000 0.85892  0.32483  0.54440  Biso   1.000  H
  C52      1.0000 0.46436  0.95062  0.40274  Biso   1.000  C
  C53      1.0000 0.28422  0.15585  0.52261  Biso   1.000  C
  C54      1.0000 0.68436  0.11357  0.40595  Biso   1.000  C
  C55      1.0000 0.74922  0.13832  0.44562  Biso   1.000  C
  C56      1.0000 0.80686  0.14967  0.48525  Biso   1.000  C
  C57      1.0000 0.32994  0.14934  0.54466  Biso   1.000  C
  C58      1.0000 0.85066  0.18060  0.54466  Biso   1.000  C
  H52      1.0000 0.45756  0.91942  0.41789  Biso   1.000  H
  C59      1.0000 0.55752  0.98427  0.39320  Biso   1.000  C
  C60      1.0000 0.39529  0.88617  0.38527  Biso   1.000  C
  H53      1.0000 0.29271  0.21698  0.52160  Biso   1.000  H
  C61      1.0000 0.18658  0.09000  0.52343  Biso   1.000  C
  N11      1.0000 0.62227  0.03836  0.41122  Biso   1.000  N
  H54      1.0000 0.68719  0.13567  0.39071  Biso   1.000  H
  H55      1.0000 0.70171  0.08157  0.44991  Biso   1.000  H
  N12      1.0000 0.86057  0.18352  0.50174  Biso   1.000  N
  H56      1.0000 0.75679  0.09252  0.48781  Biso   1.000  H
  H57      1.0000 0.32819  0.09100  0.54501  Biso   1.000  H
  C62      1.0000 0.28246  0.15737  0.56589  Biso   1.000  C
  C63      1.0000 0.84415  0.12837  0.52261  Biso   1.000  C
  H58      1.0000 0.90903  0.23722  0.54501  Biso   1.000  H
  C64      1.0000 0.84260  0.12505  0.56589  Biso   1.000  C
  H59      1.0000 0.56657  0.02157  0.37911  Biso   1.000  H
  C65      1.0000 0.57246  0.90781  0.38682  Biso   1.000  C
  H60      1.0000 0.33516  0.86168  0.39199  Biso   1.000  H
  H61      1.0000 0.39781  0.91869  0.37090  Biso   1.000  H
  C66      1.0000 0.41154  0.81037  0.37928  Biso   1.000  C
  H62      1.0000 0.17762  0.02920  0.52411  Biso   1.000  H
  H63      1.0000 0.15820  0.09498  0.50900  Biso   1.000  H
  C67      1.0000 0.14178  0.10560  0.54490  Biso   1.000  C
  H64      1.0000 0.29351  0.21903  0.56680  Biso   1.000  H
  H65      1.0000 0.30827  0.14669  0.58000  Biso   1.000  H
  C68      1.0000 0.18219  0.09352  0.56598  Biso   1.000  C
  H66      1.0000 0.78299  0.07573  0.52160  Biso   1.000  H
  C69      1.0000 0.90999  0.09657  0.52343  Biso   1.000  C
  H67      1.0000 0.78098  0.07447  0.56680  Biso   1.000  H
  H68      1.0000 0.85330  0.16162  0.58000  Biso   1.000  H
  C70      1.0000 0.90650  0.08868  0.56598  Biso   1.000  C
  H69      1.0000 0.63252  0.93170  0.38010  Biso   1.000  H
  H70      1.0000 0.56921  0.87429  0.40110  Biso   1.000  H
  C71      1.0000 0.50430  0.84588  0.36953  Biso   1.000  C
  H71      1.0000 0.40443  0.77499  0.39341  Biso   1.000  H
  H72      1.0000 0.36720  0.77101  0.36770  Biso   1.000  H
  H73      1.0000 0.15068  0.16640  0.54450  Biso   1.000  H
  H74      1.0000 0.07721  0.06279  0.54480  Biso   1.000  H
  H75      1.0000 0.17019  0.03159  0.56671  Biso   1.000  H
  H76      1.0000 0.15559  0.10447  0.57989  Biso   1.000  H
  H77      1.0000 0.97080  0.14841  0.52411  Biso   1.000  H
  H78      1.0000 0.90502  0.06319  0.50900  Biso   1.000  H
  C72      1.0000 0.89439  0.03617  0.54490  Biso   1.000  C
  H79      1.0000 0.96841  0.13859  0.56671  Biso   1.000  H
  H80      1.0000 0.89553  0.05111  0.57989  Biso   1.000  H
  H81      1.0000 0.51443  0.79577  0.36610  Biso   1.000  H
  H82      1.0000 0.51037  0.87801  0.35479  Biso   1.000  H
  H83      1.0000 0.93719  0.01440  0.54480  Biso   1.000  H
  H84      1.0000 0.83360  0.98427  0.54450  Biso   1.000  H
  C73      1.0000 0.60804  0.72646  0.54380  Biso   1.000  C
  C74      1.0000 0.62388  0.81022  0.53785  Biso   1.000  C
  C75      1.0000 0.58059  0.69420  0.56643  Biso   1.000  C
  H85      1.0000 0.61589  0.69088  0.53261  Biso   1.000  H
  C76      1.0000 0.65724  0.85038  0.51475  Biso   1.000  C
  C77      1.0000 0.61092  0.86166  0.55438  Biso   1.000  C
  C78      1.0000 0.56356  0.60347  0.57260  Biso   1.000  C
  C79      1.0000 0.56801  0.74630  0.58280  Biso   1.000  C
  N13      1.0000 0.67707  0.81646  0.49826  Biso   1.000  N
  H86      1.0000 0.66432  0.90753  0.51219  Biso   1.000  H
  C80      1.0000 0.58487  0.83106  0.57683  Biso   1.000  C
  H87      1.0000 0.62010  0.91841  0.55009  Biso   1.000  H
  N14      1.0000 0.55041  0.57626  0.59358  Biso   1.000  N
  H88      1.0000 0.56256  0.56537  0.56059  Biso   1.000  H
  H89      1.0000 0.54801  0.72400  0.59801  Biso   1.000  H
  C81      1.0000 0.71574  0.87162  0.47739  Biso   1.000  C
  C82      1.0000 0.57076  0.88642  0.59405  Biso   1.000  C
  C83      1.0000 0.53574  0.48632  0.59726  Biso   1.000  C
  C84      1.0000 0.67008  0.81938  0.45534  Biso   1.000  C
  H90      1.0000 0.70732  0.92432  0.47840  Biso   1.000  H
  C85      1.0000 0.81338  0.90341  0.47657  Biso   1.000  C
  N15      1.0000 0.58393  0.96162  0.58878  Biso   1.000  N
  H91      1.0000 0.55149  0.86432  0.60929  Biso   1.000  H
  C86      1.0000 0.44248  0.42672  0.60680  Biso   1.000  C
  H92      1.0000 0.54249  0.46189  0.58211  Biso   1.000  H
  C87      1.0000 0.60480  0.49097  0.61473  Biso   1.000  C
  N16      1.0000 0.57855  0.79980  0.45552  Biso   1.000  N
  H93      1.0000 0.67181  0.76283  0.45499  Biso   1.000  H
  C88      1.0000 0.71752  0.87494  0.43411  Biso   1.000  C
  H94      1.0000 0.82241  0.85157  0.47589  Biso   1.000  H
  H95      1.0000 0.84180  0.93680  0.49100  Biso   1.000  H
  C89      1.0000 0.85818  0.96381  0.45510  Biso   1.000  C
  C90      1.0000 0.57325  0.01578  0.60680  Biso   1.000  C
  N17      1.0000 0.37767  0.41610  0.58878  Biso   1.000  N
  C91      1.0000 0.42753  0.33532  0.61318  Biso   1.000  C
  H96      1.0000 0.43339  0.45499  0.62089  Biso   1.000  H
  H97      1.0000 0.66492  0.52661  0.60801  Biso   1.000  H
  H98      1.0000 0.60218  0.52090  0.62910  Biso   1.000  H
  C92      1.0000 0.58845  0.39884  0.62072  Biso   1.000  C
  C93      1.0000 0.51836  0.72022  0.45527  Biso   1.000  C
  H99      1.0000 0.70653  0.92551  0.43320  Biso   1.000  H
  H100     1.0000 0.69173  0.83843  0.42000  Biso   1.000  H
  C94      1.0000 0.81779  0.91131  0.43402  Biso   1.000  C
  H101     1.0000 0.92281  0.98558  0.45520  Biso   1.000  H
  H102     1.0000 0.84924  0.01571  0.45550  Biso   1.000  H
  C95      1.0000 0.51359  0.04937  0.59726  Biso   1.000  C
  H103     1.0000 0.54502  0.97841  0.62089  Biso   1.000  H
  C96      1.0000 0.66465  0.09224  0.61318  Biso   1.000  C
  C97      1.0000 0.31567  0.42924  0.59405  Biso   1.000  C
  H104     1.0000 0.36752  0.29921  0.61990  Biso   1.000  H
  H105     1.0000 0.43083  0.30512  0.59890  Biso   1.000  H
  C98      1.0000 0.49570  0.34162  0.63047  Biso   1.000  C
  H106     1.0000 0.59562  0.37063  0.60659  Biso   1.000  H
  H107     1.0000 0.63279  0.40382  0.63230  Biso   1.000  H
  C99      1.0000 0.42398  0.69413  0.45452  Biso   1.000  C
  H108     1.0000 0.53414  0.67522  0.45560  Biso   1.000  H
  H109     1.0000 0.82979  0.86140  0.43329  Biso   1.000  H
  H110     1.0000 0.84439  0.94888  0.42011  Biso   1.000  H
  N18      1.0000 0.42370  0.97410  0.59358  Biso   1.000  N
  H111     1.0000 0.53813  0.08063  0.58211  Biso   1.000  H
  C100     1.0000 0.50900  0.11388  0.61473  Biso   1.000  C
  H112     1.0000 0.70072  0.06828  0.61990  Biso   1.000  H
  H113     1.0000 0.69482  0.12570  0.59890  Biso   1.000  H
  C101     1.0000 0.65839  0.15410  0.63047  Biso   1.000  C
  C102     1.0000 0.24621  0.41517  0.57683  Biso   1.000  C
  H114     1.0000 0.31282  0.44849  0.60929  Biso   1.000  H
  H115     1.0000 0.48560  0.28142  0.63390  Biso   1.000  H
  H116     1.0000 0.48971  0.36771  0.64521  Biso   1.000  H
  C103     1.0000 0.36066  0.60440  0.45435  Biso   1.000  C
  C104     1.0000 0.39560  0.75626  0.45435  Biso   1.000  C
  C105     1.0000 0.39653  0.96009  0.57260  Biso   1.000  C
  H117     1.0000 0.47333  0.13831  0.60801  Biso   1.000  H
  H118     1.0000 0.47908  0.08129  0.62910  Biso   1.000  H
  C106     1.0000 0.60113  0.18961  0.62072  Biso   1.000  C
  H119     1.0000 0.71856  0.20422  0.63390  Biso   1.000  H
  H120     1.0000 0.63227  0.12198  0.64521  Biso   1.000  H
  C107     1.0000 0.25076  0.38908  0.55438  Biso   1.000  C
  C108     1.0000 0.17827  0.43196  0.58280  Biso   1.000  C
  C109     1.0000 0.27012  0.57599  0.45452  Biso   1.000  C
  H121     1.0000 0.37937  0.56159  0.45411  Biso   1.000  H
  C110     1.0000 0.30592  0.72991  0.45452  Biso   1.000  C
  H122     1.0000 0.43838  0.81779  0.45411  Biso   1.000  H
  C111     1.0000 0.30580  0.88635  0.56643  Biso   1.000  C
  H123     1.0000 0.43462  0.99720  0.56059  Biso   1.000  H
  H124     1.0000 0.62934  0.22499  0.60659  Biso   1.000  H
  H125     1.0000 0.59615  0.22897  0.63230  Biso   1.000  H
  C112     1.0000 0.18635  0.37614  0.53785  Biso   1.000  C
  H126     1.0000 0.29831  0.37992  0.55009  Biso   1.000  H
  C113     1.0000 0.11366  0.41941  0.56643  Biso   1.000  C
  H127     1.0000 0.17599  0.45200  0.59801  Biso   1.000  H
  C114     1.0000 0.20186  0.48167  0.45527  Biso   1.000  C
  C115     1.0000 0.24372  0.63931  0.45435  Biso   1.000  C
  C116     1.0000 0.27980  0.79814  0.45527  Biso   1.000  C
  C117     1.0000 0.27352  0.88157  0.54380  Biso   1.000  C
  C118     1.0000 0.25373  0.82177  0.58280  Biso   1.000  C
  C119     1.0000 0.19314  0.34282  0.51475  Biso   1.000  C
  C120     1.0000 0.11843  0.39194  0.54380  Biso   1.000  C
  C121     1.0000 0.03990  0.43641  0.57260  Biso   1.000  C
  N19      1.0000 0.22126  0.42147  0.45552  Biso   1.000  N
  H128     1.0000 0.14108  0.46588  0.45560  Biso   1.000  H
  H129     1.0000 0.18217  0.62059  0.45411  Biso   1.000  H
  N20      1.0000 0.20021  0.77876  0.45552  Biso   1.000  N
  H130     1.0000 0.32476  0.85887  0.45560  Biso   1.000  H
  C122     1.0000 0.18979  0.81367  0.53785  Biso   1.000  C
  H131     1.0000 0.30907  0.92498  0.53261  Biso   1.000  H
  C123     1.0000 0.16894  0.75380  0.57683  Biso   1.000  C
  H132     1.0000 0.27601  0.82403  0.59801  Biso   1.000  H
  N21      1.0000 0.13938  0.32291  0.49826  Biso   1.000  N
  H133     1.0000 0.24322  0.33572  0.51219  Biso   1.000  H
  H134     1.0000 0.07502  0.38410  0.53261  Biso   1.000  H
  H135     1.0000 0.00280  0.43740  0.56059  Biso   1.000  H
  N22      1.0000 0.02586  0.44961  0.59358  Biso   1.000  N
  C124     1.0000 0.14934  0.32994  0.45534  Biso   1.000  C
  C125     1.0000 0.18066  0.85071  0.45534  Biso   1.000  C
  C126     1.0000 0.14964  0.80684  0.51475  Biso   1.000  C
  C127     1.0000 0.13831  0.74922  0.55438  Biso   1.000  C
  C128     1.0000 0.11355  0.68431  0.59405  Biso   1.000  C
  C129     1.0000 0.15588  0.28428  0.47739  Biso   1.000  C
  C130     1.0000 0.95060  0.46428  0.59726  Biso   1.000  C
  C131     1.0000 0.15740  0.28249  0.43411  Biso   1.000  C
  H136     1.0000 0.09099  0.32822  0.45499  Biso   1.000  H
  C132     1.0000 0.12840  0.84414  0.47739  Biso   1.000  C
  H137     1.0000 0.23721  0.90899  0.45499  Biso   1.000  H
  C133     1.0000 0.12505  0.84261  0.43411  Biso   1.000  C
  N23      1.0000 0.18353  0.86060  0.49826  Biso   1.000  N
  H138     1.0000 0.09248  0.75679  0.51219  Biso   1.000  H
  H139     1.0000 0.08161  0.70170  0.55009  Biso   1.000  H
  N24      1.0000 0.03841  0.62232  0.58878  Biso   1.000  N
  H140     1.0000 0.13571  0.68723  0.60929  Biso   1.000  H
  H141     1.0000 0.21700  0.29271  0.47840  Biso   1.000  H
  C134     1.0000 0.09001  0.18658  0.47657  Biso   1.000  C
  H142     1.0000 0.91939  0.45751  0.58211  Biso   1.000  H
  C135     1.0000 0.98424  0.55754  0.60680  Biso   1.000  C
  C136     1.0000 0.88616  0.39519  0.61473  Biso   1.000  C
  H143     1.0000 0.21901  0.29350  0.43320  Biso   1.000  H
  H144     1.0000 0.14668  0.30831  0.42000  Biso   1.000  H
  C137     1.0000 0.09351  0.18220  0.43402  Biso   1.000  C
  H145     1.0000 0.07570  0.78301  0.47840  Biso   1.000  H
  C138     1.0000 0.09660  0.90998  0.47657  Biso   1.000  C
  H146     1.0000 0.07453  0.78102  0.43320  Biso   1.000  H
  H147     1.0000 0.16160  0.85330  0.42000  Biso   1.000  H
  C139     1.0000 0.08872  0.90653  0.43402  Biso   1.000  C
  C140     1.0000 0.10561  0.14177  0.45510  Biso   1.000  C
  H148     1.0000 0.02920  0.17762  0.47589  Biso   1.000  H
  H149     1.0000 0.09501  0.15817  0.49100  Biso   1.000  H
  H150     1.0000 0.02160  0.56663  0.62089  Biso   1.000  H
  C141     1.0000 0.90778  0.57247  0.61318  Biso   1.000  C
  H151     1.0000 0.86170  0.33512  0.60801  Biso   1.000  H
  H152     1.0000 0.91867  0.39778  0.62910  Biso   1.000  H
  C142     1.0000 0.81034  0.41152  0.62072  Biso   1.000  C
  H153     1.0000 0.03158  0.17018  0.43329  Biso   1.000  H
  H154     1.0000 0.10446  0.15558  0.42011  Biso   1.000  H
  H155     1.0000 0.14838  0.97078  0.47589  Biso   1.000  H
  H156     1.0000 0.06318  0.90500  0.49100  Biso   1.000  H
  C143     1.0000 0.03620  0.89438  0.45510  Biso   1.000  C
  H157     1.0000 0.13862  0.96839  0.43329  Biso   1.000  H
  H158     1.0000 0.05108  0.89551  0.42011  Biso   1.000  H
  H159     1.0000 0.16638  0.15067  0.45550  Biso   1.000  H
  H160     1.0000 0.06280  0.07719  0.45520  Biso   1.000  H
  H161     1.0000 0.93169  0.63247  0.61990  Biso   1.000  H
  H162     1.0000 0.87431  0.56922  0.59890  Biso   1.000  H
  C144     1.0000 0.84593  0.50431  0.63047  Biso   1.000  C
  H163     1.0000 0.77501  0.40441  0.60659  Biso   1.000  H
  H164     1.0000 0.77099  0.36718  0.63230  Biso   1.000  H
  H165     1.0000 0.01438  0.93719  0.45520  Biso   1.000  H
  H166     1.0000 0.98430  0.83359  0.45550  Biso   1.000  H
  H167     1.0000 0.79580  0.51439  0.63390  Biso   1.000  H
  H168     1.0000 0.87801  0.51028  0.64521  Biso   1.000  H
  C145     1.0000 0.81690  0.80332  0.62102  Biso   1.000  C
  C146     1.0000 0.75749  0.74139  0.64024  Biso   1.000  C
  C147     1.0000 0.84969  0.89969  0.62769  Biso   1.000  C
  H169     1.0000 0.86821  0.79442  0.61859  Biso   1.000  H
  H170     1.0000 0.78311  0.78931  0.60630  Biso   1.000  H
  C148     1.0000 0.67940  0.75593  0.64547  Biso   1.000  C
  H171     1.0000 0.79308  0.75188  0.65460  Biso   1.000  H
  H172     1.0000 0.73451  0.67900  0.63540  Biso   1.000  H
  C149     1.0000 0.77375  0.91556  0.63309  Biso   1.000  C
  H173     1.0000 0.88884  0.91522  0.64150  Biso   1.000  H
  H174     1.0000 0.88522  0.93892  0.61469  Biso   1.000  H
  N25      1.0000 0.62615  0.69898  0.66402  Biso   1.000  N
  H175     1.0000 0.64191  0.74212  0.63120  Biso   1.000  H
  C150     1.0000 0.71455  0.85303  0.65219  Biso   1.000  C
  H176     1.0000 0.73811  0.90613  0.61880  Biso   1.000  H
  H177     1.0000 0.79770  0.97782  0.63810  Biso   1.000  H
  C151     1.0000 0.54860  0.63632  0.65888  Biso   1.000  C
  N26      1.0000 0.64016  0.86863  0.65658  Biso   1.000  N
  H178     1.0000 0.75028  0.86598  0.66681  Biso   1.000  H
  C152     1.0000 0.48800  0.57168  0.67579  Biso   1.000  C
  H179     1.0000 0.52913  0.63141  0.64321  Biso   1.000  H
  C153     1.0000 0.63439  0.89319  0.67673  Biso   1.000  C
  C154     1.0000 0.40649  0.50557  0.66883  Biso   1.000  C
  C155     1.0000 0.50996  0.57307  0.69938  Biso   1.000  C
  H180     1.0000 0.67858  0.90248  0.68790  Biso   1.000  H
  C156     1.0000 0.56092  0.90812  0.68374  Biso   1.000  C
  C157     1.0000 0.34723  0.43913  0.68374  Biso   1.000  C
  H181     1.0000 0.38948  0.50477  0.65310  Biso   1.000  H
  C158     1.0000 0.45471  0.51108  0.71528  Biso   1.000  C
  H182     1.0000 0.56592  0.61933  0.70460  Biso   1.000  H
  C159     1.0000 0.49442  0.90089  0.66883  Biso   1.000  C
  C160     1.0000 0.55712  0.92870  0.70728  Biso   1.000  C
  C161     1.0000 0.25878  0.36559  0.67673  Biso   1.000  C
  C162     1.0000 0.37160  0.44291  0.70728  Biso   1.000  C
  C163     1.0000 0.47230  0.51970  0.73951  Biso   1.000  C
  C164     1.0000 0.42831  0.91629  0.67579  Biso   1.000  C
  H183     1.0000 0.49517  0.88469  0.65310  Biso   1.000  H
  H184     1.0000 0.60071  0.93242  0.71791  Biso   1.000  H
  C165     1.0000 0.48889  0.94363  0.71528  Biso   1.000  C
  N27      1.0000 0.22851  0.35988  0.65658  Biso   1.000  N
  H185     1.0000 0.22386  0.32138  0.68790  Biso   1.000  H
  H186     1.0000 0.33169  0.39930  0.71791  Biso   1.000  H
  C166     1.0000 0.48031  0.52767  0.76049  Biso   1.000  C
  C167     1.0000 0.36372  0.91230  0.65888  Biso   1.000  C
  C168     1.0000 0.42691  0.93693  0.69938  Biso   1.000  C
  C169     1.0000 0.48032  0.95259  0.73951  Biso   1.000  C
  C170     1.0000 0.13854  0.28547  0.65219  Biso   1.000  C
  C171     1.0000 0.48891  0.54533  0.78472  Biso   1.000  C
  N28      1.0000 0.30103  0.92717  0.66402  Biso   1.000  N
  H187     1.0000 0.36861  0.89770  0.64321  Biso   1.000  H
  H188     1.0000 0.38071  0.94662  0.70460  Biso   1.000  H
  C172     1.0000 0.47227  0.95259  0.76049  Biso   1.000  C
  C173     1.0000 0.14178  0.22620  0.63309  Biso   1.000  C
  H189     1.0000 0.11571  0.24970  0.66681  Biso   1.000  H
  C174     1.0000 0.07648  0.32058  0.64547  Biso   1.000  C
  C175     1.0000 0.42691  0.48997  0.80062  Biso   1.000  C
  C176     1.0000 0.55713  0.62842  0.79272  Biso   1.000  C
  C177     1.0000 0.24414  0.92352  0.64547  Biso   1.000  C
  C178     1.0000 0.45474  0.94363  0.78472  Biso   1.000  C
  C179     1.0000 0.04996  0.15027  0.62769  Biso   1.000  C
  H190     1.0000 0.16803  0.26191  0.61880  Biso   1.000  H
  H191     1.0000 0.18007  0.20231  0.63810  Biso   1.000  H
  C180     1.0000 0.98394  0.24253  0.64024  Biso   1.000  C
  N29      1.0000 0.07284  0.37388  0.66402  Biso   1.000  N
  H192     1.0000 0.10018  0.35809  0.63120  Biso   1.000  H
  C181     1.0000 0.42833  0.51201  0.82421  Biso   1.000  C
  H193     1.0000 0.38069  0.43408  0.79540  Biso   1.000  H
  C182     1.0000 0.56092  0.65278  0.81626  Biso   1.000  C
  H194     1.0000 0.60070  0.66832  0.78209  Biso   1.000  H
  C183     1.0000 0.14698  0.86153  0.65219  Biso   1.000  C
  H195     1.0000 0.25793  0.89983  0.63120  Biso   1.000  H
  C184     1.0000 0.25859  0.01611  0.64024  Biso   1.000  C
  C185     1.0000 0.51002  0.93693  0.80062  Biso   1.000  C
  C186     1.0000 0.37157  0.92870  0.79272  Biso   1.000  C
  H196     1.0000 0.02639  0.11118  0.64150  Biso   1.000  H
  H197     1.0000 0.05373  0.11483  0.61469  Biso   1.000  H
  C187     1.0000 0.98643  0.18312  0.62102  Biso   1.000  C
  H198     1.0000 0.95882  0.20689  0.65460  Biso   1.000  H
  H199     1.0000 0.94450  0.26549  0.63540  Biso   1.000  H
  C188     1.0000 0.08769  0.45141  0.65888  Biso   1.000  C
  C189     1.0000 0.49443  0.59351  0.83117  Biso   1.000  C
  C190     1.0000 0.36372  0.45141  0.84112  Biso   1.000  C
  C191     1.0000 0.63438  0.74119  0.82327  Biso   1.000  C
  N30      1.0000 0.13135  0.77153  0.65658  Biso   1.000  N
  H200     1.0000 0.13399  0.88429  0.66681  Biso   1.000  H
  C192     1.0000 0.08445  0.85821  0.63309  Biso   1.000  C
  C193     1.0000 0.19663  0.01359  0.62102  Biso   1.000  C
  H201     1.0000 0.24803  0.04120  0.65460  Biso   1.000  H
  H202     1.0000 0.32092  0.05547  0.63540  Biso   1.000  H
  C194     1.0000 0.48798  0.91629  0.82421  Biso   1.000  C
  H203     1.0000 0.56591  0.94662  0.79540  Biso   1.000  H
  C195     1.0000 0.34720  0.90812  0.81626  Biso   1.000  C
  H204     1.0000 0.33170  0.93242  0.78209  Biso   1.000  H
  H205     1.0000 0.00620  0.21691  0.60630  Biso   1.000  H
  H206     1.0000 0.92623  0.13182  0.61859  Biso   1.000  H
  C196     1.0000 0.08367  0.51201  0.67579  Biso   1.000  C
  H207     1.0000 0.10233  0.47092  0.64321  Biso   1.000  H
  H208     1.0000 0.49523  0.61050  0.84690  Biso   1.000  H
  N31      1.0000 0.30104  0.37388  0.83598  Biso   1.000  N
  H209     1.0000 0.36859  0.47092  0.85679  Biso   1.000  H
  N32      1.0000 0.64017  0.77153  0.84342  Biso   1.000  N
  H210     1.0000 0.67862  0.77611  0.81210  Biso   1.000  H
  C197     1.0000 0.10682  0.74119  0.67673  Biso   1.000  C
  C198     1.0000 0.10028  0.95000  0.62769  Biso   1.000  C
  H211     1.0000 0.09387  0.83199  0.61880  Biso   1.000  H
  H212     1.0000 0.02219  0.81991  0.63810  Biso   1.000  H
  H213     1.0000 0.21071  0.99381  0.60630  Biso   1.000  H
  H214     1.0000 0.20557  0.07379  0.61859  Biso   1.000  H
  C199     1.0000 0.54858  0.91230  0.84112  Biso   1.000  C
  C200     1.0000 0.40647  0.90089  0.83117  Biso   1.000  C
  C201     1.0000 0.25880  0.89319  0.82327  Biso   1.000  C
  C202     1.0000 0.09908  0.59351  0.66883  Biso   1.000  C
  C203     1.0000 0.06306  0.48997  0.69938  Biso   1.000  C
  C204     1.0000 0.24410  0.32058  0.85453  Biso   1.000  C
  C205     1.0000 0.71455  0.86153  0.84781  Biso   1.000  C
  C206     1.0000 0.09187  0.65278  0.68374  Biso   1.000  C
  H215     1.0000 0.09749  0.77611  0.68790  Biso   1.000  H
  H216     1.0000 0.08476  0.97357  0.64150  Biso   1.000  H
  H217     1.0000 0.06112  0.94629  0.61469  Biso   1.000  H
  N33      1.0000 0.62614  0.92717  0.83598  Biso   1.000  N
  H218     1.0000 0.52909  0.89770  0.85679  Biso   1.000  H
  H219     1.0000 0.38952  0.88469  0.84690  Biso   1.000  H
  N34      1.0000 0.22848  0.86863  0.84342  Biso   1.000  N
  H220     1.0000 0.22390  0.90248  0.81210  Biso   1.000  H
  H221     1.0000 0.11528  0.61050  0.65310  Biso   1.000  H
  H222     1.0000 0.05339  0.43408  0.70460  Biso   1.000  H
  C207     1.0000 0.05642  0.54533  0.71528  Biso   1.000  C
  C208     1.0000 0.25859  0.24253  0.85976  Biso   1.000  C
  H223     1.0000 0.25791  0.35809  0.86880  Biso   1.000  H
  C209     1.0000 0.14693  0.28547  0.84781  Biso   1.000  C
  H224     1.0000 0.75030  0.88429  0.83319  Biso   1.000  H
  C210     1.0000 0.77376  0.85821  0.86691  Biso   1.000  C
  C211     1.0000 0.67938  0.92352  0.85453  Biso   1.000  C
  C212     1.0000 0.07130  0.62842  0.70728  Biso   1.000  C
  C213     1.0000 0.13848  0.85303  0.84781  Biso   1.000  C
  C214     1.0000 0.04736  0.52767  0.73951  Biso   1.000  C
  C215     1.0000 0.19670  0.18312  0.87898  Biso   1.000  C
  H225     1.0000 0.24807  0.20689  0.84540  Biso   1.000  H
  H226     1.0000 0.32100  0.26549  0.86460  Biso   1.000  H
  N35      1.0000 0.13137  0.35988  0.84342  Biso   1.000  N
  H227     1.0000 0.13399  0.24970  0.83319  Biso   1.000  H
  C216     1.0000 0.08442  0.22620  0.86691  Biso   1.000  C
  H228     1.0000 0.73812  0.83199  0.88120  Biso   1.000  H
  H229     1.0000 0.79772  0.81991  0.86190  Biso   1.000  H
  C217     1.0000 0.84972  0.95000  0.87231  Biso   1.000  C
  H230     1.0000 0.64190  0.89983  0.86880  Biso   1.000  H
  C218     1.0000 0.75752  0.01611  0.85976  Biso   1.000  C
  H231     1.0000 0.06762  0.66832  0.71791  Biso   1.000  H
  C219     1.0000 0.07653  0.75593  0.85453  Biso   1.000  C
  H232     1.0000 0.11569  0.86598  0.83319  Biso   1.000  H
  C220     1.0000 0.14180  0.91556  0.86691  Biso   1.000  C
  C221     1.0000 0.04740  0.51970  0.76049  Biso   1.000  C
  C222     1.0000 0.10031  0.15027  0.87231  Biso   1.000  C
  H233     1.0000 0.20559  0.13182  0.88141  Biso   1.000  H
  H234     1.0000 0.21071  0.21691  0.89370  Biso   1.000  H
  C223     1.0000 0.10680  0.36559  0.82327  Biso   1.000  C
  H235     1.0000 0.09388  0.26191  0.88120  Biso   1.000  H
  H236     1.0000 0.02223  0.20231  0.86190  Biso   1.000  H
  H237     1.0000 0.88881  0.97357  0.85850  Biso   1.000  H
  H238     1.0000 0.88517  0.94629  0.88531  Biso   1.000  H
  C224     1.0000 0.81685  0.01359  0.87898  Biso   1.000  C
  H239     1.0000 0.79306  0.04120  0.84540  Biso   1.000  H
  H240     1.0000 0.73444  0.05547  0.86460  Biso   1.000  H
  N36      1.0000 0.07283  0.69898  0.83598  Biso   1.000  N
  H241     1.0000 0.10021  0.74212  0.86880  Biso   1.000  H
  C225     1.0000 0.98391  0.74139  0.85976  Biso   1.000  C
  C226     1.0000 0.05001  0.89969  0.87231  Biso   1.000  C
  H242     1.0000 0.16802  0.90613  0.88120  Biso   1.000  H
  H243     1.0000 0.18012  0.97782  0.86190  Biso   1.000  H
  C227     1.0000 0.05637  0.51108  0.78472  Biso   1.000  C
  H244     1.0000 0.08479  0.11118  0.85850  Biso   1.000  H
  H245     1.0000 0.06109  0.11483  0.88531  Biso   1.000  H
  C228     1.0000 0.09190  0.43913  0.81626  Biso   1.000  C
  H246     1.0000 0.09752  0.32138  0.81210  Biso   1.000  H
  H247     1.0000 0.78310  0.99381  0.89370  Biso   1.000  H
  H248     1.0000 0.86816  0.07379  0.88141  Biso   1.000  H
  C229     1.0000 0.08772  0.63632  0.84112  Biso   1.000  C
  C230     1.0000 0.98642  0.80332  0.87898  Biso   1.000  C
  H249     1.0000 0.95880  0.75188  0.84540  Biso   1.000  H
  H250     1.0000 0.94449  0.67900  0.86460  Biso   1.000  H
  H251     1.0000 0.02639  0.91522  0.85850  Biso   1.000  H
  H252     1.0000 0.05370  0.93892  0.88531  Biso   1.000  H
  C231     1.0000 0.06311  0.57307  0.80062  Biso   1.000  C
  C232     1.0000 0.07131  0.44291  0.79272  Biso   1.000  C
  C233     1.0000 0.09908  0.50557  0.83117  Biso   1.000  C
  C234     1.0000 0.08368  0.57168  0.82421  Biso   1.000  C
  H253     1.0000 0.10228  0.63141  0.85679  Biso   1.000  H
  H254     1.0000 0.00620  0.78931  0.89370  Biso   1.000  H
  H255     1.0000 0.92621  0.79442  0.88141  Biso   1.000  H
  H256     1.0000 0.05341  0.61933  0.79540  Biso   1.000  H
  H257     1.0000 0.06762  0.39930  0.78209  Biso   1.000  H
  H258     1.0000 0.11529  0.50477  0.84690  Biso   1.000  H
  C235     1.0000 0.80330  0.81693  0.37898  Biso   1.000  C
  C236     1.0000 0.74141  0.75752  0.35976  Biso   1.000  C
  C237     1.0000 0.89971  0.84971  0.37231  Biso   1.000  C
  H259     1.0000 0.79441  0.86823  0.38141  Biso   1.000  H
  H260     1.0000 0.78931  0.78308  0.39370  Biso   1.000  H
  C238     1.0000 0.75592  0.67940  0.35453  Biso   1.000  C
  H261     1.0000 0.75190  0.79310  0.34540  Biso   1.000  H
  H262     1.0000 0.67902  0.73449  0.36460  Biso   1.000  H
  C239     1.0000 0.91560  0.77378  0.36691  Biso   1.000  C
  H263     1.0000 0.91523  0.88881  0.35850  Biso   1.000  H
  H264     1.0000 0.93890  0.88522  0.38531  Biso   1.000  H
  N37      1.0000 0.69901  0.62617  0.33598  Biso   1.000  N
  C240     1.0000 0.85306  0.71458  0.34781  Biso   1.000  C
  H265     1.0000 0.74211  0.64190  0.36880  Biso   1.000  H
  H266     1.0000 0.90608  0.73807  0.38120  Biso   1.000  H
  H267     1.0000 0.97779  0.79768  0.36190  Biso   1.000  H
  C241     1.0000 0.63631  0.54858  0.34112  Biso   1.000  C
  N38      1.0000 0.86869  0.64017  0.34342  Biso   1.000  N
  H268     1.0000 0.86598  0.75029  0.33319  Biso   1.000  H
  C242     1.0000 0.57169  0.48798  0.32421  Biso   1.000  C
  H269     1.0000 0.63141  0.52913  0.35679  Biso   1.000  H
  C243     1.0000 0.89322  0.63440  0.32327  Biso   1.000  C
  C244     1.0000 0.50559  0.40647  0.33117  Biso   1.000  C
  C245     1.0000 0.57311  0.51001  0.30062  Biso   1.000  C
  H270     1.0000 0.90250  0.67860  0.31210  Biso   1.000  H
  C246     1.0000 0.90810  0.56092  0.31626  Biso   1.000  C
  C247     1.0000 0.43911  0.34720  0.31626  Biso   1.000  C
  H271     1.0000 0.50479  0.38948  0.34690  Biso   1.000  H
  C248     1.0000 0.51109  0.45473  0.28472  Biso   1.000  C
  H272     1.0000 0.61927  0.56590  0.29540  Biso   1.000  H
  C249     1.0000 0.90088  0.49442  0.33117  Biso   1.000  C
  C250     1.0000 0.92871  0.55707  0.29272  Biso   1.000  C
  C251     1.0000 0.44293  0.37163  0.29272  Biso   1.000  C
  C252     1.0000 0.36559  0.25879  0.32327  Biso   1.000  C
  C253     1.0000 0.51971  0.47231  0.26049  Biso   1.000  C
  H273     1.0000 0.88473  0.49521  0.34690  Biso   1.000  H
  C254     1.0000 0.91629  0.42831  0.32421  Biso   1.000  C
  H274     1.0000 0.93240  0.60068  0.28209  Biso   1.000  H
  C255     1.0000 0.94360  0.48891  0.28472  Biso   1.000  C
  H275     1.0000 0.39927  0.33167  0.28209  Biso   1.000  H
  N39      1.0000 0.35988  0.22852  0.34342  Biso   1.000  N
  H276     1.0000 0.32140  0.22388  0.31210  Biso   1.000  H
  C256     1.0000 0.52772  0.48028  0.23951  Biso   1.000  C
  C257     1.0000 0.93692  0.42691  0.30062  Biso   1.000  C
  C258     1.0000 0.91233  0.36373  0.34112  Biso   1.000  C
  C259     1.0000 0.95256  0.48028  0.26049  Biso   1.000  C
  C260     1.0000 0.28545  0.13852  0.34781  Biso   1.000  C
  C261     1.0000 0.54531  0.48891  0.21528  Biso   1.000  C
  H277     1.0000 0.94658  0.38072  0.29540  Biso   1.000  H
  N40      1.0000 0.92713  0.30100  0.33598  Biso   1.000  N
  H278     1.0000 0.89769  0.36857  0.35679  Biso   1.000  H
  C262     1.0000 0.95260  0.47231  0.23951  Biso   1.000  C
  C263     1.0000 0.32061  0.07653  0.35453  Biso   1.000  C
  H279     1.0000 0.24972  0.11569  0.33319  Biso   1.000  H
  C264     1.0000 0.22620  0.14177  0.36691  Biso   1.000  C
  C265     1.0000 0.49000  0.42691  0.19938  Biso   1.000  C
  C266     1.0000 0.62837  0.55707  0.20728  Biso   1.000  C
  C267     1.0000 0.92352  0.24412  0.35453  Biso   1.000  C
  C268     1.0000 0.94364  0.45473  0.21528  Biso   1.000  C
  N41      1.0000 0.37385  0.07288  0.33598  Biso   1.000  N
  H280     1.0000 0.35810  0.10022  0.36880  Biso   1.000  H
  C269     1.0000 0.24250  0.98387  0.35976  Biso   1.000  C
  C270     1.0000 0.15030  0.04998  0.37231  Biso   1.000  C
  H281     1.0000 0.26190  0.16799  0.38120  Biso   1.000  H
  H282     1.0000 0.20230  0.18007  0.36190  Biso   1.000  H
  C271     1.0000 0.51202  0.42831  0.17579  Biso   1.000  C
  H283     1.0000 0.43414  0.38072  0.20460  Biso   1.000  H
  C272     1.0000 0.65282  0.56092  0.18374  Biso   1.000  C
  H284     1.0000 0.66828  0.60068  0.21791  Biso   1.000  H
  C273     1.0000 0.86148  0.14695  0.34781  Biso   1.000  C
  H285     1.0000 0.89979  0.25793  0.36880  Biso   1.000  H
  C274     1.0000 0.01612  0.25859  0.35976  Biso   1.000  C
  C275     1.0000 0.93691  0.51001  0.19938  Biso   1.000  C
  C276     1.0000 0.92870  0.37163  0.20728  Biso   1.000  C
  C277     1.0000 0.45138  0.08768  0.34112  Biso   1.000  C
  C278     1.0000 0.18311  0.98639  0.37898  Biso   1.000  C
  H286     1.0000 0.20690  0.95878  0.34540  Biso   1.000  H
  H287     1.0000 0.26558  0.94451  0.36460  Biso   1.000  H
  H288     1.0000 0.11121  0.02642  0.35850  Biso   1.000  H
  H289     1.0000 0.11479  0.05370  0.38531  Biso   1.000  H
  C279     1.0000 0.59353  0.49442  0.16883  Biso   1.000  C
  C280     1.0000 0.45139  0.36373  0.15888  Biso   1.000  C
  C281     1.0000 0.74118  0.63440  0.17673  Biso   1.000  C
  N42      1.0000 0.77149  0.13135  0.34342  Biso   1.000  N
  H290     1.0000 0.88433  0.13401  0.33319  Biso   1.000  H
  C282     1.0000 0.85822  0.08443  0.36691  Biso   1.000  C
  C283     1.0000 0.01364  0.19673  0.37898  Biso   1.000  C
  H291     1.0000 0.04122  0.24810  0.34540  Biso   1.000  H
  H292     1.0000 0.05547  0.32098  0.36460  Biso   1.000  H
  C284     1.0000 0.91629  0.48798  0.17579  Biso   1.000  C
  H293     1.0000 0.94663  0.56590  0.20460  Biso   1.000  H
  C285     1.0000 0.90809  0.34720  0.18374  Biso   1.000  C
  H294     1.0000 0.93240  0.33167  0.21791  Biso   1.000  H
  C286     1.0000 0.51199  0.08370  0.32421  Biso   1.000  C
  H295     1.0000 0.47087  0.10228  0.35679  Biso   1.000  H
  H296     1.0000 0.21686  0.00617  0.39370  Biso   1.000  H
  H297     1.0000 0.13186  0.92619  0.38141  Biso   1.000  H
  H298     1.0000 0.61049  0.49521  0.15310  Biso   1.000  H
  N43      1.0000 0.37387  0.30100  0.16402  Biso   1.000  N
  H299     1.0000 0.47089  0.36857  0.14321  Biso   1.000  H
  N44      1.0000 0.77149  0.64017  0.15658  Biso   1.000  N
  H300     1.0000 0.77610  0.67860  0.18790  Biso   1.000  H
  C287     1.0000 0.74122  0.10680  0.32327  Biso   1.000  C
  C288     1.0000 0.95001  0.10029  0.37231  Biso   1.000  C
  H301     1.0000 0.83204  0.09392  0.38120  Biso   1.000  H
  H302     1.0000 0.81990  0.02217  0.36190  Biso   1.000  H
  H303     1.0000 0.99376  0.21067  0.39370  Biso   1.000  H
  H304     1.0000 0.07378  0.20563  0.38141  Biso   1.000  H
  C289     1.0000 0.91227  0.54858  0.15888  Biso   1.000  C
  C290     1.0000 0.90088  0.40647  0.16883  Biso   1.000  C
  C291     1.0000 0.89321  0.25879  0.17673  Biso   1.000  C
  C292     1.0000 0.59349  0.09910  0.33117  Biso   1.000  C
  C293     1.0000 0.49003  0.06312  0.30062  Biso   1.000  C
  C294     1.0000 0.32060  0.24412  0.14547  Biso   1.000  C
  C295     1.0000 0.86151  0.71458  0.15219  Biso   1.000  C
  C296     1.0000 0.65279  0.09193  0.31626  Biso   1.000  C
  H305     1.0000 0.77612  0.09750  0.31210  Biso   1.000  H
  H306     1.0000 0.97361  0.08483  0.35850  Biso   1.000  H
  H307     1.0000 0.94630  0.06113  0.38531  Biso   1.000  H
  N45      1.0000 0.92716  0.62617  0.16402  Biso   1.000  N
  H308     1.0000 0.89772  0.52913  0.14321  Biso   1.000  H
  H309     1.0000 0.88469  0.38948  0.15310  Biso   1.000  H
  N46      1.0000 0.86864  0.22852  0.15658  Biso   1.000  N
  H310     1.0000 0.90248  0.22388  0.18790  Biso   1.000  H
  H311     1.0000 0.61050  0.11529  0.34690  Biso   1.000  H
  H312     1.0000 0.43414  0.05343  0.29540  Biso   1.000  H
  C297     1.0000 0.54531  0.05642  0.28472  Biso   1.000  C
  C298     1.0000 0.24248  0.25859  0.14024  Biso   1.000  C
  H313     1.0000 0.35814  0.25793  0.13120  Biso   1.000  H
  C299     1.0000 0.28547  0.14695  0.15219  Biso   1.000  C
  C300     1.0000 0.92348  0.67940  0.14547  Biso   1.000  C
  H314     1.0000 0.88431  0.75029  0.16681  Biso   1.000  H
  C301     1.0000 0.85818  0.77378  0.13309  Biso   1.000  C
  C302     1.0000 0.62839  0.07129  0.29272  Biso   1.000  C
  C303     1.0000 0.85307  0.13852  0.15219  Biso   1.000  C
  C304     1.0000 0.52769  0.04739  0.26049  Biso   1.000  C
  C305     1.0000 0.18309  0.19673  0.12102  Biso   1.000  C
  H315     1.0000 0.20688  0.24810  0.15460  Biso   1.000  H
  H316     1.0000 0.26551  0.32098  0.13540  Biso   1.000  H
  N47      1.0000 0.35987  0.13135  0.15658  Biso   1.000  N
  H317     1.0000 0.24968  0.13401  0.16681  Biso   1.000  H
  C306     1.0000 0.22621  0.08443  0.13309  Biso   1.000  C
  H318     1.0000 0.89978  0.64190  0.13120  Biso   1.000  H
  C307     1.0000 0.01611  0.75752  0.14024  Biso   1.000  C
  C308     1.0000 0.95001  0.84971  0.12769  Biso   1.000  C
  H319     1.0000 0.83199  0.73807  0.11880  Biso   1.000  H
  H320     1.0000 0.81989  0.79768  0.13810  Biso   1.000  H
  H321     1.0000 0.66826  0.06757  0.28209  Biso   1.000  H
  C309     1.0000 0.75592  0.07653  0.14547  Biso   1.000  C
  H322     1.0000 0.86597  0.11569  0.16681  Biso   1.000  H
  C310     1.0000 0.91557  0.14177  0.13309  Biso   1.000  C
  C311     1.0000 0.51970  0.04739  0.23951  Biso   1.000  C
  C312     1.0000 0.15028  0.10029  0.12769  Biso   1.000  C
  H323     1.0000 0.13184  0.20563  0.11859  Biso   1.000  H
  H324     1.0000 0.21691  0.21067  0.10630  Biso   1.000  H
  C313     1.0000 0.36558  0.10680  0.17673  Biso   1.000  C
  H325     1.0000 0.26188  0.09392  0.11880  Biso   1.000  H
  H326     1.0000 0.20227  0.02217  0.13810  Biso   1.000  H
  C314     1.0000 0.01362  0.81693  0.12102  Biso   1.000  C
  H327     1.0000 0.04120  0.79310  0.15460  Biso   1.000  H
  H328     1.0000 0.05547  0.73449  0.13540  Biso   1.000  H
  H329     1.0000 0.97358  0.88881  0.14150  Biso   1.000  H
  H330     1.0000 0.94632  0.88522  0.11469  Biso   1.000  H
  N48      1.0000 0.69902  0.07288  0.16402  Biso   1.000  N
  H331     1.0000 0.74213  0.10022  0.13120  Biso   1.000  H
  C315     1.0000 0.74143  0.98387  0.14024  Biso   1.000  C
  H332     1.0000 0.90609  0.16799  0.11880  Biso   1.000  H
  H333     1.0000 0.97777  0.18007  0.13810  Biso   1.000  H
  C316     1.0000 0.89968  0.04998  0.12769  Biso   1.000  C
  C317     1.0000 0.51111  0.05642  0.21528  Biso   1.000  C
  H334     1.0000 0.11122  0.08483  0.14150  Biso   1.000  H
  H335     1.0000 0.11483  0.06113  0.11469  Biso   1.000  H
  H336     1.0000 0.32138  0.09750  0.18790  Biso   1.000  H
  C318     1.0000 0.43913  0.09193  0.18374  Biso   1.000  C
  H337     1.0000 0.99377  0.78308  0.10630  Biso   1.000  H
  H338     1.0000 0.07382  0.86823  0.11859  Biso   1.000  H
  C319     1.0000 0.63630  0.08768  0.15888  Biso   1.000  C
  C320     1.0000 0.80334  0.98639  0.12102  Biso   1.000  C
  H339     1.0000 0.75194  0.95878  0.15460  Biso   1.000  H
  H340     1.0000 0.67904  0.94451  0.13540  Biso   1.000  H
  H341     1.0000 0.91520  0.02642  0.14150  Biso   1.000  H
  H342     1.0000 0.93890  0.05370  0.11469  Biso   1.000  H
  C321     1.0000 0.57309  0.06312  0.19938  Biso   1.000  C
  C322     1.0000 0.44290  0.07129  0.20728  Biso   1.000  C
  C323     1.0000 0.50560  0.09910  0.16883  Biso   1.000  C
  C324     1.0000 0.57171  0.08370  0.17579  Biso   1.000  C
  H343     1.0000 0.63141  0.10228  0.14321  Biso   1.000  H
  H344     1.0000 0.78931  0.00617  0.10630  Biso   1.000  H
  H345     1.0000 0.79445  0.92619  0.11859  Biso   1.000  H
  H346     1.0000 0.61929  0.05343  0.20460  Biso   1.000  H
  H347     1.0000 0.39931  0.06757  0.21791  Biso   1.000  H
  H348     1.0000 0.50479  0.11529  0.15310  Biso   1.000  H
  C325     1.0000 0.65837  0.50431  0.86953  Biso   1.000  C
  C326     1.0000 0.66469  0.57247  0.88682  Biso   1.000  C
  H349     1.0000 0.71860  0.51439  0.86610  Biso   1.000  H
  H350     1.0000 0.63227  0.51028  0.85479  Biso   1.000  H
  C327     1.0000 0.60117  0.41152  0.87928  Biso   1.000  C
  H351     1.0000 0.70079  0.63247  0.88010  Biso   1.000  H
  H352     1.0000 0.69491  0.56922  0.90110  Biso   1.000  H
  C328     1.0000 0.57330  0.55754  0.89320  Biso   1.000  C
  C329     1.0000 0.50903  0.39519  0.88527  Biso   1.000  C
  H353     1.0000 0.62941  0.40441  0.89341  Biso   1.000  H
  H354     1.0000 0.59619  0.36718  0.86770  Biso   1.000  H
  N49      1.0000 0.58391  0.62232  0.91122  Biso   1.000  N
  C330     1.0000 0.51368  0.46428  0.90274  Biso   1.000  C
  H355     1.0000 0.54503  0.56663  0.87911  Biso   1.000  H
  H356     1.0000 0.47342  0.33512  0.89199  Biso   1.000  H
  H357     1.0000 0.47911  0.39778  0.87090  Biso   1.000  H
  C331     1.0000 0.57076  0.68431  0.90595  Biso   1.000  C
  N50      1.0000 0.42375  0.44961  0.90642  Biso   1.000  N
  H358     1.0000 0.53812  0.45751  0.91789  Biso   1.000  H
  C332     1.0000 0.58487  0.75380  0.92317  Biso   1.000  C
  H359     1.0000 0.55153  0.68723  0.89071  Biso   1.000  H
  C333     1.0000 0.39651  0.43641  0.92740  Biso   1.000  C
  C334     1.0000 0.56804  0.82177  0.91720  Biso   1.000  C
  C335     1.0000 0.61092  0.74922  0.94562  Biso   1.000  C
  C336     1.0000 0.30576  0.41941  0.93357  Biso   1.000  C
  H360     1.0000 0.43460  0.43740  0.93941  Biso   1.000  H
  H361     1.0000 0.54801  0.82403  0.90199  Biso   1.000  H
  C337     1.0000 0.58056  0.88635  0.93357  Biso   1.000  C
  C338     1.0000 0.62389  0.81367  0.96215  Biso   1.000  C
  H362     1.0000 0.62009  0.70170  0.94991  Biso   1.000  H
  C339     1.0000 0.25369  0.43196  0.91720  Biso   1.000  C
  C340     1.0000 0.27351  0.39194  0.95620  Biso   1.000  C
  C341     1.0000 0.60806  0.88157  0.95620  Biso   1.000  C
  C342     1.0000 0.56357  0.96009  0.92740  Biso   1.000  C
  C343     1.0000 0.65720  0.80684  0.98525  Biso   1.000  C
  H363     1.0000 0.27601  0.45200  0.90199  Biso   1.000  H
  C344     1.0000 0.16896  0.41517  0.92317  Biso   1.000  C
  H364     1.0000 0.30908  0.38410  0.96739  Biso   1.000  H
  C345     1.0000 0.18979  0.37614  0.96215  Biso   1.000  C
  H365     1.0000 0.61591  0.92498  0.96739  Biso   1.000  H
  H366     1.0000 0.56257  0.99720  0.93941  Biso   1.000  H
  N51      1.0000 0.55039  0.97410  0.90642  Biso   1.000  N
  H367     1.0000 0.66431  0.75679  0.98781  Biso   1.000  H
  N52      1.0000 0.67707  0.86060  0.00174  Biso   1.000  N
  C346     1.0000 0.11357  0.42924  0.90595  Biso   1.000  C
  C347     1.0000 0.13832  0.38908  0.94562  Biso   1.000  C
  C348     1.0000 0.14968  0.34282  0.98525  Biso   1.000  C
  C349     1.0000 0.53572  0.04937  0.90274  Biso   1.000  C
  C350     1.0000 0.71574  0.84414  0.02261  Biso   1.000  C
  N53      1.0000 0.03842  0.41610  0.91122  Biso   1.000  N
  H368     1.0000 0.13566  0.44849  0.89071  Biso   1.000  H
  H369     1.0000 0.08161  0.37992  0.94991  Biso   1.000  H
  H370     1.0000 0.09250  0.33572  0.98781  Biso   1.000  H
  N54      1.0000 0.18353  0.32291  0.00174  Biso   1.000  N
  H371     1.0000 0.54244  0.08063  0.91789  Biso   1.000  H
  C351     1.0000 0.44242  0.01578  0.89320  Biso   1.000  C
  C352     1.0000 0.60482  0.11388  0.88527  Biso   1.000  C
  H372     1.0000 0.70731  0.78301  0.02160  Biso   1.000  H
  C353     1.0000 0.67005  0.85071  0.04466  Biso   1.000  C
  C354     1.0000 0.81339  0.90998  0.02343  Biso   1.000  C
  C355     1.0000 0.98424  0.42672  0.89320  Biso   1.000  C
  C356     1.0000 0.12840  0.28428  0.02261  Biso   1.000  C
  N55      1.0000 0.37769  0.96162  0.91122  Biso   1.000  N
  H373     1.0000 0.43339  0.97841  0.87911  Biso   1.000  H
  C357     1.0000 0.42754  0.09224  0.88682  Biso   1.000  C
  H374     1.0000 0.66486  0.13831  0.89199  Biso   1.000  H
  H375     1.0000 0.60221  0.08129  0.87090  Biso   1.000  H
  C358     1.0000 0.58843  0.18961  0.87928  Biso   1.000  C
  N56      1.0000 0.57855  0.77876  0.04448  Biso   1.000  N
  H376     1.0000 0.67177  0.90899  0.04501  Biso   1.000  H
  C359     1.0000 0.71756  0.84261  0.06589  Biso   1.000  C
  H377     1.0000 0.82240  0.97078  0.02411  Biso   1.000  H
  H378     1.0000 0.84182  0.90500  0.00900  Biso   1.000  H
  C360     1.0000 0.85818  0.89438  0.04490  Biso   1.000  C
  H379     1.0000 0.02160  0.45499  0.87911  Biso   1.000  H
  C361     1.0000 0.95058  0.48632  0.90274  Biso   1.000  C
  C362     1.0000 0.90779  0.33532  0.88682  Biso   1.000  C
  H380     1.0000 0.07571  0.29271  0.02160  Biso   1.000  H
  C363     1.0000 0.18061  0.32994  0.04466  Biso   1.000  C
  C364     1.0000 0.09656  0.18658  0.02343  Biso   1.000  C
  C365     1.0000 0.31566  0.88642  0.90595  Biso   1.000  C
  H381     1.0000 0.36745  0.06828  0.88010  Biso   1.000  H
  H382     1.0000 0.43081  0.12570  0.90110  Biso   1.000  H
  C366     1.0000 0.49572  0.15410  0.86953  Biso   1.000  C
  H383     1.0000 0.59560  0.22499  0.89341  Biso   1.000  H
  H384     1.0000 0.63277  0.22897  0.86770  Biso   1.000  H
  C367     1.0000 0.51834  0.79814  0.04473  Biso   1.000  C
  H385     1.0000 0.70648  0.78102  0.06680  Biso   1.000  H
  H386     1.0000 0.69169  0.85330  0.08000  Biso   1.000  H
  C368     1.0000 0.81781  0.90653  0.06598  Biso   1.000  C
  H387     1.0000 0.84928  0.83359  0.04450  Biso   1.000  H
  H388     1.0000 0.92281  0.93719  0.04480  Biso   1.000  H
  N57      1.0000 0.02584  0.57626  0.90642  Biso   1.000  N
  H389     1.0000 0.91940  0.46189  0.91789  Biso   1.000  H
  C369     1.0000 0.88617  0.49097  0.88527  Biso   1.000  C
  H390     1.0000 0.93169  0.29921  0.88010  Biso   1.000  H
  H391     1.0000 0.87429  0.30512  0.90110  Biso   1.000  H
  C370     1.0000 0.84593  0.34162  0.86953  Biso   1.000  C
  N58      1.0000 0.20022  0.42147  0.04448  Biso   1.000  N
  H392     1.0000 0.23722  0.32822  0.04501  Biso   1.000  H
  C371     1.0000 0.12509  0.28249  0.06589  Biso   1.000  C
  H393     1.0000 0.14842  0.17762  0.02411  Biso   1.000  H
  H394     1.0000 0.06316  0.15817  0.00900  Biso   1.000  H
  C372     1.0000 0.03617  0.14177  0.04490  Biso   1.000  C
  C373     1.0000 0.24619  0.83106  0.92317  Biso   1.000  C
  H395     1.0000 0.31283  0.86432  0.89071  Biso   1.000  H
  H396     1.0000 0.48559  0.20422  0.86610  Biso   1.000  H
  H397     1.0000 0.48971  0.12198  0.85479  Biso   1.000  H
  C374     1.0000 0.42399  0.72991  0.04548  Biso   1.000  C
  H398     1.0000 0.53411  0.85887  0.04440  Biso   1.000  H
  H399     1.0000 0.82977  0.96839  0.06671  Biso   1.000  H
  H400     1.0000 0.84443  0.89551  0.07989  Biso   1.000  H
  C375     1.0000 0.03991  0.60347  0.92740  Biso   1.000  C
  H401     1.0000 0.86168  0.52661  0.89199  Biso   1.000  H
  H402     1.0000 0.91872  0.52090  0.87090  Biso   1.000  H
  C376     1.0000 0.81039  0.39884  0.87928  Biso   1.000  C
  H403     1.0000 0.79582  0.28142  0.86610  Biso   1.000  H
  H404     1.0000 0.87800  0.36771  0.85479  Biso   1.000  H
  C377     1.0000 0.27981  0.48167  0.04473  Biso   1.000  C
  H405     1.0000 0.07450  0.29350  0.06680  Biso   1.000  H
  H406     1.0000 0.16163  0.30831  0.08000  Biso   1.000  H
  C378     1.0000 0.08868  0.18220  0.06598  Biso   1.000  C
  H407     1.0000 0.98428  0.15067  0.04450  Biso   1.000  H
  H408     1.0000 0.01440  0.07719  0.04480  Biso   1.000  H
  C379     1.0000 0.17829  0.74630  0.91720  Biso   1.000  C
  C380     1.0000 0.25074  0.86166  0.94562  Biso   1.000  C
  C381     1.0000 0.36066  0.75626  0.04565  Biso   1.000  C
  C382     1.0000 0.39559  0.63931  0.04565  Biso   1.000  C
  C383     1.0000 0.11361  0.69420  0.93357  Biso   1.000  C
  H409     1.0000 0.00281  0.56537  0.93941  Biso   1.000  H
  H410     1.0000 0.77501  0.37063  0.89341  Biso   1.000  H
  H411     1.0000 0.77103  0.40382  0.86770  Biso   1.000  H
  C384     1.0000 0.30587  0.57599  0.04548  Biso   1.000  C
  H412     1.0000 0.32479  0.46588  0.04440  Biso   1.000  H
  H413     1.0000 0.13861  0.17018  0.06671  Biso   1.000  H
  H414     1.0000 0.05112  0.15558  0.07989  Biso   1.000  H
  H415     1.0000 0.17599  0.72400  0.90199  Biso   1.000  H
  C385     1.0000 0.18634  0.81022  0.96215  Biso   1.000  C
  H416     1.0000 0.29832  0.91841  0.94991  Biso   1.000  H
  H417     1.0000 0.37941  0.81779  0.04589  Biso   1.000  H
  C386     1.0000 0.27016  0.69413  0.04548  Biso   1.000  C
  H418     1.0000 0.43842  0.62059  0.04589  Biso   1.000  H
  C387     1.0000 0.11842  0.72646  0.95620  Biso   1.000  C
  C388     1.0000 0.24374  0.60440  0.04565  Biso   1.000  C
  C389     1.0000 0.19314  0.85038  0.98525  Biso   1.000  C
  C390     1.0000 0.20186  0.72022  0.04473  Biso   1.000  C
  H419     1.0000 0.07499  0.69088  0.96739  Biso   1.000  H
  H420     1.0000 0.18221  0.56159  0.04589  Biso   1.000  H
  H421     1.0000 0.24321  0.90753  0.98781  Biso   1.000  H
  N59      1.0000 0.13939  0.81646  0.00174  Biso   1.000  N
  N60      1.0000 0.22125  0.79980  0.04448  Biso   1.000  N
  H422     1.0000 0.14108  0.67522  0.04440  Biso   1.000  H
  C391     1.0000 0.15588  0.87162  0.02261  Biso   1.000  C
  C392     1.0000 0.14930  0.81938  0.04466  Biso   1.000  C
  H423     1.0000 0.21700  0.92432  0.02160  Biso   1.000  H
  C393     1.0000 0.09003  0.90341  0.02343  Biso   1.000  C
  H424     1.0000 0.09102  0.76283  0.04501  Biso   1.000  H
  C394     1.0000 0.15742  0.87494  0.06589  Biso   1.000  C
  H425     1.0000 0.02917  0.85157  0.02411  Biso   1.000  H
  H426     1.0000 0.09500  0.93680  0.00900  Biso   1.000  H
  C395     1.0000 0.10563  0.96381  0.04490  Biso   1.000  C
  H427     1.0000 0.21898  0.92551  0.06680  Biso   1.000  H
  H428     1.0000 0.14670  0.83843  0.08000  Biso   1.000  H
  C396     1.0000 0.09352  0.91131  0.06598  Biso   1.000  C
  H429     1.0000 0.06277  0.98558  0.04480  Biso   1.000  H
  H430     1.0000 0.16636  0.01571  0.04450  Biso   1.000  H
  H431     1.0000 0.03161  0.86140  0.06671  Biso   1.000  H
  H432     1.0000 0.10449  0.94888  0.07989  Biso   1.000  H
  C397     1.0000 0.50430  0.65843  0.13047  Biso   1.000  C
  C398     1.0000 0.41151  0.60115  0.12072  Biso   1.000  C
  C399     1.0000 0.57243  0.66466  0.11318  Biso   1.000  C
  H433     1.0000 0.51440  0.71863  0.13390  Biso   1.000  H
  H434     1.0000 0.51031  0.63227  0.14521  Biso   1.000  H
  C400     1.0000 0.39517  0.50902  0.11473  Biso   1.000  C
  H435     1.0000 0.40444  0.62942  0.10659  Biso   1.000  H
  H436     1.0000 0.36718  0.59617  0.13230  Biso   1.000  H
  C401     1.0000 0.55754  0.57327  0.10680  Biso   1.000  C
  H437     1.0000 0.63250  0.70077  0.11990  Biso   1.000  H
  H438     1.0000 0.56923  0.69493  0.09890  Biso   1.000  H
  C402     1.0000 0.46428  0.51366  0.09726  Biso   1.000  C
  H439     1.0000 0.33510  0.47338  0.10801  Biso   1.000  H
  H440     1.0000 0.39779  0.47908  0.12910  Biso   1.000  H
  N61      1.0000 0.62229  0.58389  0.08878  Biso   1.000  N
  H441     1.0000 0.56657  0.54499  0.12089  Biso   1.000  H
  N62      1.0000 0.44961  0.42373  0.09358  Biso   1.000  N
  H442     1.0000 0.45747  0.53809  0.08211  Biso   1.000  H
  C403     1.0000 0.68433  0.57081  0.09405  Biso   1.000  C
  C404     1.0000 0.43640  0.39652  0.07260  Biso   1.000  C
  C405     1.0000 0.75381  0.58482  0.07683  Biso   1.000  C
  H443     1.0000 0.68720  0.55150  0.10929  Biso   1.000  H
  C406     1.0000 0.41943  0.30578  0.06643  Biso   1.000  C
  H444     1.0000 0.43740  0.43461  0.06059  Biso   1.000  H
  C407     1.0000 0.82175  0.56802  0.08280  Biso   1.000  C
  C408     1.0000 0.74921  0.61090  0.05438  Biso   1.000  C
  C409     1.0000 0.43195  0.25368  0.08280  Biso   1.000  C
  C410     1.0000 0.39192  0.27353  0.04380  Biso   1.000  C
  H445     1.0000 0.82397  0.54798  0.09801  Biso   1.000  H
  C411     1.0000 0.88636  0.58057  0.06643  Biso   1.000  C
  C412     1.0000 0.81365  0.62391  0.03785  Biso   1.000  C
  H446     1.0000 0.70174  0.62013  0.05009  Biso   1.000  H
  H447     1.0000 0.45201  0.27598  0.09801  Biso   1.000  H
  C413     1.0000 0.41518  0.16899  0.07683  Biso   1.000  C
  H448     1.0000 0.38407  0.30910  0.03261  Biso   1.000  H
  C414     1.0000 0.37614  0.18976  0.03785  Biso   1.000  C
  C415     1.0000 0.88159  0.60805  0.04380  Biso   1.000  C
  C416     1.0000 0.96007  0.56358  0.07260  Biso   1.000  C
  C417     1.0000 0.80686  0.65723  0.01475  Biso   1.000  C
  C418     1.0000 0.42920  0.11357  0.09405  Biso   1.000  C
  C419     1.0000 0.38910  0.13832  0.05438  Biso   1.000  C
  C420     1.0000 0.34281  0.14967  0.01475  Biso   1.000  C
  H449     1.0000 0.92500  0.61588  0.03261  Biso   1.000  H
  N63      1.0000 0.97410  0.55037  0.09358  Biso   1.000  N
  H450     1.0000 0.99722  0.56258  0.06059  Biso   1.000  H
  H451     1.0000 0.75684  0.66433  0.01219  Biso   1.000  H
  N64      1.0000 0.86064  0.67708  0.99826  Biso   1.000  N
  N65      1.0000 0.41609  0.03836  0.08878  Biso   1.000  N
  H452     1.0000 0.44847  0.13567  0.10929  Biso   1.000  H
  H453     1.0000 0.37987  0.08157  0.05009  Biso   1.000  H
  H454     1.0000 0.33574  0.09252  0.01219  Biso   1.000  H
  N66      1.0000 0.32295  0.18352  0.99826  Biso   1.000  N
  C421     1.0000 0.04936  0.53570  0.09726  Biso   1.000  C
  C422     1.0000 0.84412  0.71577  0.97739  Biso   1.000  C
  C423     1.0000 0.42675  0.98427  0.10680  Biso   1.000  C
  C424     1.0000 0.28422  0.12837  0.97739  Biso   1.000  C
  H455     1.0000 0.08057  0.54247  0.08211  Biso   1.000  H
  C425     1.0000 0.01573  0.44245  0.10680  Biso   1.000  C
  C426     1.0000 0.11386  0.60480  0.11473  Biso   1.000  C
  H456     1.0000 0.78297  0.70728  0.97840  Biso   1.000  H
  C427     1.0000 0.85068  0.67004  0.95534  Biso   1.000  C
  C428     1.0000 0.91001  0.81341  0.97657  Biso   1.000  C
  H457     1.0000 0.45500  0.02157  0.12089  Biso   1.000  H
  C429     1.0000 0.48632  0.95062  0.09726  Biso   1.000  C
  C430     1.0000 0.33535  0.90781  0.11318  Biso   1.000  C
  H458     1.0000 0.29274  0.07573  0.97840  Biso   1.000  H
  C431     1.0000 0.32994  0.18060  0.95534  Biso   1.000  C
  C432     1.0000 0.18659  0.09657  0.97657  Biso   1.000  C
  N67      1.0000 0.96161  0.37767  0.08878  Biso   1.000  N
  H459     1.0000 0.97839  0.43342  0.12089  Biso   1.000  H
  C433     1.0000 0.09218  0.42751  0.11318  Biso   1.000  C
  H460     1.0000 0.13829  0.66493  0.10801  Biso   1.000  H
  H461     1.0000 0.08130  0.60221  0.12910  Biso   1.000  H
  C434     1.0000 0.18962  0.58847  0.12072  Biso   1.000  C
  N68      1.0000 0.77877  0.57851  0.95552  Biso   1.000  N
  H462     1.0000 0.90900  0.67183  0.95499  Biso   1.000  H
  C435     1.0000 0.84257  0.71750  0.93411  Biso   1.000  C
  H463     1.0000 0.97076  0.82237  0.97589  Biso   1.000  H
  H464     1.0000 0.90501  0.84182  0.99100  Biso   1.000  H
  C436     1.0000 0.89442  0.85821  0.95510  Biso   1.000  C
  N69      1.0000 0.57626  0.02589  0.09358  Biso   1.000  N
  H465     1.0000 0.46198  0.91942  0.08211  Biso   1.000  H
  C437     1.0000 0.49094  0.88617  0.11473  Biso   1.000  C
  H466     1.0000 0.29924  0.93170  0.11990  Biso   1.000  H
  H467     1.0000 0.30514  0.87429  0.09890  Biso   1.000  H
  C438     1.0000 0.34163  0.84588  0.13047  Biso   1.000  C
  N70      1.0000 0.42150  0.20025  0.95552  Biso   1.000  N
  H468     1.0000 0.32819  0.23722  0.95499  Biso   1.000  H
  C439     1.0000 0.28245  0.12505  0.93411  Biso   1.000  C
  H469     1.0000 0.17761  0.14841  0.97589  Biso   1.000  H
  H470     1.0000 0.15817  0.06319  0.99100  Biso   1.000  H
  C440     1.0000 0.14179  0.03617  0.95510  Biso   1.000  C
  C441     1.0000 0.88647  0.31567  0.09405  Biso   1.000  C
  H471     1.0000 0.06833  0.36751  0.11990  Biso   1.000  H
  H472     1.0000 0.12569  0.43083  0.09890  Biso   1.000  H
  C442     1.0000 0.15409  0.49568  0.13047  Biso   1.000  C
  H473     1.0000 0.22496  0.59557  0.10659  Biso   1.000  H
  H474     1.0000 0.22903  0.63281  0.13230  Biso   1.000  H
  C443     1.0000 0.79810  0.51831  0.95527  Biso   1.000  C
  H475     1.0000 0.78101  0.70648  0.93320  Biso   1.000  H
  H476     1.0000 0.85328  0.69168  0.92000  Biso   1.000  H
  C444     1.0000 0.90651  0.81779  0.93402  Biso   1.000  C
  H477     1.0000 0.83364  0.84932  0.95550  Biso   1.000  H
  H478     1.0000 0.93717  0.92279  0.95520  Biso   1.000  H
  C445     1.0000 0.60349  0.03989  0.07260  Biso   1.000  C
  H479     1.0000 0.52657  0.86168  0.10801  Biso   1.000  H
  H480     1.0000 0.52094  0.91869  0.12910  Biso   1.000  H
  C446     1.0000 0.39883  0.81037  0.12072  Biso   1.000  C
  H481     1.0000 0.28146  0.79577  0.13390  Biso   1.000  H
  H482     1.0000 0.36770  0.87801  0.14521  Biso   1.000  H
  C447     1.0000 0.48170  0.27983  0.95527  Biso   1.000  C
  H483     1.0000 0.29349  0.07447  0.93320  Biso   1.000  H
  H484     1.0000 0.30832  0.16162  0.92000  Biso   1.000  H
  C448     1.0000 0.18218  0.08868  0.93402  Biso   1.000  C
  H485     1.0000 0.15073  0.98427  0.95550  Biso   1.000  H
  H486     1.0000 0.07721  0.01440  0.95520  Biso   1.000  H
  C449     1.0000 0.83103  0.24618  0.07683  Biso   1.000  C
  H487     1.0000 0.86429  0.31282  0.10929  Biso   1.000  H
  H488     1.0000 0.20417  0.48559  0.13390  Biso   1.000  H
  H489     1.0000 0.12201  0.48970  0.14521  Biso   1.000  H
  C450     1.0000 0.72990  0.42399  0.95452  Biso   1.000  C
  H490     1.0000 0.85888  0.53411  0.95560  Biso   1.000  H
  H491     1.0000 0.96839  0.82980  0.93329  Biso   1.000  H
  H492     1.0000 0.89550  0.84440  0.92011  Biso   1.000  H
  C451     1.0000 0.69422  0.11363  0.06643  Biso   1.000  C
  H493     1.0000 0.56540  0.00279  0.06059  Biso   1.000  H
  H494     1.0000 0.37063  0.77499  0.10659  Biso   1.000  H
  H495     1.0000 0.40387  0.77101  0.13230  Biso   1.000  H
  C452     1.0000 0.57602  0.30592  0.95452  Biso   1.000  C
  H496     1.0000 0.46592  0.32483  0.95560  Biso   1.000  H
  H497     1.0000 0.17017  0.13859  0.93329  Biso   1.000  H
  H498     1.0000 0.15558  0.05111  0.92011  Biso   1.000  H
  C453     1.0000 0.74632  0.17828  0.08280  Biso   1.000  C
  C454     1.0000 0.86166  0.25076  0.05438  Biso   1.000  C
  C455     1.0000 0.63931  0.39559  0.95435  Biso   1.000  C
  C456     1.0000 0.75624  0.36067  0.95435  Biso   1.000  C
  C457     1.0000 0.72650  0.11841  0.04380  Biso   1.000  C
  C458     1.0000 0.60442  0.24372  0.95435  Biso   1.000  C
  H499     1.0000 0.72398  0.17602  0.09801  Biso   1.000  H
  C459     1.0000 0.81023  0.18631  0.03785  Biso   1.000  C
  H500     1.0000 0.91841  0.29828  0.05009  Biso   1.000  H
  H501     1.0000 0.62059  0.43840  0.95411  Biso   1.000  H
  C460     1.0000 0.69413  0.27014  0.95452  Biso   1.000  C
  H502     1.0000 0.81779  0.37939  0.95411  Biso   1.000  H
  H503     1.0000 0.69089  0.07500  0.03261  Biso   1.000  H
  H504     1.0000 0.56158  0.18220  0.95411  Biso   1.000  H
  C461     1.0000 0.85032  0.19315  0.01475  Biso   1.000  C
  C462     1.0000 0.72017  0.20184  0.95527  Biso   1.000  C
  H505     1.0000 0.90748  0.24319  0.01219  Biso   1.000  H
  N71      1.0000 0.81643  0.13938  0.99826  Biso   1.000  N
  N72      1.0000 0.79975  0.22122  0.95552  Biso   1.000  N
  H506     1.0000 0.67520  0.14111  0.95560  Biso   1.000  H
  C463     1.0000 0.87162  0.15585  0.97739  Biso   1.000  C
  C464     1.0000 0.81940  0.14934  0.95534  Biso   1.000  C
  H507     1.0000 0.92426  0.21698  0.97840  Biso   1.000  H
  C465     1.0000 0.90343  0.09000  0.97657  Biso   1.000  C
  H508     1.0000 0.76281  0.09100  0.95499  Biso   1.000  H
  C466     1.0000 0.87492  0.15737  0.93411  Biso   1.000  C
  H509     1.0000 0.85159  0.02920  0.97589  Biso   1.000  H
  H510     1.0000 0.93678  0.09498  0.99100  Biso   1.000  H
  C467     1.0000 0.96382  0.10560  0.95510  Biso   1.000  C
  H511     1.0000 0.92552  0.21903  0.93320  Biso   1.000  H
  H512     1.0000 0.83842  0.14669  0.92000  Biso   1.000  H
  C468     1.0000 0.91133  0.09352  0.93402  Biso   1.000  C
  H513     1.0000 0.98558  0.06279  0.95520  Biso   1.000  H
  H514     1.0000 0.01572  0.16640  0.95550  Biso   1.000  H
  H515     1.0000 0.86140  0.03159  0.93329  Biso   1.000  H
  H516     1.0000 0.94888  0.10447  0.92011  Biso   1.000  H
  Ne1      1.0000 0.66667  0.33334  0.25000  Biso   1.000  Ne
  He1      1.0000 0.66666  0.33332  0.33348  Biso   1.000  He
  He2      1.0000 0.75826  0.50397  0.24797  Biso   1.000  He
  He3      1.0000 0.43020  0.24066  0.24129  Biso   1.000  He
  He4      1.0000 0.76387  0.25318  0.25275  Biso   1.000  He
  He5      1.0000 0.66666  0.33333  0.16573  Biso   1.000  He
  Ar1      1.0000 0.66665  0.33330  0.25000  Biso   1.000  Ar
  Ne2      1.0000 0.66667  0.33333  0.46572  Biso   1.000  Ne
  He6      1.0000 0.82431  0.42758  0.48431  Biso   1.000  He
  He7      1.0000 0.57399  0.39551  0.48408  Biso   1.000  He
  He8      1.0000 0.60590  0.18182  0.48380  Biso   1.000  He
  He9      1.0000 0.66667  0.33333  0.41515  Biso   1.000  He
  Ar2      1.0000 0.66664  0.33335  0.46572  Biso   1.000  Ar
  Ne3      1.0000 0.66667  0.33333  0.03428  Biso   1.000  Ne
  He10     1.0000 0.66665  0.33332  0.08519  Biso   1.000  He
  He11     1.0000 0.83687  0.40210  0.01464  Biso   1.000  He
  He12     1.0000 0.57426  0.17890  0.01596  Biso   1.000  He
  He13     1.0000 0.60186  0.42946  0.01541  Biso   1.000  He
  Ar3      1.0000 0.66670  0.33335  0.03428  Biso   1.000  Ar
  Ne4      1.0000 0.33333  0.66667  0.53428  Biso   1.000  Ne
  He14     1.0000 0.33332  0.66667  0.58576  Biso   1.000  He
  He15     1.0000 0.43311  0.83396  0.51489  Biso   1.000  He
  He16     1.0000 0.40646  0.55942  0.51380  Biso   1.000  He
  He17     1.0000 0.17430  0.60269  0.51557  Biso   1.000  He
  Ar4      1.0000 0.33334  0.66668  0.52750  Biso   1.000  Ar
  Ne5      1.0000 0.33333  0.66667  0.75000  Biso   1.000  Ne
  He18     1.0000 0.33333  0.66665  0.83414  Biso   1.000  He
  He19     1.0000 0.24155  0.43483  0.75803  Biso   1.000  He
  He20     1.0000 0.17927  0.76169  0.76053  Biso   1.000  He
  He21     1.0000 0.56728  0.75885  0.74166  Biso   1.000  He
  He22     1.0000 0.33332  0.66665  0.66699  Biso   1.000  He
  Ar5      1.0000 0.33333  0.66666  0.75000  Biso   1.000  Ar
  Ne6      1.0000 0.33333  0.66667  0.96572  Biso   1.000  Ne
  He23     1.0000 0.44334  0.59142  0.98661  Biso   1.000  He
  He24     1.0000 0.16198  0.56457  0.98545  Biso   1.000  He
  He25     1.0000 0.40218  0.83705  0.98537  Biso   1.000  He
  He26     1.0000 0.33335  0.66666  0.91412  Biso   1.000  He
  Ar6      1.0000 0.33333  0.66667  0.97250  Biso   1.000  Ar
