data_image0
_cell_length_a       28.108
_cell_length_b       28.108
_cell_length_c       21.896
_cell_angle_alpha    90
_cell_angle_beta     90
_cell_angle_gamma    90

_symmetry_space_group_name_H-M    "P 1"
_symmetry_int_tables_number       1

loop_
  _symmetry_equiv_pos_as_xyz
  'x, y, z'

loop_
  _atom_site_label
  _atom_site_occupancy
  _atom_site_fract_x
  _atom_site_fract_y
  _atom_site_fract_z
  _atom_site_thermal_displace_type
  _atom_site_B_iso_or_equiv
  _atom_site_type_symbol
  C1       1.0000 0.36844  0.33361  0.62911  Biso   1.000  C
  C2       1.0000 0.33510  0.33852  0.57344  Biso   1.000  C
  N1       1.0000 0.41444  0.32293  0.60198  Biso   1.000  N
  N2       1.0000 0.36545  0.37943  0.65857  Biso   1.000  N
  H1       1.0000 0.35780  0.30749  0.65688  Biso   1.000  H
  N3       1.0000 0.36584  0.32756  0.52238  Biso   1.000  N
  N4       1.0000 0.31920  0.38722  0.57741  Biso   1.000  N
  H2       1.0000 0.30781  0.31582  0.57600  Biso   1.000  H
  C3       1.0000 0.41020  0.31596  0.54037  Biso   1.000  C
  C4       1.0000 0.45183  0.30059  0.63651  Biso   1.000  C
  C5       1.0000 0.33435  0.40939  0.62879  Biso   1.000  C
  C6       1.0000 0.38320  0.38879  0.71894  Biso   1.000  C
  C7       1.0000 0.34734  0.31624  0.46150  Biso   1.000  C
  C8       1.0000 0.28127  0.40604  0.53992  Biso   1.000  C
  O1       1.0000 0.44269  0.30176  0.50735  Biso   1.000  O
  N5       1.0000 0.48111  0.33400  0.67003  Biso   1.000  N
  H3       1.0000 0.43749  0.27779  0.66560  Biso   1.000  H
  H4       1.0000 0.47232  0.28230  0.60819  Biso   1.000  H
  O2       1.0000 0.32165  0.44824  0.64779  Biso   1.000  O
  N6       1.0000 0.43425  0.39416  0.72246  Biso   1.000  N
  H5       1.0000 0.36812  0.41821  0.73447  Biso   1.000  H
  H6       1.0000 0.37349  0.36232  0.74607  Biso   1.000  H
  N7       1.0000 0.33983  0.35837  0.42442  Biso   1.000  N
  H7       1.0000 0.31681  0.29899  0.46579  Biso   1.000  H
  H8       1.0000 0.37000  0.29490  0.44040  Biso   1.000  H
  N8       1.0000 0.29636  0.41952  0.47849  Biso   1.000  N
  H9       1.0000 0.25580  0.38181  0.53667  Biso   1.000  H
  H10      1.0000 0.26761  0.43429  0.56038  Biso   1.000  H
  C9       1.0000 0.46620  0.35463  0.72739  Biso   1.000  C
  C10      1.0000 0.52857  0.33795  0.66026  Biso   1.000  C
  C11      1.0000 0.45507  0.43653  0.73977  Biso   1.000  C
  C12      1.0000 0.36737  0.36915  0.37527  Biso   1.000  C
  C13      1.0000 0.29718  0.38676  0.42725  Biso   1.000  C
  C14      1.0000 0.29885  0.46553  0.46091  Biso   1.000  C
  H11      1.0000 0.45371  0.32991  0.75598  Biso   1.000  H
  C15      1.0000 0.51299  0.37708  0.75155  Biso   1.000  C
  O3       1.0000 0.55056  0.32012  0.61810  Biso   1.000  O
  N9       1.0000 0.54767  0.36477  0.70652  Biso   1.000  N
  N10      1.0000 0.50181  0.42749  0.75402  Biso   1.000  N
  O4       1.0000 0.43539  0.47460  0.74351  Biso   1.000  O
  O5       1.0000 0.40423  0.34883  0.36048  Biso   1.000  O
  N11      1.0000 0.34645  0.40565  0.34404  Biso   1.000  N
  C16      1.0000 0.30226  0.42049  0.37212  Biso   1.000  C
  H12      1.0000 0.26772  0.36701  0.42492  Biso   1.000  H
  N12      1.0000 0.30429  0.46759  0.39902  Biso   1.000  N
  O6       1.0000 0.29529  0.50064  0.49507  Biso   1.000  O
  H13      1.0000 0.52170  0.36442  0.79270  Biso   1.000  H
  C17      1.0000 0.59844  0.36893  0.71648  Biso   1.000  C
  C18      1.0000 0.52932  0.46140  0.78813  Biso   1.000  C
  C19      1.0000 0.35929  0.41807  0.28243  Biso   1.000  C
  H14      1.0000 0.27480  0.41732  0.34330  Biso   1.000  H
  C20      1.0000 0.29540  0.51071  0.36468  Biso   1.000  C
  N13      1.0000 0.61630  0.41664  0.70698  Biso   1.000  N
  H15      1.0000 0.60581  0.35890  0.75881  Biso   1.000  H
  H16      1.0000 0.61509  0.34702  0.68839  Biso   1.000  H
  N14      1.0000 0.56991  0.47919  0.75585  Biso   1.000  N
  H17      1.0000 0.50861  0.48851  0.79928  Biso   1.000  H
  H18      1.0000 0.54020  0.44621  0.82650  Biso   1.000  H
  N15      1.0000 0.37932  0.46574  0.27635  Biso   1.000  N
  H19      1.0000 0.38281  0.39469  0.26722  Biso   1.000  H
  H20      1.0000 0.33062  0.41572  0.25630  Biso   1.000  H
  N16      1.0000 0.33610  0.52768  0.33184  Biso   1.000  N
  H21      1.0000 0.28462  0.53579  0.39318  Biso   1.000  H
  H22      1.0000 0.26932  0.50470  0.33531  Biso   1.000  H
  C21      1.0000 0.61491  0.45382  0.75215  Biso   1.000  C
  C22      1.0000 0.64498  0.42810  0.65834  Biso   1.000  C
  C23      1.0000 0.57510  0.52686  0.74128  Biso   1.000  C
  C24      1.0000 0.42490  0.47314  0.25872  Biso   1.000  C
  C25      1.0000 0.34994  0.50857  0.27265  Biso   1.000  C
  C26      1.0000 0.35502  0.57190  0.34166  Biso   1.000  C
  H23      1.0000 0.62509  0.44180  0.79311  Biso   1.000  H
  C27      1.0000 0.65006  0.49143  0.72735  Biso   1.000  C
  O7       1.0000 0.65302  0.40252  0.61472  Biso   1.000  O
  N17      1.0000 0.66390  0.47232  0.66811  Biso   1.000  N
  O8       1.0000 0.54376  0.55643  0.74484  Biso   1.000  O
  N18      1.0000 0.62068  0.53426  0.72360  Biso   1.000  N
  O9       1.0000 0.45624  0.44357  0.25516  Biso   1.000  O
  N19      1.0000 0.43009  0.52081  0.24415  Biso   1.000  N
  C28      1.0000 0.38509  0.54621  0.24785  Biso   1.000  C
  H24      1.0000 0.32201  0.50409  0.24498  Biso   1.000  H
  N20      1.0000 0.38370  0.58336  0.29302  Biso   1.000  N
  O10      1.0000 0.34698  0.59752  0.38523  Biso   1.000  O
  H25      1.0000 0.67799  0.49591  0.75498  Biso   1.000  H
  C29      1.0000 0.70460  0.48933  0.63532  Biso   1.000  C
  C30      1.0000 0.64071  0.58193  0.71753  Biso   1.000  C
  C31      1.0000 0.47068  0.53860  0.21187  Biso   1.000  C
  H26      1.0000 0.37491  0.55820  0.20689  Biso   1.000  H
  C32      1.0000 0.40156  0.63110  0.28348  Biso   1.000  C
  N21      1.0000 0.69571  0.53241  0.60098  Biso   1.000  N
  H27      1.0000 0.71542  0.46421  0.60678  Biso   1.000  H
  H28      1.0000 0.73072  0.49530  0.66469  Biso   1.000  H
  N22      1.0000 0.65359  0.59439  0.65596  Biso   1.000  N
  H29      1.0000 0.61719  0.60531  0.73278  Biso   1.000  H
  H30      1.0000 0.66942  0.58432  0.74370  Biso   1.000  H
  N23      1.0000 0.49822  0.57251  0.24598  Biso   1.000  N
  H31      1.0000 0.49139  0.51149  0.20068  Biso   1.000  H
  H32      1.0000 0.45980  0.55379  0.17350  Biso   1.000  H
  N24      1.0000 0.45233  0.63523  0.29343  Biso   1.000  N
  H33      1.0000 0.39419  0.64110  0.24119  Biso   1.000  H
  H34      1.0000 0.38491  0.65302  0.31161  Biso   1.000  H
  C33      1.0000 0.70119  0.53447  0.53909  Biso   1.000  C
  C34      1.0000 0.69774  0.57955  0.62788  Biso   1.000  C
  C35      1.0000 0.63263  0.63085  0.62468  Biso   1.000  C
  C36      1.0000 0.54497  0.56347  0.26023  Biso   1.000  C
  C37      1.0000 0.48701  0.62292  0.24845  Biso   1.000  C
  C38      1.0000 0.47147  0.66205  0.33970  Biso   1.000  C
  N25      1.0000 0.70368  0.58051  0.52147  Biso   1.000  N
  O11      1.0000 0.70471  0.49936  0.50493  Biso   1.000  O
  C39      1.0000 0.70286  0.61324  0.57275  Biso   1.000  C
  H35      1.0000 0.72520  0.58272  0.65670  Biso   1.000  H
  N26      1.0000 0.66017  0.64163  0.57558  Biso   1.000  N
  O12      1.0000 0.59577  0.65117  0.63952  Biso   1.000  O
  O13      1.0000 0.56461  0.52540  0.25644  Biso   1.000  O
  N27      1.0000 0.56575  0.60584  0.27754  Biso   1.000  N
  C40      1.0000 0.53380  0.64537  0.27256  Biso   1.000  C
  H36      1.0000 0.47830  0.63562  0.20730  Biso   1.000  H
  N28      1.0000 0.51889  0.66604  0.32997  Biso   1.000  N
  O14      1.0000 0.44948  0.67988  0.38190  Biso   1.000  O
  C41      1.0000 0.71873  0.59396  0.46008  Biso   1.000  C
  H37      1.0000 0.73232  0.63299  0.57508  Biso   1.000  H
  C42      1.0000 0.65266  0.68376  0.53850  Biso   1.000  C
  C43      1.0000 0.61680  0.61125  0.28101  Biso   1.000  C
  H38      1.0000 0.54632  0.67009  0.24402  Biso   1.000  H
  C44      1.0000 0.54817  0.69941  0.36349  Biso   1.000  C
  N29      1.0000 0.68080  0.61278  0.42259  Biso   1.000  N
  H39      1.0000 0.74420  0.61819  0.46328  Biso   1.000  H
  H40      1.0000 0.73239  0.56571  0.43958  Biso   1.000  H
  N30      1.0000 0.63416  0.67244  0.47762  Biso   1.000  N
  H41      1.0000 0.68322  0.70101  0.53421  Biso   1.000  H
  H42      1.0000 0.63000  0.70510  0.55960  Biso   1.000  H
  N31      1.0000 0.63455  0.62061  0.34139  Biso   1.000  N
  H43      1.0000 0.63192  0.58179  0.26548  Biso   1.000  H
  H44      1.0000 0.62651  0.63772  0.25388  Biso   1.000  H
  N32      1.0000 0.58560  0.67710  0.39802  Biso   1.000  N
  H45      1.0000 0.56251  0.72221  0.33440  Biso   1.000  H
  H46      1.0000 0.52771  0.71770  0.39181  Biso   1.000  H
  C45      1.0000 0.66565  0.59061  0.37121  Biso   1.000  C
  C46      1.0000 0.66490  0.66148  0.42656  Biso   1.000  C
  C47      1.0000 0.58980  0.68408  0.45958  Biso   1.000  C
  C48      1.0000 0.63156  0.66639  0.37089  Biso   1.000  C
  O15      1.0000 0.67835  0.55180  0.35216  Biso   1.000  O
  H47      1.0000 0.69219  0.68422  0.42400  Biso   1.000  H
  O16      1.0000 0.55731  0.69824  0.49265  Biso   1.000  O
  H48      1.0000 0.64220  0.69251  0.34308  Biso   1.000  H
  O17      1.0000 0.30643  0.20624  0.49484  Biso   1.000  O
  C49      1.0000 0.27686  0.17490  0.49128  Biso   1.000  C
  N33      1.0000 0.28426  0.12932  0.47365  Biso   1.000  N
  N34      1.0000 0.22919  0.18009  0.50585  Biso   1.000  N
  C50      1.0000 0.33193  0.10929  0.46753  Biso   1.000  C
  C51      1.0000 0.24143  0.09994  0.47735  Biso   1.000  C
  C52      1.0000 0.20379  0.13509  0.50215  Biso   1.000  C
  C53      1.0000 0.21140  0.22068  0.53813  Biso   1.000  C
  N35      1.0000 0.34439  0.09641  0.40596  Biso   1.000  N
  H49      1.0000 0.35531  0.13281  0.48278  Biso   1.000  H
  H50      1.0000 0.33432  0.08062  0.49370  Biso   1.000  H
  N36      1.0000 0.22232  0.08610  0.41816  Biso   1.000  N
  H51      1.0000 0.24591  0.07201  0.50498  Biso   1.000  H
  N37      1.0000 0.16664  0.13370  0.45698  Biso   1.000  N
  H52      1.0000 0.19180  0.12491  0.54311  Biso   1.000  H
  N38      1.0000 0.17749  0.24819  0.50402  Biso   1.000  N
  H53      1.0000 0.23851  0.24139  0.54928  Biso   1.000  H
  H54      1.0000 0.19621  0.20980  0.57650  Biso   1.000  H
  C54      1.0000 0.38085  0.11737  0.37468  Biso   1.000  C
  C55      1.0000 0.32951  0.05226  0.37788  Biso   1.000  C
  C56      1.0000 0.23933  0.04540  0.38532  Biso   1.000  C
  C57      1.0000 0.17810  0.10502  0.40834  Biso   1.000  C
  C58      1.0000 0.11893  0.15156  0.46648  Biso   1.000  C
  C59      1.0000 0.18653  0.29497  0.48977  Biso   1.000  C
  C60      1.0000 0.12708  0.23701  0.50155  Biso   1.000  C
  N39      1.0000 0.39163  0.08983  0.32558  Biso   1.000  N
  O18      1.0000 0.40117  0.15423  0.38952  Biso   1.000  O
  C61      1.0000 0.36324  0.04718  0.32275  Biso   1.000  C
  N40      1.0000 0.28241  0.05429  0.35098  Biso   1.000  N
  H55      1.0000 0.33272  0.02480  0.40670  Biso   1.000  H
  H56      1.0000 0.21421  0.03462  0.35678  Biso   1.000  H
  H57      1.0000 0.24530  0.01928  0.41469  Biso   1.000  H
  O19      1.0000 0.15252  0.09698  0.36472  Biso   1.000  O
  N41      1.0000 0.11477  0.20233  0.45657  Biso   1.000  N
  H58      1.0000 0.10890  0.14419  0.50881  Biso   1.000  H
  H59      1.0000 0.09698  0.13491  0.43839  Biso   1.000  H
  O20      1.0000 0.22460  0.31461  0.49351  Biso   1.000  O
  N42      1.0000 0.14416  0.31575  0.47246  Biso   1.000  N
  C62      1.0000 0.10463  0.28380  0.47739  Biso   1.000  C
  H60      1.0000 0.11442  0.22830  0.54270  Biso   1.000  H
  C63      1.0000 0.43376  0.09734  0.28850  Biso   1.000  C
  N43      1.0000 0.33048  0.04636  0.27147  Biso   1.000  N
  H61      1.0000 0.38299  0.01772  0.32508  Biso   1.000  H
  C64      1.0000 0.28447  0.04885  0.28909  Biso   1.000  C
  C65      1.0000 0.08795  0.22147  0.41026  Biso   1.000  C
  C66      1.0000 0.13879  0.36680  0.46894  Biso   1.000  C
  N44      1.0000 0.08400  0.26889  0.42003  Biso   1.000  N
  H62      1.0000 0.07991  0.29629  0.50598  Biso   1.000  H
  N45      1.0000 0.42244  0.11584  0.22762  Biso   1.000  N
  H63      1.0000 0.45101  0.06681  0.28421  Biso   1.000  H
  H64      1.0000 0.45510  0.12000  0.30960  Biso   1.000  H
  C67      1.0000 0.34396  0.03127  0.21008  Biso   1.000  C
  O21      1.0000 0.24936  0.04529  0.25493  Biso   1.000  O
  O22      1.0000 0.07012  0.19944  0.36810  Biso   1.000  O
  H65      1.0000 0.16821  0.38192  0.48452  Biso   1.000  H
  H66      1.0000 0.11232  0.37651  0.49612  Biso   1.000  H
  N46      1.0000 0.12939  0.38455  0.40857  Biso   1.000  N
  C68      1.0000 0.05059  0.29817  0.38651  Biso   1.000  C
  C69      1.0000 0.43408  0.16020  0.20958  Biso   1.000  C
  C70      1.0000 0.41148  0.08510  0.17656  Biso   1.000  C
  N47      1.0000 0.36278  0.06920  0.17259  Biso   1.000  N
  H67      1.0000 0.36819  0.00580  0.21328  Biso   1.000  H
  H68      1.0000 0.31571  0.01761  0.18958  Biso   1.000  H
  C71      1.0000 0.08361  0.38156  0.37911  Biso   1.000  C
  C72      1.0000 0.15939  0.41565  0.37879  Biso   1.000  C
  H69      1.0000 0.02779  0.31251  0.41560  Biso   1.000  H
  H70      1.0000 0.03230  0.27771  0.35819  Biso   1.000  H
  N48      1.0000 0.07293  0.33560  0.35198  Biso   1.000  N
  O23      1.0000 0.44824  0.19269  0.24265  Biso   1.000  O
  N49      1.0000 0.42707  0.16444  0.14802  Biso   1.000  N
  C73      1.0000 0.41639  0.11844  0.12089  Biso   1.000  C
  H71      1.0000 0.43422  0.05781  0.17400  Biso   1.000  H
  C74      1.0000 0.34061  0.08435  0.12121  Biso   1.000  C
  C75      1.0000 0.08852  0.41490  0.32344  Biso   1.000  C
  H72      1.0000 0.05749  0.39220  0.40688  Biso   1.000  H
  N50      1.0000 0.13722  0.43080  0.32741  Biso   1.000  N
  O24      1.0000 0.19824  0.42835  0.39779  Biso   1.000  O
  C76      1.0000 0.06592  0.33980  0.29042  Biso   1.000  C
  C77      1.0000 0.44941  0.20183  0.11349  Biso   1.000  C
  N51      1.0000 0.37061  0.11545  0.09139  Biso   1.000  N
  H73      1.0000 0.44251  0.10780  0.09308  Biso   1.000  H
  O25      1.0000 0.30176  0.07165  0.10221  Biso   1.000  O
  N52      1.0000 0.07756  0.38416  0.27238  Biso   1.000  N
  H74      1.0000 0.06582  0.44219  0.32600  Biso   1.000  H
  C78      1.0000 0.15604  0.46873  0.28992  Biso   1.000  C
  O26      1.0000 0.05176  0.30731  0.25735  Biso   1.000  O
  N53      1.0000 0.41604  0.23111  0.07997  Biso   1.000  N
  H75      1.0000 0.47221  0.18749  0.08440  Biso   1.000  H
  H76      1.0000 0.46770  0.22229  0.14181  Biso   1.000  H
  C79      1.0000 0.36125  0.13320  0.03101  Biso   1.000  C
  C80      1.0000 0.06624  0.40266  0.21150  Biso   1.000  C
  N54      1.0000 0.16952  0.45368  0.22849  Biso   1.000  N
  H77      1.0000 0.13181  0.49420  0.28672  Biso   1.000  H
  H78      1.0000 0.18429  0.48239  0.31038  Biso   1.000  H
  C81      1.0000 0.39537  0.21620  0.02256  Biso   1.000  C
  C82      1.0000 0.41205  0.27857  0.08970  Biso   1.000  C
  N55      1.0000 0.35584  0.18425  0.02754  Biso   1.000  N
  H79      1.0000 0.33179  0.11812  0.01548  Biso   1.000  H
  H80      1.0000 0.38772  0.12349  0.00388  Biso   1.000  H
  N56      1.0000 0.10837  0.41017  0.17442  Biso   1.000  N
  H81      1.0000 0.04899  0.43319  0.21579  Biso   1.000  H
  H82      1.0000 0.04490  0.38000  0.19040  Biso   1.000  H
  C83      1.0000 0.21553  0.45119  0.21091  Biso   1.000  C
  C84      1.0000 0.13676  0.45286  0.17725  Biso   1.000  C
  H83      1.0000 0.42009  0.20371  0.99402  Biso   1.000  H
  C85      1.0000 0.37292  0.26299  0.99845  Biso   1.000  C
  O27      1.0000 0.42988  0.30056  0.13190  Biso   1.000  O
  N57      1.0000 0.38523  0.29767  0.04343  Biso   1.000  N
  C86      1.0000 0.31347  0.20507  0.01023  Biso   1.000  C
  C87      1.0000 0.11915  0.38263  0.12532  Biso   1.000  C
  N58      1.0000 0.21759  0.44571  0.14902  Biso   1.000  N
  O28      1.0000 0.25064  0.45471  0.24507  Biso   1.000  O
  C88      1.0000 0.17049  0.44774  0.12212  Biso   1.000  C
  H84      1.0000 0.11701  0.48232  0.17492  Biso   1.000  H
  N59      1.0000 0.32251  0.25181  0.99598  Biso   1.000  N
  H85      1.0000 0.38562  0.27170  0.95730  Biso   1.000  H
  C89      1.0000 0.38107  0.34844  0.03352  Biso   1.000  C
  O29      1.0000 0.27540  0.18539  0.00644  Biso   1.000  O
  N60      1.0000 0.15561  0.40359  0.09404  Biso   1.000  N
  O30      1.0000 0.09883  0.34577  0.11048  Biso   1.000  O
  C90      1.0000 0.26071  0.45460  0.11468  Biso   1.000  C
  H86      1.0000 0.16732  0.47520  0.09330  Biso   1.000  H
  C91      1.0000 0.28860  0.27932  0.96187  Biso   1.000  C
  N61      1.0000 0.33336  0.36630  0.04302  Biso   1.000  N
  H87      1.0000 0.40302  0.36509  0.06161  Biso   1.000  H
  H88      1.0000 0.39110  0.35581  0.99119  Biso   1.000  H
  C92      1.0000 0.16807  0.39071  0.03247  Biso   1.000  C
  N62      1.0000 0.27768  0.41390  0.08184  Biso   1.000  N
  H89      1.0000 0.28579  0.46542  0.14318  Biso   1.000  H
  H90      1.0000 0.25470  0.48072  0.08531  Biso   1.000  H
  N63      1.0000 0.27081  0.31991  0.99415  Biso   1.000  N
  H91      1.0000 0.26149  0.25861  0.95072  Biso   1.000  H
  H92      1.0000 0.30379  0.29020  0.92350  Biso   1.000  H
  C93      1.0000 0.32190  0.39498  0.09166  Biso   1.000  C
  C94      1.0000 0.29621  0.36491  0.99785  Biso   1.000  C
  N64      1.0000 0.21574  0.37068  0.02635  Biso   1.000  N
  H93      1.0000 0.14469  0.36719  0.01722  Biso   1.000  H
  H94      1.0000 0.16572  0.41942  0.00630  Biso   1.000  H
  C95      1.0000 0.25857  0.40006  0.02265  Biso   1.000  C
  C96      1.0000 0.22314  0.32510  0.00872  Biso   1.000  C
  O31      1.0000 0.34752  0.40302  0.13523  Biso   1.000  O
  H95      1.0000 0.30820  0.37509  0.95689  Biso   1.000  H
  H96      1.0000 0.25409  0.42799  0.99502  Biso   1.000  H
  O32      1.0000 0.19357  0.29376  0.00516  Biso   1.000  O
  C97      1.0000 0.36324  0.54718  0.67720  Biso   1.000  C
  C98      1.0000 0.32951  0.55226  0.62212  Biso   1.000  C
  N65      1.0000 0.39163  0.58983  0.67442  Biso   1.000  N
  N66      1.0000 0.33048  0.54636  0.72849  Biso   1.000  N
  H97      1.0000 0.38299  0.51772  0.67487  Biso   1.000  H
  N67      1.0000 0.34439  0.59645  0.59404  Biso   1.000  N
  N68      1.0000 0.28241  0.55429  0.64902  Biso   1.000  N
  H98      1.0000 0.33272  0.52480  0.59330  Biso   1.000  H
  C99      1.0000 0.38085  0.61737  0.62527  Biso   1.000  C
  C100     1.0000 0.43376  0.59734  0.71150  Biso   1.000  C
  C101     1.0000 0.28447  0.54885  0.71091  Biso   1.000  C
  C102     1.0000 0.34396  0.53127  0.78992  Biso   1.000  C
  C103     1.0000 0.33193  0.60929  0.53243  Biso   1.000  C
  C104     1.0000 0.23933  0.54540  0.61468  Biso   1.000  C
  O33      1.0000 0.40117  0.65423  0.61048  Biso   1.000  O
  N69      1.0000 0.42244  0.61584  0.77238  Biso   1.000  N
  H99      1.0000 0.45101  0.56681  0.71579  Biso   1.000  H
  H100     1.0000 0.45510  0.62000  0.69040  Biso   1.000  H
  O34      1.0000 0.24936  0.54529  0.74507  Biso   1.000  O
  N70      1.0000 0.36278  0.56920  0.82741  Biso   1.000  N
  H101     1.0000 0.36819  0.50580  0.78667  Biso   1.000  H
  H102     1.0000 0.31571  0.51761  0.81038  Biso   1.000  H
  N71      1.0000 0.28426  0.62932  0.52635  Biso   1.000  N
  H103     1.0000 0.35531  0.63281  0.51722  Biso   1.000  H
  H104     1.0000 0.33432  0.58062  0.50630  Biso   1.000  H
  N72      1.0000 0.22232  0.58610  0.58184  Biso   1.000  N
  H105     1.0000 0.21421  0.53462  0.64318  Biso   1.000  H
  H106     1.0000 0.24530  0.51932  0.58531  Biso   1.000  H
  C105     1.0000 0.43408  0.66020  0.79037  Biso   1.000  C
  C106     1.0000 0.41148  0.58510  0.82344  Biso   1.000  C
  C107     1.0000 0.34061  0.58435  0.87879  Biso   1.000  C
  C108     1.0000 0.24143  0.59997  0.52265  Biso   1.000  C
  C109     1.0000 0.27686  0.67490  0.50872  Biso   1.000  C
  C110     1.0000 0.17810  0.60502  0.59166  Biso   1.000  C
  O35      1.0000 0.44824  0.69269  0.75735  Biso   1.000  O
  N73      1.0000 0.42707  0.66444  0.85198  Biso   1.000  N
  H107     1.0000 0.43422  0.55781  0.82600  Biso   1.000  H
  C111     1.0000 0.41639  0.61847  0.87911  Biso   1.000  C
  O36      1.0000 0.30176  0.57165  0.89779  Biso   1.000  O
  N74      1.0000 0.37061  0.61545  0.90857  Biso   1.000  N
  C112     1.0000 0.20379  0.63509  0.49785  Biso   1.000  C
  H108     1.0000 0.24591  0.57201  0.49498  Biso   1.000  H
  N75      1.0000 0.22919  0.68009  0.49415  Biso   1.000  N
  O37      1.0000 0.30643  0.70624  0.50516  Biso   1.000  O
  N76      1.0000 0.16664  0.63370  0.54302  Biso   1.000  N
  O38      1.0000 0.15252  0.59698  0.63523  Biso   1.000  O
  C113     1.0000 0.44941  0.70183  0.88651  Biso   1.000  C
  H109     1.0000 0.44251  0.60780  0.90688  Biso   1.000  H
  C114     1.0000 0.36125  0.63320  0.96894  Biso   1.000  C
  H110     1.0000 0.19180  0.62491  0.45689  Biso   1.000  H
  C115     1.0000 0.21140  0.72068  0.46187  Biso   1.000  C
  C116     1.0000 0.11893  0.65156  0.53348  Biso   1.000  C
  N77      1.0000 0.41604  0.73111  0.92003  Biso   1.000  N
  H111     1.0000 0.47221  0.68749  0.91560  Biso   1.000  H
  H112     1.0000 0.46770  0.72232  0.85819  Biso   1.000  H
  N78      1.0000 0.35584  0.68425  0.97246  Biso   1.000  N
  H113     1.0000 0.33179  0.61812  0.98447  Biso   1.000  H
  H114     1.0000 0.38772  0.62349  0.99607  Biso   1.000  H
  N79      1.0000 0.17749  0.74822  0.49598  Biso   1.000  N
  H115     1.0000 0.23851  0.74139  0.45068  Biso   1.000  H
  H116     1.0000 0.19621  0.70980  0.42350  Biso   1.000  H
  N80      1.0000 0.11477  0.70233  0.54343  Biso   1.000  N
  H117     1.0000 0.10890  0.64419  0.49119  Biso   1.000  H
  H118     1.0000 0.09698  0.63491  0.56161  Biso   1.000  H
  C117     1.0000 0.39537  0.71620  0.97739  Biso   1.000  C
  C118     1.0000 0.41205  0.77857  0.91026  Biso   1.000  C
  C119     1.0000 0.31347  0.70507  0.98977  Biso   1.000  C
  C120     1.0000 0.18653  0.79497  0.51018  Biso   1.000  C
  C121     1.0000 0.12708  0.73701  0.49845  Biso   1.000  C
  C122     1.0000 0.08795  0.72147  0.58970  Biso   1.000  C
  H119     1.0000 0.42009  0.70371  0.00598  Biso   1.000  H
  C123     1.0000 0.37292  0.76299  0.00155  Biso   1.000  C
  O39      1.0000 0.42988  0.80056  0.86810  Biso   1.000  O
  N81      1.0000 0.38523  0.79767  0.95652  Biso   1.000  N
  O40      1.0000 0.27540  0.68539  0.99351  Biso   1.000  O
  N82      1.0000 0.32251  0.75181  0.00402  Biso   1.000  N
  O41      1.0000 0.22460  0.81461  0.50644  Biso   1.000  O
  N83      1.0000 0.14416  0.81575  0.52749  Biso   1.000  N
  C124     1.0000 0.10463  0.78380  0.52256  Biso   1.000  C
  H120     1.0000 0.11442  0.72830  0.45730  Biso   1.000  H
  O42      1.0000 0.07012  0.69948  0.63190  Biso   1.000  O
  N84      1.0000 0.08400  0.76889  0.57992  Biso   1.000  N
  H121     1.0000 0.38562  0.77170  0.04270  Biso   1.000  H
  C125     1.0000 0.38107  0.84844  0.96648  Biso   1.000  C
  C126     1.0000 0.28860  0.77932  0.03813  Biso   1.000  C
  C127     1.0000 0.13879  0.86680  0.53101  Biso   1.000  C
  H122     1.0000 0.07991  0.79632  0.49402  Biso   1.000  H
  C128     1.0000 0.05059  0.79817  0.61349  Biso   1.000  C
  N85      1.0000 0.33336  0.86630  0.95698  Biso   1.000  N
  H123     1.0000 0.40302  0.86509  0.93839  Biso   1.000  H
  H124     1.0000 0.39110  0.85581  0.00877  Biso   1.000  H
  N86      1.0000 0.27081  0.81991  0.00585  Biso   1.000  N
  H125     1.0000 0.26149  0.75861  0.04928  Biso   1.000  H
  H126     1.0000 0.30379  0.79020  0.07650  Biso   1.000  H
  N87      1.0000 0.12939  0.88455  0.59139  Biso   1.000  N
  H127     1.0000 0.16821  0.88192  0.51548  Biso   1.000  H
  H128     1.0000 0.11232  0.87651  0.50388  Biso   1.000  H
  N88      1.0000 0.07293  0.83560  0.64797  Biso   1.000  N
  H129     1.0000 0.02779  0.81251  0.58440  Biso   1.000  H
  H130     1.0000 0.03230  0.77771  0.64181  Biso   1.000  H
  C129     1.0000 0.32190  0.89498  0.90834  Biso   1.000  C
  C130     1.0000 0.29621  0.86491  0.00215  Biso   1.000  C
  C131     1.0000 0.22314  0.82510  0.99128  Biso   1.000  C
  C132     1.0000 0.08361  0.88156  0.62089  Biso   1.000  C
  C133     1.0000 0.15939  0.91565  0.62116  Biso   1.000  C
  C134     1.0000 0.06592  0.83980  0.70958  Biso   1.000  C
  N89      1.0000 0.27768  0.91390  0.91811  Biso   1.000  N
  O43      1.0000 0.34752  0.90305  0.86472  Biso   1.000  O
  C135     1.0000 0.25857  0.90006  0.97735  Biso   1.000  C
  H131     1.0000 0.30820  0.87509  0.04311  Biso   1.000  H
  N90      1.0000 0.21574  0.87068  0.97360  Biso   1.000  N
  O44      1.0000 0.19357  0.79376  0.99484  Biso   1.000  O
  C136     1.0000 0.08852  0.91490  0.67656  Biso   1.000  C
  H132     1.0000 0.05749  0.89220  0.59308  Biso   1.000  H
  O45      1.0000 0.19824  0.92838  0.60216  Biso   1.000  O
  N91      1.0000 0.13722  0.93080  0.67259  Biso   1.000  N
  O46      1.0000 0.05176  0.80731  0.74265  Biso   1.000  O
  N92      1.0000 0.07756  0.88416  0.72762  Biso   1.000  N
  C137     1.0000 0.26071  0.95460  0.88532  Biso   1.000  C
  H133     1.0000 0.25409  0.92799  0.00498  Biso   1.000  H
  C138     1.0000 0.16807  0.89074  0.96753  Biso   1.000  C
  H134     1.0000 0.06582  0.94222  0.67400  Biso   1.000  H
  C139     1.0000 0.15604  0.96873  0.71008  Biso   1.000  C
  C140     1.0000 0.06624  0.90266  0.78850  Biso   1.000  C
  N93      1.0000 0.21759  0.94571  0.85098  Biso   1.000  N
  H135     1.0000 0.28579  0.96542  0.85678  Biso   1.000  H
  H136     1.0000 0.25470  0.98072  0.91469  Biso   1.000  H
  N94      1.0000 0.15561  0.90359  0.90596  Biso   1.000  N
  H137     1.0000 0.14469  0.86719  0.98278  Biso   1.000  H
  H138     1.0000 0.16572  0.91942  0.99370  Biso   1.000  H
  N95      1.0000 0.16952  0.95368  0.77147  Biso   1.000  N
  H139     1.0000 0.13181  0.99420  0.71328  Biso   1.000  H
  H140     1.0000 0.18429  0.98239  0.68958  Biso   1.000  H
  N96      1.0000 0.10837  0.91020  0.82558  Biso   1.000  N
  H141     1.0000 0.04899  0.93322  0.78421  Biso   1.000  H
  H142     1.0000 0.04490  0.88000  0.80960  Biso   1.000  H
  C141     1.0000 0.21553  0.95119  0.78909  Biso   1.000  C
  C142     1.0000 0.17049  0.94774  0.87788  Biso   1.000  C
  C143     1.0000 0.11915  0.88263  0.87468  Biso   1.000  C
  C144     1.0000 0.13676  0.95286  0.82275  Biso   1.000  C
  O47      1.0000 0.25064  0.95471  0.75493  Biso   1.000  O
  H143     1.0000 0.16732  0.97520  0.90670  Biso   1.000  H
  O48      1.0000 0.09883  0.84577  0.88952  Biso   1.000  O
  H144     1.0000 0.11701  0.98232  0.82508  Biso   1.000  H
  O49      1.0000 0.59883  0.34577  0.38952  Biso   1.000  O
  C145     1.0000 0.61915  0.38263  0.37468  Biso   1.000  C
  N97      1.0000 0.60837  0.41017  0.32558  Biso   1.000  N
  N98      1.0000 0.65565  0.40359  0.40596  Biso   1.000  N
  C146     1.0000 0.56628  0.40266  0.28850  Biso   1.000  C
  C147     1.0000 0.63676  0.45286  0.32275  Biso   1.000  C
  C148     1.0000 0.67049  0.44774  0.37788  Biso   1.000  C
  C149     1.0000 0.66807  0.39071  0.46753  Biso   1.000  C
  N99      1.0000 0.57756  0.38416  0.22762  Biso   1.000  N
  H145     1.0000 0.54899  0.43319  0.28421  Biso   1.000  H
  H146     1.0000 0.54490  0.38000  0.30960  Biso   1.000  H
  N100     1.0000 0.66952  0.45368  0.27147  Biso   1.000  N
  H147     1.0000 0.61701  0.48232  0.32508  Biso   1.000  H
  N101     1.0000 0.71759  0.44571  0.35098  Biso   1.000  N
  H148     1.0000 0.66732  0.47520  0.40670  Biso   1.000  H
  N102     1.0000 0.71574  0.37068  0.47365  Biso   1.000  N
  H149     1.0000 0.64469  0.36719  0.48278  Biso   1.000  H
  H150     1.0000 0.66572  0.41942  0.49370  Biso   1.000  H
  C150     1.0000 0.56596  0.33980  0.20958  Biso   1.000  C
  C151     1.0000 0.58852  0.41490  0.17656  Biso   1.000  C
  C152     1.0000 0.65604  0.46873  0.21008  Biso   1.000  C
  C153     1.0000 0.71553  0.45119  0.28909  Biso   1.000  C
  C154     1.0000 0.76071  0.45460  0.38532  Biso   1.000  C
  C155     1.0000 0.72314  0.32510  0.49128  Biso   1.000  C
  C156     1.0000 0.75857  0.40006  0.47735  Biso   1.000  C
  O50      1.0000 0.55176  0.30731  0.24265  Biso   1.000  O
  N103     1.0000 0.57293  0.33560  0.14802  Biso   1.000  N
  C157     1.0000 0.58361  0.38156  0.12089  Biso   1.000  C
  N104     1.0000 0.63722  0.43080  0.17259  Biso   1.000  N
  H151     1.0000 0.56582  0.44219  0.17400  Biso   1.000  H
  H152     1.0000 0.63181  0.49420  0.21328  Biso   1.000  H
  H153     1.0000 0.68429  0.48239  0.18958  Biso   1.000  H
  O51      1.0000 0.75064  0.45471  0.25493  Biso   1.000  O
  N105     1.0000 0.77768  0.41390  0.41816  Biso   1.000  N
  H154     1.0000 0.78579  0.46542  0.35678  Biso   1.000  H
  H155     1.0000 0.75470  0.48072  0.41469  Biso   1.000  H
  O52      1.0000 0.69357  0.29376  0.49484  Biso   1.000  O
  N106     1.0000 0.77081  0.31991  0.50585  Biso   1.000  N
  C158     1.0000 0.79621  0.36491  0.50215  Biso   1.000  C
  H156     1.0000 0.75409  0.42799  0.50498  Biso   1.000  H
  C159     1.0000 0.55059  0.29817  0.11349  Biso   1.000  C
  N107     1.0000 0.62943  0.38455  0.09139  Biso   1.000  N
  H157     1.0000 0.55749  0.39220  0.09308  Biso   1.000  H
  C160     1.0000 0.65939  0.41565  0.12121  Biso   1.000  C
  C161     1.0000 0.82190  0.39498  0.40834  Biso   1.000  C
  C162     1.0000 0.78860  0.27932  0.53813  Biso   1.000  C
  N108     1.0000 0.83336  0.36630  0.45698  Biso   1.000  N
  H158     1.0000 0.80820  0.37509  0.54311  Biso   1.000  H
  N109     1.0000 0.58400  0.26889  0.07997  Biso   1.000  N
  H159     1.0000 0.52782  0.31251  0.08440  Biso   1.000  H
  H160     1.0000 0.53230  0.27771  0.14181  Biso   1.000  H
  C163     1.0000 0.63879  0.36680  0.03101  Biso   1.000  C
  O53      1.0000 0.69824  0.42835  0.10221  Biso   1.000  O
  O54      1.0000 0.84752  0.40302  0.36472  Biso   1.000  O
  N110     1.0000 0.82251  0.25181  0.50402  Biso   1.000  N
  H161     1.0000 0.76149  0.25861  0.54928  Biso   1.000  H
  H162     1.0000 0.80379  0.29020  0.57650  Biso   1.000  H
  C164     1.0000 0.88110  0.34844  0.46648  Biso   1.000  C
  C165     1.0000 0.60463  0.28380  0.02256  Biso   1.000  C
  C166     1.0000 0.58795  0.22147  0.08970  Biso   1.000  C
  N111     1.0000 0.64416  0.31575  0.02754  Biso   1.000  N
  H163     1.0000 0.66821  0.38192  0.01548  Biso   1.000  H
  H164     1.0000 0.61232  0.37651  0.00388  Biso   1.000  H
  C167     1.0000 0.81347  0.20507  0.48977  Biso   1.000  C
  C168     1.0000 0.87292  0.26299  0.50155  Biso   1.000  C
  N112     1.0000 0.88523  0.29767  0.45657  Biso   1.000  N
  H165     1.0000 0.89110  0.35581  0.50881  Biso   1.000  H
  H166     1.0000 0.90302  0.36509  0.43839  Biso   1.000  H
  H167     1.0000 0.57991  0.29629  0.99402  Biso   1.000  H
  C169     1.0000 0.62708  0.23701  0.99845  Biso   1.000  C
  O55      1.0000 0.57012  0.19944  0.13190  Biso   1.000  O
  N113     1.0000 0.61477  0.20233  0.04343  Biso   1.000  N
  C170     1.0000 0.68653  0.29497  0.01023  Biso   1.000  C
  O56      1.0000 0.77540  0.18539  0.49351  Biso   1.000  O
  N114     1.0000 0.85584  0.18425  0.47246  Biso   1.000  N
  C171     1.0000 0.89537  0.21620  0.47739  Biso   1.000  C
  H168     1.0000 0.88562  0.27170  0.54270  Biso   1.000  H
  C172     1.0000 0.91205  0.27857  0.41026  Biso   1.000  C
  N115     1.0000 0.67749  0.24819  0.99598  Biso   1.000  N
  H169     1.0000 0.61442  0.22830  0.95730  Biso   1.000  H
  C173     1.0000 0.61893  0.15156  0.03352  Biso   1.000  C
  O57      1.0000 0.72460  0.31461  0.00644  Biso   1.000  O
  C174     1.0000 0.86125  0.13320  0.46894  Biso   1.000  C
  N116     1.0000 0.91604  0.23111  0.42003  Biso   1.000  N
  H170     1.0000 0.92009  0.20371  0.50598  Biso   1.000  H
  O58      1.0000 0.92988  0.30056  0.36810  Biso   1.000  O
  C175     1.0000 0.71140  0.22068  0.96187  Biso   1.000  C
  N117     1.0000 0.66664  0.13370  0.04302  Biso   1.000  N
  H171     1.0000 0.59702  0.13491  0.06161  Biso   1.000  H
  H172     1.0000 0.60890  0.14419  0.99119  Biso   1.000  H
  H173     1.0000 0.83179  0.11812  0.48452  Biso   1.000  H
  H174     1.0000 0.88772  0.12349  0.49612  Biso   1.000  H
  N118     1.0000 0.87061  0.11545  0.40857  Biso   1.000  N
  C176     1.0000 0.94941  0.20183  0.38651  Biso   1.000  C
  N119     1.0000 0.72919  0.18009  0.99415  Biso   1.000  N
  H175     1.0000 0.73851  0.24139  0.95072  Biso   1.000  H
  H176     1.0000 0.69621  0.20980  0.92350  Biso   1.000  H
  C177     1.0000 0.67810  0.10502  0.09166  Biso   1.000  C
  C178     1.0000 0.70382  0.13509  0.99785  Biso   1.000  C
  C179     1.0000 0.91639  0.11844  0.37911  Biso   1.000  C
  C180     1.0000 0.84061  0.08435  0.37879  Biso   1.000  C
  H177     1.0000 0.97221  0.18749  0.41560  Biso   1.000  H
  H178     1.0000 0.96770  0.22229  0.35819  Biso   1.000  H
  N120     1.0000 0.92710  0.16444  0.35198  Biso   1.000  N
  C181     1.0000 0.77686  0.17490  0.00872  Biso   1.000  C
  O59      1.0000 0.65252  0.09698  0.13523  Biso   1.000  O
  N121     1.0000 0.72232  0.08610  0.08184  Biso   1.000  N
  C182     1.0000 0.74143  0.09994  0.02265  Biso   1.000  C
  H179     1.0000 0.69180  0.12491  0.95689  Biso   1.000  H
  C183     1.0000 0.91148  0.08510  0.32344  Biso   1.000  C
  H180     1.0000 0.94251  0.10780  0.40688  Biso   1.000  H
  N122     1.0000 0.86278  0.06920  0.32741  Biso   1.000  N
  O60      1.0000 0.80180  0.07165  0.39779  Biso   1.000  O
  C184     1.0000 0.93408  0.16020  0.29042  Biso   1.000  C
  O61      1.0000 0.80643  0.20624  0.00516  Biso   1.000  O
  N123     1.0000 0.78426  0.12932  0.02635  Biso   1.000  N
  C185     1.0000 0.73933  0.04540  0.11468  Biso   1.000  C
  H181     1.0000 0.74591  0.07201  0.99502  Biso   1.000  H
  N124     1.0000 0.92244  0.11584  0.27238  Biso   1.000  N
  H182     1.0000 0.93422  0.05781  0.32600  Biso   1.000  H
  C186     1.0000 0.84396  0.03127  0.28992  Biso   1.000  C
  O62      1.0000 0.94824  0.19269  0.25735  Biso   1.000  O
  C187     1.0000 0.83193  0.10929  0.03247  Biso   1.000  C
  N125     1.0000 0.78241  0.05429  0.14902  Biso   1.000  N
  H183     1.0000 0.71421  0.03462  0.14318  Biso   1.000  H
  H184     1.0000 0.74530  0.01928  0.08531  Biso   1.000  H
  C188     1.0000 0.93376  0.09734  0.21150  Biso   1.000  C
  N126     1.0000 0.83051  0.04636  0.22849  Biso   1.000  N
  H185     1.0000 0.86822  0.00580  0.28672  Biso   1.000  H
  H186     1.0000 0.81571  0.01761  0.31038  Biso   1.000  H
  N127     1.0000 0.84439  0.09641  0.09404  Biso   1.000  N
  H187     1.0000 0.85531  0.13281  0.01722  Biso   1.000  H
  H188     1.0000 0.83432  0.08062  0.00630  Biso   1.000  H
  C189     1.0000 0.82955  0.05226  0.12212  Biso   1.000  C
  C190     1.0000 0.78447  0.04885  0.21091  Biso   1.000  C
  N128     1.0000 0.89163  0.08983  0.17442  Biso   1.000  N
  H189     1.0000 0.95101  0.06681  0.21579  Biso   1.000  H
  H190     1.0000 0.95510  0.12000  0.19040  Biso   1.000  H
  C191     1.0000 0.86324  0.04718  0.17725  Biso   1.000  C
  C192     1.0000 0.88085  0.11737  0.12532  Biso   1.000  C
  H191     1.0000 0.83272  0.02480  0.09330  Biso   1.000  H
  O63      1.0000 0.74936  0.04529  0.24507  Biso   1.000  O
  H192     1.0000 0.88302  0.01772  0.17492  Biso   1.000  H
  O64      1.0000 0.90117  0.15423  0.11048  Biso   1.000  O
  C193     1.0000 0.13156  0.16639  0.87089  Biso   1.000  C
  N129     1.0000 0.13455  0.12061  0.84143  Biso   1.000  N
  N130     1.0000 0.13455  0.12061  0.84139  Biso   1.000  N
  N131     1.0000 0.08556  0.17710  0.89802  Biso   1.000  N
  N132     1.0000 0.08556  0.17710  0.89797  Biso   1.000  N
  N133     1.0000 0.08560  0.17710  0.89802  Biso   1.000  N
  N134     1.0000 0.08560  0.17710  0.89797  Biso   1.000  N
  C194     1.0000 0.16490  0.16148  0.92656  Biso   1.000  C
  H193     1.0000 0.14220  0.19251  0.84308  Biso   1.000  H
  C195     1.0000 0.11684  0.11125  0.78101  Biso   1.000  C
  C196     1.0000 0.16565  0.09061  0.87121  Biso   1.000  C
  C197     1.0000 0.16565  0.09061  0.87116  Biso   1.000  C
  C198     1.0000 0.04817  0.19941  0.86349  Biso   1.000  C
  C199     1.0000 0.08980  0.18408  0.95958  Biso   1.000  C
  N135     1.0000 0.18080  0.11278  0.92259  Biso   1.000  N
  N136     1.0000 0.13416  0.17244  0.97762  Biso   1.000  N
  H194     1.0000 0.19222  0.18422  0.92400  Biso   1.000  H
  N137     1.0000 0.06575  0.10584  0.77749  Biso   1.000  N
  H195     1.0000 0.13188  0.08179  0.76548  Biso   1.000  H
  H196     1.0000 0.12651  0.13772  0.75388  Biso   1.000  H
  H197     1.0000 0.13192  0.08179  0.76548  Biso   1.000  H
  O65      1.0000 0.17835  0.05180  0.85221  Biso   1.000  O
  O66      1.0000 0.17835  0.05180  0.85216  Biso   1.000  O
  O67      1.0000 0.17838  0.05180  0.85221  Biso   1.000  O
  O68      1.0000 0.17838  0.05180  0.85216  Biso   1.000  O
  N138     1.0000 0.01889  0.16604  0.82992  Biso   1.000  N
  H198     1.0000 0.06251  0.22221  0.83440  Biso   1.000  H
  H199     1.0000 0.02771  0.21770  0.89181  Biso   1.000  H
  O69      1.0000 0.05731  0.19824  0.99265  Biso   1.000  O
  C200     1.0000 0.21873  0.09396  0.96008  Biso   1.000  C
  C201     1.0000 0.15266  0.18376  0.03850  Biso   1.000  C
  C202     1.0000 0.04493  0.06351  0.76023  Biso   1.000  C
  C203     1.0000 0.04493  0.06351  0.76018  Biso   1.000  C
  C204     1.0000 0.04497  0.06351  0.76023  Biso   1.000  C
  C205     1.0000 0.04497  0.06351  0.76018  Biso   1.000  C
  C206     1.0000 0.03380  0.14537  0.77256  Biso   1.000  C
  C207     1.0000 0.03383  0.14537  0.77256  Biso   1.000  C
  C208     1.0000 0.97147  0.16205  0.83974  Biso   1.000  C
  C209     1.0000 0.97147  0.16205  0.83970  Biso   1.000  C
  H200     1.0000 0.23239  0.06571  0.93958  Biso   1.000  H
  H201     1.0000 0.24420  0.11822  0.96328  Biso   1.000  H
  H202     1.0000 0.23242  0.06571  0.93958  Biso   1.000  H
  N139     1.0000 0.20368  0.08051  0.02151  Biso   1.000  N
  N140     1.0000 0.20368  0.08051  0.02147  Biso   1.000  N
  N141     1.0000 0.16017  0.14163  0.07558  Biso   1.000  N
  H203     1.0000 0.18319  0.20101  0.03421  Biso   1.000  H
  H204     1.0000 0.13000  0.20510  0.05960  Biso   1.000  H
  N142     1.0000 0.16020  0.14163  0.07558  Biso   1.000  N
  H205     1.0000 0.18322  0.20101  0.03421  Biso   1.000  H
  O70      1.0000 0.06461  0.02540  0.75644  Biso   1.000  O
  N143     1.0000 0.99822  0.07251  0.74598  Biso   1.000  N
  C210     1.0000 0.98701  0.12292  0.74845  Biso   1.000  C
  C211     1.0000 0.98701  0.12292  0.74840  Biso   1.000  C
  H206     1.0000 0.04629  0.17009  0.74402  Biso   1.000  H
  H207     1.0000 0.04629  0.17009  0.74397  Biso   1.000  H
  H208     1.0000 0.04632  0.17009  0.74402  Biso   1.000  H
  H209     1.0000 0.04632  0.17009  0.74397  Biso   1.000  H
  N144     1.0000 0.95233  0.13523  0.79343  Biso   1.000  N
  O71      1.0000 0.94944  0.17988  0.88185  Biso   1.000  O
  O72      1.0000 0.94948  0.17988  0.88185  Biso   1.000  O
  C212     1.0000 0.20282  0.11324  0.07275  Biso   1.000  C
  C213     1.0000 0.20119  0.03447  0.03909  Biso   1.000  C
  C214     1.0000 0.20286  0.11324  0.07275  Biso   1.000  C
  C215     1.0000 0.13263  0.13085  0.12468  Biso   1.000  C
  C216     1.0000 0.97068  0.03860  0.71187  Biso   1.000  C
  H210     1.0000 0.97830  0.13562  0.70730  Biso   1.000  H
  C217     1.0000 0.90159  0.13110  0.78348  Biso   1.000  C
  C218     1.0000 0.19774  0.07951  0.12788  Biso   1.000  C
  C219     1.0000 0.19774  0.07955  0.12788  Biso   1.000  C
  H211     1.0000 0.23232  0.13302  0.07508  Biso   1.000  H
  O73      1.0000 0.20471  0.99936  0.00493  Biso   1.000  O
  N145     1.0000 0.19571  0.03241  0.10098  Biso   1.000  N
  O74      1.0000 0.09577  0.15117  0.13952  Biso   1.000  O
  N146     1.0000 0.15359  0.09439  0.15596  Biso   1.000  N
  N147     1.0000 0.93009  0.02081  0.74415  Biso   1.000  N
  H212     1.0000 0.95980  0.05379  0.67350  Biso   1.000  H
  H213     1.0000 0.99139  0.01149  0.70068  Biso   1.000  H
  N148     1.0000 0.88370  0.08336  0.79302  Biso   1.000  N
  H214     1.0000 0.89419  0.14110  0.74119  Biso   1.000  H
  H215     1.0000 0.88491  0.15302  0.81161  Biso   1.000  H
  H216     1.0000 0.22520  0.08272  0.15670  Biso   1.000  H
  C220     1.0000 0.20460  0.98933  0.13532  Biso   1.000  C
  C221     1.0000 0.14074  0.08193  0.21753  Biso   1.000  C
  C222     1.0000 0.92490  0.97314  0.75872  Biso   1.000  C
  C223     1.0000 0.88509  0.04621  0.74785  Biso   1.000  C
  C224     1.0000 0.85502  0.07190  0.84166  Biso   1.000  C
  H217     1.0000 0.21542  0.96421  0.10678  Biso   1.000  H
  H218     1.0000 0.23072  0.99530  0.16469  Biso   1.000  H
  N149     1.0000 0.16390  0.97232  0.16811  Biso   1.000  N
  H219     1.0000 0.11719  0.10531  0.23278  Biso   1.000  H
  H220     1.0000 0.16942  0.08432  0.24370  Biso   1.000  H
  N150     1.0000 0.12068  0.03426  0.22360  Biso   1.000  N
  O75      1.0000 0.95624  0.94357  0.75516  Biso   1.000  O
  N151     1.0000 0.87932  0.96574  0.77635  Biso   1.000  N
  H221     1.0000 0.87491  0.05820  0.70689  Biso   1.000  H
  C225     1.0000 0.84994  0.00857  0.77265  Biso   1.000  C
  C226     1.0000 0.84997  0.00857  0.77265  Biso   1.000  C
  N152     1.0000 0.83610  0.02768  0.83184  Biso   1.000  N
  N153     1.0000 0.83610  0.02771  0.83184  Biso   1.000  N
  O76      1.0000 0.84698  0.09752  0.88523  Biso   1.000  O
  C227     1.0000 0.15006  0.99143  0.22735  Biso   1.000  C
  C228     1.0000 0.14498  0.92810  0.15834  Biso   1.000  C
  C229     1.0000 0.07510  0.02686  0.24128  Biso   1.000  C
  C230     1.0000 0.85929  0.91807  0.78243  Biso   1.000  C
  H222     1.0000 0.82201  0.00409  0.74498  Biso   1.000  H
  C231     1.0000 0.79540  0.01067  0.86468  Biso   1.000  C
  C232     1.0000 0.79540  0.01071  0.86468  Biso   1.000  C
  C233     1.0000 0.79543  0.01067  0.86468  Biso   1.000  C
  C234     1.0000 0.79543  0.01071  0.86468  Biso   1.000  C
  H223     1.0000 0.17799  0.99591  0.25498  Biso   1.000  H
  C235     1.0000 0.11491  0.95382  0.25215  Biso   1.000  C
  N154     1.0000 0.11630  0.91664  0.20698  Biso   1.000  N
  O77      1.0000 0.15305  0.90252  0.11472  Biso   1.000  O
  N155     1.0000 0.06991  0.97919  0.25585  Biso   1.000  N
  O78      1.0000 0.04376  0.05643  0.24484  Biso   1.000  O
  H224     1.0000 0.88281  0.89469  0.76722  Biso   1.000  H
  H225     1.0000 0.88281  0.89469  0.76717  Biso   1.000  H
  N156     1.0000 0.84641  0.90565  0.84404  Biso   1.000  N
  N157     1.0000 0.84641  0.90565  0.84399  Biso   1.000  N
  N158     1.0000 0.84645  0.90565  0.84404  Biso   1.000  N
  H226     1.0000 0.83062  0.91572  0.75630  Biso   1.000  H
  N159     1.0000 0.84645  0.90565  0.84399  Biso   1.000  N
  N160     1.0000 0.80429  0.96759  0.89902  Biso   1.000  N
  H227     1.0000 0.76928  0.00470  0.83531  Biso   1.000  H
  H228     1.0000 0.78462  0.03579  0.89322  Biso   1.000  H
  H229     1.0000 0.76932  0.00470  0.83531  Biso   1.000  H
  H230     1.0000 0.78462  0.03579  0.89318  Biso   1.000  H
  H231     1.0000 0.12512  0.94180  0.29311  Biso   1.000  H
  H232     1.0000 0.12512  0.94180  0.29307  Biso   1.000  H
  C236     1.0000 0.09844  0.86893  0.21648  Biso   1.000  C
  C237     1.0000 0.02932  0.96140  0.28813  Biso   1.000  C
  C238     1.0000 0.86737  0.86915  0.87532  Biso   1.000  C
  C239     1.0000 0.80226  0.92049  0.87212  Biso   1.000  C
  C240     1.0000 0.86737  0.86915  0.87527  Biso   1.000  C
  C241     1.0000 0.79881  0.96553  0.96091  Biso   1.000  C
  C242     1.0000 0.79885  0.96553  0.96091  Biso   1.000  C
  N161     1.0000 0.04767  0.86477  0.20657  Biso   1.000  N
  H233     1.0000 0.11509  0.84698  0.18839  Biso   1.000  H
  N162     1.0000 0.04767  0.86477  0.20652  Biso   1.000  N
  H234     1.0000 0.10581  0.85890  0.25877  Biso   1.000  H
  H235     1.0000 0.11509  0.84702  0.18839  Biso   1.000  H
  N163     1.0000 0.00181  0.92749  0.25402  Biso   1.000  N
  H236     1.0000 0.00861  0.98851  0.29928  Biso   1.000  H
  H237     1.0000 0.04020  0.94621  0.32650  Biso   1.000  H
  O79      1.0000 0.90423  0.84883  0.86048  Biso   1.000  O
  N164     1.0000 0.83983  0.85837  0.92442  Biso   1.000  N
  H238     1.0000 0.77480  0.91728  0.84330  Biso   1.000  H
  H239     1.0000 0.77480  0.91732  0.84330  Biso   1.000  H
  C243     1.0000 0.79718  0.88679  0.92725  Biso   1.000  C
  C244     1.0000 0.79718  0.88679  0.92720  Biso   1.000  C
  N165     1.0000 0.79636  0.91952  0.97849  Biso   1.000  N
  O80      1.0000 0.79529  0.00064  0.99507  Biso   1.000  O
  C245     1.0000 0.02853  0.83795  0.16026  Biso   1.000  C
  C246     1.0000 0.02857  0.83795  0.16026  Biso   1.000  C
  C247     1.0000 0.01299  0.87708  0.25155  Biso   1.000  C
  C248     1.0000 0.95507  0.93653  0.23977  Biso   1.000  C
  C249     1.0000 0.84734  0.81624  0.96150  Biso   1.000  C
  C250     1.0000 0.84734  0.81628  0.96150  Biso   1.000  C
  H240     1.0000 0.76768  0.86701  0.92487  Biso   1.000  H
  H241     1.0000 0.76772  0.86701  0.92487  Biso   1.000  H
  C251     1.0000 0.78127  0.90604  0.03992  Biso   1.000  C
  N166     1.0000 0.98111  0.83400  0.17003  Biso   1.000  N
  O81      1.0000 0.05056  0.82012  0.11810  Biso   1.000  O
  C252     1.0000 0.96620  0.85463  0.22744  Biso   1.000  C
  C253     1.0000 0.96620  0.85463  0.22739  Biso   1.000  C
  H242     1.0000 0.02170  0.86442  0.29270  Biso   1.000  H
  N167     1.0000 0.93425  0.89419  0.22246  Biso   1.000  N
  O82      1.0000 0.93539  0.97460  0.24351  Biso   1.000  O
  H243     1.0000 0.81681  0.79899  0.96579  Biso   1.000  H
  H244     1.0000 0.87000  0.79490  0.94040  Biso   1.000  H
  N168     1.0000 0.86584  0.82756  0.02238  Biso   1.000  N
  N169     1.0000 0.86584  0.82759  0.02238  Biso   1.000  N
  N170     1.0000 0.81920  0.88722  0.07741  Biso   1.000  N
  H245     1.0000 0.76761  0.93429  0.06042  Biso   1.000  H
  H246     1.0000 0.75580  0.88181  0.03667  Biso   1.000  H
  H247     1.0000 0.76761  0.93429  0.06038  Biso   1.000  H
  C254     1.0000 0.95183  0.80059  0.13651  Biso   1.000  C
  H248     1.0000 0.95371  0.82991  0.25598  Biso   1.000  H
  C255     1.0000 0.88320  0.88879  0.21894  Biso   1.000  C
  C256     1.0000 0.83510  0.83852  0.07344  Biso   1.000  C
  C257     1.0000 0.91020  0.81592  0.04037  Biso   1.000  C
  C258     1.0000 0.91020  0.81596  0.04037  Biso   1.000  C
  C259     1.0000 0.83435  0.90939  0.12879  Biso   1.000  C
  N171     1.0000 0.91444  0.82293  0.10198  Biso   1.000  N
  H249     1.0000 0.93749  0.77779  0.16560  Biso   1.000  H
  H250     1.0000 0.97229  0.78230  0.10819  Biso   1.000  H
  H251     1.0000 0.93749  0.77782  0.16560  Biso   1.000  H
  H252     1.0000 0.97232  0.78230  0.10819  Biso   1.000  H
  N172     1.0000 0.86548  0.87939  0.15857  Biso   1.000  N
  N173     1.0000 0.86548  0.87943  0.15857  Biso   1.000  N
  H253     1.0000 0.86812  0.91821  0.23447  Biso   1.000  H
  H254     1.0000 0.87352  0.86232  0.24612  Biso   1.000  H
  H255     1.0000 0.87352  0.86232  0.24607  Biso   1.000  H
  O83      1.0000 0.94269  0.80176  0.00735  Biso   1.000  O
  H256     1.0000 0.80781  0.81578  0.07600  Biso   1.000  H
  H257     1.0000 0.80781  0.81582  0.07600  Biso   1.000  H
  C260     1.0000 0.86847  0.83361  0.12911  Biso   1.000  C
  O84      1.0000 0.82165  0.94824  0.14779  Biso   1.000  O
  H258     1.0000 0.85780  0.80749  0.15688  Biso   1.000  H
  O85      1.0000 0.65252  0.59698  0.86472  Biso   1.000  O
  C261     1.0000 0.67810  0.60502  0.90834  Biso   1.000  C
  N174     1.0000 0.72232  0.58610  0.91811  Biso   1.000  N
  N175     1.0000 0.66664  0.63370  0.95698  Biso   1.000  N
  C262     1.0000 0.73933  0.54540  0.88532  Biso   1.000  C
  C263     1.0000 0.74143  0.59997  0.97735  Biso   1.000  C
  C264     1.0000 0.70382  0.63509  0.00215  Biso   1.000  C
  C265     1.0000 0.61893  0.65156  0.96648  Biso   1.000  C
  N176     1.0000 0.78241  0.55429  0.85098  Biso   1.000  N
  H259     1.0000 0.71421  0.53462  0.85678  Biso   1.000  H
  H260     1.0000 0.74530  0.51932  0.91469  Biso   1.000  H
  N177     1.0000 0.78426  0.62932  0.97360  Biso   1.000  N
  H261     1.0000 0.74591  0.57201  0.00498  Biso   1.000  H
  N178     1.0000 0.72919  0.68009  0.00585  Biso   1.000  N
  H262     1.0000 0.69180  0.62491  0.04311  Biso   1.000  H
  N179     1.0000 0.61477  0.70233  0.95652  Biso   1.000  N
  H263     1.0000 0.59702  0.63491  0.93839  Biso   1.000  H
  H264     1.0000 0.60890  0.64419  0.00877  Biso   1.000  H
  C266     1.0000 0.78447  0.54885  0.78909  Biso   1.000  C
  C267     1.0000 0.82955  0.55226  0.87788  Biso   1.000  C
  C268     1.0000 0.83193  0.60929  0.96753  Biso   1.000  C
  C269     1.0000 0.77686  0.67490  0.99128  Biso   1.000  C
  C270     1.0000 0.71140  0.72068  0.03813  Biso   1.000  C
  C271     1.0000 0.58795  0.72147  0.91026  Biso   1.000  C
  C272     1.0000 0.62708  0.73701  0.00155  Biso   1.000  C
  N180     1.0000 0.83051  0.54636  0.77147  Biso   1.000  N
  O86      1.0000 0.74936  0.54529  0.75493  Biso   1.000  O
  C273     1.0000 0.86324  0.54718  0.82275  Biso   1.000  C
  N181     1.0000 0.84439  0.59645  0.90596  Biso   1.000  N
  H265     1.0000 0.83272  0.52480  0.90670  Biso   1.000  H
  H266     1.0000 0.85531  0.63281  0.98278  Biso   1.000  H
  H267     1.0000 0.83432  0.58062  0.99370  Biso   1.000  H
  O87      1.0000 0.80643  0.70624  0.99484  Biso   1.000  O
  N182     1.0000 0.67749  0.74822  0.00402  Biso   1.000  N
  H268     1.0000 0.73851  0.74139  0.04928  Biso   1.000  H
  H269     1.0000 0.69621  0.70980  0.07650  Biso   1.000  H
  O88      1.0000 0.57012  0.69948  0.86810  Biso   1.000  O
  N183     1.0000 0.58400  0.76889  0.92003  Biso   1.000  N
  C274     1.0000 0.60463  0.78380  0.97739  Biso   1.000  C
  H270     1.0000 0.61442  0.72830  0.04270  Biso   1.000  H
  C275     1.0000 0.84396  0.53127  0.71008  Biso   1.000  C
  N184     1.0000 0.89163  0.58983  0.82558  Biso   1.000  N
  H271     1.0000 0.88302  0.51772  0.82508  Biso   1.000  H
  C276     1.0000 0.88085  0.61737  0.87468  Biso   1.000  C
  C277     1.0000 0.68653  0.79497  0.98977  Biso   1.000  C
  C278     1.0000 0.55059  0.79817  0.88651  Biso   1.000  C
  N185     1.0000 0.64416  0.81575  0.97246  Biso   1.000  N
  H272     1.0000 0.57991  0.79632  0.00598  Biso   1.000  H
  N186     1.0000 0.86278  0.56920  0.67259  Biso   1.000  N
  H273     1.0000 0.86822  0.50580  0.71328  Biso   1.000  H
  H274     1.0000 0.81571  0.51761  0.68958  Biso   1.000  H
  C279     1.0000 0.93376  0.59734  0.78850  Biso   1.000  C
  O89      1.0000 0.90117  0.65423  0.88952  Biso   1.000  O
  O90      1.0000 0.72460  0.81461  0.99351  Biso   1.000  O
  H275     1.0000 0.52782  0.81251  0.91560  Biso   1.000  H
  H276     1.0000 0.53230  0.77771  0.85819  Biso   1.000  H
  N187     1.0000 0.57293  0.83560  0.85198  Biso   1.000  N
  C280     1.0000 0.63879  0.86680  0.96894  Biso   1.000  C
  C281     1.0000 0.84061  0.58435  0.62116  Biso   1.000  C
  C282     1.0000 0.91148  0.58510  0.67656  Biso   1.000  C
  N188     1.0000 0.92244  0.61584  0.72762  Biso   1.000  N
  H277     1.0000 0.95101  0.56681  0.78421  Biso   1.000  H
  H278     1.0000 0.95510  0.62000  0.80960  Biso   1.000  H
  C283     1.0000 0.56596  0.83980  0.79037  Biso   1.000  C
  C284     1.0000 0.58361  0.88156  0.87911  Biso   1.000  C
  H279     1.0000 0.66821  0.88192  0.98447  Biso   1.000  H
  H280     1.0000 0.61232  0.87651  0.99607  Biso   1.000  H
  N189     1.0000 0.62943  0.88455  0.90857  Biso   1.000  N
  O91      1.0000 0.80180  0.57165  0.60216  Biso   1.000  O
  N190     1.0000 0.87061  0.61545  0.59139  Biso   1.000  N
  C285     1.0000 0.91639  0.61847  0.62089  Biso   1.000  C
  H281     1.0000 0.93422  0.55781  0.67400  Biso   1.000  H
  C286     1.0000 0.93408  0.66020  0.70958  Biso   1.000  C
  N191     1.0000 0.57756  0.88416  0.77238  Biso   1.000  N
  O92      1.0000 0.55176  0.80731  0.75735  Biso   1.000  O
  C287     1.0000 0.58852  0.91490  0.82344  Biso   1.000  C
  H282     1.0000 0.55749  0.89220  0.90688  Biso   1.000  H
  C288     1.0000 0.65939  0.91565  0.87879  Biso   1.000  C
  C289     1.0000 0.86125  0.63320  0.53101  Biso   1.000  C
  N192     1.0000 0.92710  0.66444  0.64797  Biso   1.000  N
  H283     1.0000 0.94251  0.60780  0.59308  Biso   1.000  H
  O93      1.0000 0.94824  0.69269  0.74265  Biso   1.000  O
  C290     1.0000 0.56628  0.90266  0.71150  Biso   1.000  C
  N193     1.0000 0.63722  0.93080  0.82741  Biso   1.000  N
  H284     1.0000 0.56582  0.94222  0.82600  Biso   1.000  H
  O94      1.0000 0.69824  0.92838  0.89779  Biso   1.000  O
  N194     1.0000 0.85584  0.68425  0.52749  Biso   1.000  N
  H285     1.0000 0.83179  0.61812  0.51548  Biso   1.000  H
  H286     1.0000 0.88772  0.62349  0.50388  Biso   1.000  H
  C291     1.0000 0.94941  0.70183  0.61349  Biso   1.000  C
  N195     1.0000 0.60837  0.91020  0.67442  Biso   1.000  N
  H287     1.0000 0.54899  0.93322  0.71579  Biso   1.000  H
  H288     1.0000 0.54490  0.88000  0.69040  Biso   1.000  H
  C292     1.0000 0.65604  0.96873  0.78992  Biso   1.000  C
  C293     1.0000 0.81347  0.70507  0.51018  Biso   1.000  C
  C294     1.0000 0.89537  0.71620  0.52256  Biso   1.000  C
  N196     1.0000 0.91604  0.73111  0.57992  Biso   1.000  N
  H289     1.0000 0.97221  0.68749  0.58440  Biso   1.000  H
  H290     1.0000 0.96770  0.72232  0.64181  Biso   1.000  H
  C295     1.0000 0.61915  0.88263  0.62527  Biso   1.000  C
  C296     1.0000 0.63676  0.95286  0.67720  Biso   1.000  C
  N197     1.0000 0.66952  0.95368  0.72849  Biso   1.000  N
  H291     1.0000 0.63181  0.99420  0.78667  Biso   1.000  H
  H292     1.0000 0.68429  0.98239  0.81038  Biso   1.000  H
  O95      1.0000 0.77540  0.68539  0.50644  Biso   1.000  O
  N198     1.0000 0.82251  0.75181  0.49598  Biso   1.000  N
  H293     1.0000 0.92009  0.70371  0.49402  Biso   1.000  H
  C297     1.0000 0.87292  0.76299  0.49845  Biso   1.000  C
  C298     1.0000 0.91205  0.77857  0.58970  Biso   1.000  C
  N199     1.0000 0.65565  0.90359  0.59404  Biso   1.000  N
  O96      1.0000 0.59883  0.84577  0.61048  Biso   1.000  O
  C299     1.0000 0.67049  0.94774  0.62212  Biso   1.000  C
  H294     1.0000 0.61701  0.98232  0.67487  Biso   1.000  H
  C300     1.0000 0.71553  0.95119  0.71091  Biso   1.000  C
  C301     1.0000 0.78860  0.77932  0.46187  Biso   1.000  C
  N200     1.0000 0.88523  0.79767  0.54343  Biso   1.000  N
  H295     1.0000 0.88562  0.77170  0.45730  Biso   1.000  H
  O97      1.0000 0.92988  0.80056  0.63190  Biso   1.000  O
  C302     1.0000 0.66807  0.89074  0.53243  Biso   1.000  C
  N201     1.0000 0.71759  0.94571  0.64902  Biso   1.000  N
  H296     1.0000 0.66732  0.97520  0.59330  Biso   1.000  H
  O98      1.0000 0.75064  0.95471  0.74507  Biso   1.000  O
  N202     1.0000 0.77081  0.81991  0.49415  Biso   1.000  N
  H297     1.0000 0.76149  0.75861  0.45068  Biso   1.000  H
  H298     1.0000 0.80379  0.79020  0.42350  Biso   1.000  H
  C303     1.0000 0.88110  0.84844  0.53348  Biso   1.000  C
  N203     1.0000 0.71574  0.87068  0.52635  Biso   1.000  N
  H299     1.0000 0.64469  0.86719  0.51722  Biso   1.000  H
  H300     1.0000 0.66572  0.91942  0.50630  Biso   1.000  H
  C304     1.0000 0.76071  0.95460  0.61468  Biso   1.000  C
  C305     1.0000 0.72314  0.82510  0.50872  Biso   1.000  C
  C306     1.0000 0.79621  0.86491  0.49785  Biso   1.000  C
  N204     1.0000 0.83336  0.86630  0.54302  Biso   1.000  N
  H301     1.0000 0.89110  0.85581  0.49119  Biso   1.000  H
  H302     1.0000 0.90302  0.86509  0.56161  Biso   1.000  H
  C307     1.0000 0.75857  0.90006  0.52265  Biso   1.000  C
  N205     1.0000 0.77768  0.91390  0.58184  Biso   1.000  N
  H303     1.0000 0.78579  0.96542  0.64318  Biso   1.000  H
  H304     1.0000 0.75470  0.98072  0.58531  Biso   1.000  H
  O99      1.0000 0.69357  0.79376  0.50516  Biso   1.000  O
  H305     1.0000 0.80820  0.87509  0.45689  Biso   1.000  H
  C308     1.0000 0.82190  0.89498  0.59166  Biso   1.000  C
  H306     1.0000 0.75409  0.92799  0.49498  Biso   1.000  H
  O100     1.0000 0.84752  0.90305  0.63523  Biso   1.000  O
  O101     1.0000 0.44269  0.80176  0.49265  Biso   1.000  O
  C309     1.0000 0.41020  0.81596  0.45958  Biso   1.000  C
  N206     1.0000 0.41444  0.82293  0.39802  Biso   1.000  N
  N207     1.0000 0.36584  0.82756  0.47762  Biso   1.000  N
  N208     1.0000 0.36584  0.82759  0.47762  Biso   1.000  N
  C310     1.0000 0.45183  0.80059  0.36349  Biso   1.000  C
  C311     1.0000 0.36844  0.83361  0.37089  Biso   1.000  C
  C312     1.0000 0.33510  0.83852  0.42656  Biso   1.000  C
  C313     1.0000 0.34734  0.81628  0.53850  Biso   1.000  C
  H307     1.0000 0.47232  0.78230  0.39181  Biso   1.000  H
  N209     1.0000 0.48111  0.83396  0.32997  Biso   1.000  N
  H308     1.0000 0.43749  0.77779  0.33440  Biso   1.000  H
  N210     1.0000 0.48111  0.83400  0.32997  Biso   1.000  N
  H309     1.0000 0.43749  0.77782  0.33440  Biso   1.000  H
  H310     1.0000 0.35780  0.80749  0.34308  Biso   1.000  H
  N211     1.0000 0.36545  0.87939  0.34139  Biso   1.000  N
  N212     1.0000 0.36545  0.87943  0.34139  Biso   1.000  N
  N213     1.0000 0.31920  0.88722  0.42259  Biso   1.000  N
  H311     1.0000 0.30781  0.81578  0.42400  Biso   1.000  H
  H312     1.0000 0.30781  0.81582  0.42400  Biso   1.000  H
  N214     1.0000 0.33983  0.85837  0.57558  Biso   1.000  N
  H313     1.0000 0.31681  0.79899  0.53421  Biso   1.000  H
  H314     1.0000 0.37000  0.79490  0.55960  Biso   1.000  H
  C314     1.0000 0.46620  0.85463  0.27256  Biso   1.000  C
  C315     1.0000 0.52857  0.83795  0.33970  Biso   1.000  C
  C316     1.0000 0.33435  0.90939  0.37121  Biso   1.000  C
  C317     1.0000 0.38320  0.88879  0.28101  Biso   1.000  C
  C318     1.0000 0.28127  0.90604  0.46008  Biso   1.000  C
  C319     1.0000 0.36737  0.86915  0.62468  Biso   1.000  C
  C320     1.0000 0.29718  0.88679  0.57275  Biso   1.000  C
  H315     1.0000 0.45371  0.82991  0.24402  Biso   1.000  H
  C321     1.0000 0.51299  0.87708  0.24845  Biso   1.000  C
  N215     1.0000 0.43425  0.89416  0.27754  Biso   1.000  N
  N216     1.0000 0.43425  0.89419  0.27754  Biso   1.000  N
  O102     1.0000 0.55056  0.82012  0.38190  Biso   1.000  O
  N217     1.0000 0.54767  0.86477  0.29343  Biso   1.000  N
  O103     1.0000 0.32165  0.94824  0.35216  Biso   1.000  O
  H316     1.0000 0.36812  0.91821  0.26548  Biso   1.000  H
  H317     1.0000 0.37349  0.86232  0.25388  Biso   1.000  H
  N218     1.0000 0.29636  0.91952  0.52147  Biso   1.000  N
  H318     1.0000 0.25580  0.88181  0.46328  Biso   1.000  H
  H319     1.0000 0.26761  0.93429  0.43958  Biso   1.000  H
  O104     1.0000 0.40423  0.84883  0.63952  Biso   1.000  O
  N219     1.0000 0.34645  0.90561  0.65596  Biso   1.000  N
  N220     1.0000 0.34645  0.90565  0.65596  Biso   1.000  N
  C322     1.0000 0.30226  0.92049  0.62788  Biso   1.000  C
  H320     1.0000 0.26772  0.86701  0.57508  Biso   1.000  H
  N221     1.0000 0.50181  0.92749  0.24598  Biso   1.000  N
  H321     1.0000 0.52170  0.86442  0.20730  Biso   1.000  H
  C323     1.0000 0.45507  0.93653  0.26023  Biso   1.000  C
  C324     1.0000 0.59844  0.86893  0.28348  Biso   1.000  C
  C325     1.0000 0.29885  0.96553  0.53909  Biso   1.000  C
  C326     1.0000 0.35929  0.91807  0.71753  Biso   1.000  C
  N222     1.0000 0.30429  0.96759  0.60098  Biso   1.000  N
  H322     1.0000 0.27480  0.91732  0.65670  Biso   1.000  H
  C327     1.0000 0.52932  0.96140  0.21187  Biso   1.000  C
  O105     1.0000 0.43539  0.97460  0.25644  Biso   1.000  O
  N223     1.0000 0.61630  0.91664  0.29302  Biso   1.000  N
  H323     1.0000 0.60581  0.85890  0.24119  Biso   1.000  H
  H324     1.0000 0.61509  0.84698  0.31161  Biso   1.000  H
  H325     1.0000 0.61509  0.84702  0.31161  Biso   1.000  H
  O106     1.0000 0.29529  0.00064  0.50493  Biso   1.000  O
  N224     1.0000 0.37932  0.96574  0.72360  Biso   1.000  N
  H326     1.0000 0.38281  0.89469  0.73278  Biso   1.000  H
  H327     1.0000 0.33062  0.91568  0.74370  Biso   1.000  H
  H328     1.0000 0.33062  0.91572  0.74370  Biso   1.000  H
  C328     1.0000 0.29540  0.01071  0.63532  Biso   1.000  C
  N225     1.0000 0.56991  0.97919  0.24415  Biso   1.000  N
  H329     1.0000 0.50861  0.98851  0.20068  Biso   1.000  H
  H330     1.0000 0.54020  0.94621  0.17350  Biso   1.000  H
  C329     1.0000 0.64498  0.92810  0.34166  Biso   1.000  C
  C330     1.0000 0.61491  0.95382  0.24785  Biso   1.000  C
  C331     1.0000 0.42490  0.97314  0.74128  Biso   1.000  C
  C332     1.0000 0.34994  0.00857  0.72735  Biso   1.000  C
  N226     1.0000 0.33610  0.02768  0.66811  Biso   1.000  N
  H331     1.0000 0.28462  0.03579  0.60678  Biso   1.000  H
  H332     1.0000 0.26932  0.00470  0.66469  Biso   1.000  H
  N227     1.0000 0.33610  0.02771  0.66811  Biso   1.000  N
  C333     1.0000 0.57510  0.02686  0.25872  Biso   1.000  C
  N228     1.0000 0.66390  0.97232  0.33184  Biso   1.000  N
  O107     1.0000 0.65302  0.90252  0.38523  Biso   1.000  O
  H333     1.0000 0.62509  0.94180  0.20689  Biso   1.000  H
  C334     1.0000 0.65006  0.99143  0.27265  Biso   1.000  C
  O108     1.0000 0.45624  0.94357  0.74484  Biso   1.000  O
  N229     1.0000 0.43009  0.02081  0.75585  Biso   1.000  N
  C335     1.0000 0.38509  0.04621  0.75215  Biso   1.000  C
  H334     1.0000 0.32201  0.00409  0.75498  Biso   1.000  H
  C336     1.0000 0.35502  0.07190  0.65834  Biso   1.000  C
  O109     1.0000 0.54376  0.05643  0.25516  Biso   1.000  O
  N230     1.0000 0.62068  0.03426  0.27635  Biso   1.000  N
  C337     1.0000 0.70460  0.98933  0.36468  Biso   1.000  C
  H335     1.0000 0.67799  0.99591  0.24498  Biso   1.000  H
  C338     1.0000 0.47068  0.03860  0.78813  Biso   1.000  C
  N231     1.0000 0.38370  0.08336  0.70698  Biso   1.000  N
  H336     1.0000 0.37491  0.05820  0.79311  Biso   1.000  H
  O110     1.0000 0.34698  0.09752  0.61472  Biso   1.000  O
  C339     1.0000 0.64071  0.08193  0.28243  Biso   1.000  C
  H337     1.0000 0.71542  0.96421  0.39318  Biso   1.000  H
  H338     1.0000 0.73072  0.99530  0.33531  Biso   1.000  H
  N232     1.0000 0.69571  0.03241  0.39902  Biso   1.000  N
  N233     1.0000 0.49822  0.07251  0.75402  Biso   1.000  N
  H339     1.0000 0.49139  0.01149  0.79928  Biso   1.000  H
  H340     1.0000 0.45980  0.05379  0.82650  Biso   1.000  H
  C340     1.0000 0.40156  0.13110  0.71648  Biso   1.000  C
  N234     1.0000 0.65359  0.09439  0.34404  Biso   1.000  N
  H341     1.0000 0.61719  0.10531  0.26722  Biso   1.000  H
  H342     1.0000 0.66942  0.08432  0.25630  Biso   1.000  H
  C341     1.0000 0.69774  0.07951  0.37212  Biso   1.000  C
  C342     1.0000 0.70119  0.03447  0.46091  Biso   1.000  C
  C343     1.0000 0.69774  0.07955  0.37212  Biso   1.000  C
  C344     1.0000 0.54497  0.06347  0.73977  Biso   1.000  C
  C345     1.0000 0.48701  0.12292  0.75155  Biso   1.000  C
  C346     1.0000 0.54497  0.06351  0.73977  Biso   1.000  C
  N235     1.0000 0.45233  0.13523  0.70652  Biso   1.000  N
  H343     1.0000 0.39419  0.14110  0.75881  Biso   1.000  H
  H344     1.0000 0.38491  0.15302  0.68839  Biso   1.000  H
  C347     1.0000 0.63263  0.13085  0.37527  Biso   1.000  C
  H345     1.0000 0.72520  0.08272  0.34330  Biso   1.000  H
  C348     1.0000 0.70286  0.11324  0.42725  Biso   1.000  C
  O111     1.0000 0.70471  0.99936  0.49507  Biso   1.000  O
  N236     1.0000 0.70368  0.08051  0.47849  Biso   1.000  N
  O112     1.0000 0.56461  0.02540  0.74351  Biso   1.000  O
  N237     1.0000 0.56575  0.10584  0.72246  Biso   1.000  N
  C349     1.0000 0.53380  0.14537  0.72739  Biso   1.000  C
  H346     1.0000 0.47830  0.13558  0.79270  Biso   1.000  H
  H347     1.0000 0.47830  0.13562  0.79270  Biso   1.000  H
  C350     1.0000 0.47147  0.16205  0.66026  Biso   1.000  C
  O113     1.0000 0.59577  0.15117  0.36048  Biso   1.000  O
  N238     1.0000 0.66017  0.14163  0.42442  Biso   1.000  N
  H348     1.0000 0.73232  0.13299  0.42492  Biso   1.000  H
  H349     1.0000 0.73232  0.13302  0.42492  Biso   1.000  H
  C351     1.0000 0.71873  0.09396  0.53992  Biso   1.000  C
  C352     1.0000 0.61680  0.11125  0.71894  Biso   1.000  C
  N239     1.0000 0.51889  0.16604  0.67003  Biso   1.000  N
  H350     1.0000 0.54632  0.17009  0.75598  Biso   1.000  H
  O114     1.0000 0.44948  0.17988  0.61810  Biso   1.000  O
  C353     1.0000 0.65266  0.18376  0.46150  Biso   1.000  C
  N240     1.0000 0.68080  0.11278  0.57741  Biso   1.000  N
  H351     1.0000 0.74420  0.11819  0.53667  Biso   1.000  H
  H352     1.0000 0.73239  0.06571  0.56038  Biso   1.000  H
  H353     1.0000 0.74420  0.11822  0.53667  Biso   1.000  H
  N241     1.0000 0.63455  0.12061  0.65857  Biso   1.000  N
  H354     1.0000 0.63192  0.08179  0.73447  Biso   1.000  H
  H355     1.0000 0.62651  0.13772  0.74607  Biso   1.000  H
  C354     1.0000 0.54817  0.19941  0.63651  Biso   1.000  C
  N242     1.0000 0.63416  0.17244  0.52238  Biso   1.000  N
  H356     1.0000 0.68322  0.20101  0.46579  Biso   1.000  H
  H357     1.0000 0.63000  0.20510  0.44040  Biso   1.000  H
  C355     1.0000 0.66490  0.16148  0.57344  Biso   1.000  C
  C356     1.0000 0.66565  0.09061  0.62879  Biso   1.000  C
  C357     1.0000 0.63156  0.16639  0.62911  Biso   1.000  C
  N243     1.0000 0.58560  0.17710  0.60198  Biso   1.000  N
  H358     1.0000 0.56251  0.22221  0.66560  Biso   1.000  H
  H359     1.0000 0.52771  0.21770  0.60819  Biso   1.000  H
  C358     1.0000 0.58980  0.18408  0.54037  Biso   1.000  C
  H360     1.0000 0.69219  0.18422  0.57600  Biso   1.000  H
  O115     1.0000 0.67835  0.05176  0.64779  Biso   1.000  O
  O116     1.0000 0.67835  0.05180  0.64779  Biso   1.000  O
  H361     1.0000 0.64220  0.19251  0.65688  Biso   1.000  H
  O117     1.0000 0.55731  0.19824  0.50735  Biso   1.000  O
  C359     1.0000 0.80226  0.42049  0.12788  Biso   1.000  C
  C360     1.0000 0.79718  0.38676  0.07275  Biso   1.000  C
  N244     1.0000 0.80429  0.46759  0.10098  Biso   1.000  N
  H362     1.0000 0.77480  0.41732  0.15670  Biso   1.000  H
  N245     1.0000 0.84641  0.40565  0.15596  Biso   1.000  N
  N246     1.0000 0.84645  0.40565  0.15596  Biso   1.000  N
  N247     1.0000 0.83983  0.35837  0.07558  Biso   1.000  N
  N248     1.0000 0.79632  0.41952  0.02151  Biso   1.000  N
  H363     1.0000 0.76768  0.36701  0.07508  Biso   1.000  H
  N249     1.0000 0.79632  0.41952  0.02147  Biso   1.000  N
  N250     1.0000 0.79636  0.41952  0.02151  Biso   1.000  N
  H364     1.0000 0.76772  0.36701  0.07508  Biso   1.000  H
  N251     1.0000 0.79636  0.41952  0.02147  Biso   1.000  N
  C361     1.0000 0.79881  0.46553  0.03909  Biso   1.000  C
  C362     1.0000 0.79885  0.46553  0.03909  Biso   1.000  C
  C363     1.0000 0.79540  0.51071  0.13532  Biso   1.000  C
  C364     1.0000 0.79543  0.51071  0.13532  Biso   1.000  C
  C365     1.0000 0.86737  0.36915  0.12468  Biso   1.000  C
  C366     1.0000 0.85929  0.41807  0.21753  Biso   1.000  C
  C367     1.0000 0.84734  0.31624  0.03850  Biso   1.000  C
  C368     1.0000 0.78127  0.40604  0.96008  Biso   1.000  C
  O118     1.0000 0.79529  0.50064  0.00493  Biso   1.000  O
  N252     1.0000 0.83610  0.52768  0.16811  Biso   1.000  N
  H365     1.0000 0.78462  0.53579  0.10678  Biso   1.000  H
  H366     1.0000 0.76932  0.50470  0.16469  Biso   1.000  H
  O119     1.0000 0.90423  0.34883  0.13952  Biso   1.000  O
  H367     1.0000 0.88281  0.39469  0.23278  Biso   1.000  H
  N253     1.0000 0.87932  0.46574  0.22365  Biso   1.000  N
  H368     1.0000 0.83058  0.41572  0.24370  Biso   1.000  H
  N254     1.0000 0.87932  0.46574  0.22360  Biso   1.000  N
  H369     1.0000 0.83062  0.41572  0.24370  Biso   1.000  H
  H370     1.0000 0.81681  0.29899  0.03421  Biso   1.000  H
  H371     1.0000 0.87000  0.29490  0.05960  Biso   1.000  H
  N255     1.0000 0.86584  0.32756  0.97762  Biso   1.000  N
  N256     1.0000 0.81920  0.38722  0.92259  Biso   1.000  N
  H372     1.0000 0.75580  0.38181  0.96328  Biso   1.000  H
  H373     1.0000 0.76761  0.43429  0.93958  Biso   1.000  H
  C369     1.0000 0.85502  0.57190  0.15834  Biso   1.000  C
  C370     1.0000 0.84997  0.50857  0.22735  Biso   1.000  C
  C371     1.0000 0.92490  0.47314  0.24128  Biso   1.000  C
  C372     1.0000 0.91020  0.31596  0.95958  Biso   1.000  C
  C373     1.0000 0.83510  0.33852  0.92656  Biso   1.000  C
  C374     1.0000 0.83435  0.40939  0.87121  Biso   1.000  C
  C375     1.0000 0.83435  0.40939  0.87116  Biso   1.000  C
  N257     1.0000 0.88370  0.58336  0.20698  Biso   1.000  N
  O120     1.0000 0.84698  0.59752  0.11472  Biso   1.000  O
  C376     1.0000 0.88509  0.54621  0.25215  Biso   1.000  C
  H374     1.0000 0.82201  0.50409  0.25498  Biso   1.000  H
  O121     1.0000 0.95624  0.44357  0.24484  Biso   1.000  O
  N258     1.0000 0.93009  0.52081  0.25585  Biso   1.000  N
  O122     1.0000 0.94269  0.30176  0.99265  Biso   1.000  O
  N259     1.0000 0.91444  0.32293  0.89797  Biso   1.000  N
  H375     1.0000 0.80781  0.31582  0.92400  Biso   1.000  H
  C377     1.0000 0.86844  0.33361  0.87089  Biso   1.000  C
  C378     1.0000 0.86847  0.33361  0.87089  Biso   1.000  C
  O123     1.0000 0.82165  0.44824  0.85216  Biso   1.000  O
  N260     1.0000 0.86545  0.37943  0.84139  Biso   1.000  N
  N261     1.0000 0.86548  0.37943  0.84139  Biso   1.000  N
  C379     1.0000 0.90159  0.63110  0.21648  Biso   1.000  C
  H376     1.0000 0.87491  0.55820  0.29311  Biso   1.000  H
  H377     1.0000 0.87491  0.55820  0.29307  Biso   1.000  H
  C380     1.0000 0.97068  0.53860  0.28813  Biso   1.000  C
  C381     1.0000 0.95183  0.30059  0.86349  Biso   1.000  C
  H378     1.0000 0.85780  0.30749  0.84308  Biso   1.000  H
  C382     1.0000 0.88320  0.38879  0.78101  Biso   1.000  C
  H379     1.0000 0.88491  0.65302  0.18839  Biso   1.000  H
  N262     1.0000 0.95233  0.63523  0.20652  Biso   1.000  N
  H380     1.0000 0.89419  0.64110  0.25877  Biso   1.000  H
  H381     1.0000 0.99139  0.51149  0.29928  Biso   1.000  H
  H382     1.0000 0.95980  0.55379  0.32650  Biso   1.000  H
  N263     1.0000 0.99819  0.57251  0.25402  Biso   1.000  N
  N264     1.0000 0.99822  0.57251  0.25402  Biso   1.000  N
  N265     1.0000 0.98111  0.33400  0.82997  Biso   1.000  N
  H383     1.0000 0.93749  0.27779  0.83440  Biso   1.000  H
  N266     1.0000 0.98111  0.33400  0.82992  Biso   1.000  N
  H384     1.0000 0.97232  0.28230  0.89181  Biso   1.000  H
  H385     1.0000 0.86812  0.41821  0.76548  Biso   1.000  H
  H386     1.0000 0.87349  0.36232  0.75388  Biso   1.000  H
  N267     1.0000 0.93425  0.39416  0.77749  Biso   1.000  N
  H387     1.0000 0.87352  0.36232  0.75388  Biso   1.000  H
  C383     1.0000 0.98701  0.62292  0.25155  Biso   1.000  C
  C384     1.0000 0.97147  0.66205  0.16026  Biso   1.000  C
  C385     1.0000 0.04493  0.56347  0.23977  Biso   1.000  C
  C386     1.0000 0.04497  0.56347  0.23977  Biso   1.000  C
  C387     1.0000 0.96620  0.35463  0.77256  Biso   1.000  C
  C388     1.0000 0.02853  0.33795  0.83970  Biso   1.000  C
  C389     1.0000 0.02857  0.33795  0.83970  Biso   1.000  C
  C390     1.0000 0.95507  0.43653  0.76023  Biso   1.000  C
  C391     1.0000 0.95507  0.43653  0.76018  Biso   1.000  C
  H388     1.0000 0.97830  0.63562  0.29270  Biso   1.000  H
  C392     1.0000 0.03380  0.64537  0.22744  Biso   1.000  C
  C393     1.0000 0.03380  0.64537  0.22739  Biso   1.000  C
  C394     1.0000 0.03383  0.64537  0.22744  Biso   1.000  C
  C395     1.0000 0.03383  0.64537  0.22739  Biso   1.000  C
  O124     1.0000 0.94948  0.67988  0.11810  Biso   1.000  O
  N268     1.0000 0.01889  0.66604  0.17003  Biso   1.000  N
  O125     1.0000 0.06461  0.52540  0.24356  Biso   1.000  O
  N269     1.0000 0.06575  0.60584  0.22246  Biso   1.000  N
  O126     1.0000 0.06461  0.52540  0.24351  Biso   1.000  O
  H389     1.0000 0.95371  0.32991  0.74397  Biso   1.000  H
  C396     1.0000 0.01299  0.37708  0.74845  Biso   1.000  C
  C397     1.0000 0.01299  0.37708  0.74840  Biso   1.000  C
  O127     1.0000 0.05056  0.32012  0.88190  Biso   1.000  O
  N270     1.0000 0.04767  0.36477  0.79343  Biso   1.000  N
  O128     1.0000 0.05056  0.32012  0.88185  Biso   1.000  O
  O129     1.0000 0.93539  0.47460  0.75644  Biso   1.000  O
  N271     1.0000 0.00181  0.42749  0.74598  Biso   1.000  N
  H390     1.0000 0.04629  0.67009  0.25598  Biso   1.000  H
  H391     1.0000 0.04632  0.67009  0.25598  Biso   1.000  H
  C398     1.0000 0.04817  0.69941  0.13651  Biso   1.000  C
  C399     1.0000 0.11680  0.61125  0.21899  Biso   1.000  C
  C400     1.0000 0.11680  0.61125  0.21894  Biso   1.000  C
  C401     1.0000 0.11684  0.61125  0.21899  Biso   1.000  C
  C402     1.0000 0.11684  0.61125  0.21894  Biso   1.000  C
  H392     1.0000 0.02170  0.36442  0.70730  Biso   1.000  H
  C403     1.0000 0.09844  0.36893  0.78348  Biso   1.000  C
  C404     1.0000 0.02932  0.46140  0.71187  Biso   1.000  C
  H393     1.0000 0.06251  0.72221  0.16560  Biso   1.000  H
  H394     1.0000 0.02771  0.71770  0.10819  Biso   1.000  H
  N272     1.0000 0.08560  0.67710  0.10198  Biso   1.000  N
  H395     1.0000 0.12651  0.63772  0.24612  Biso   1.000  H
  N273     1.0000 0.13455  0.62061  0.15857  Biso   1.000  N
  H396     1.0000 0.12651  0.63772  0.24607  Biso   1.000  H
  H397     1.0000 0.13192  0.58179  0.23447  Biso   1.000  H
  N274     1.0000 0.11630  0.41664  0.79302  Biso   1.000  N
  H398     1.0000 0.10581  0.35890  0.74119  Biso   1.000  H
  H399     1.0000 0.11509  0.34702  0.81161  Biso   1.000  H
  N275     1.0000 0.06991  0.47919  0.74415  Biso   1.000  N
  H400     1.0000 0.00861  0.48851  0.70072  Biso   1.000  H
  H401     1.0000 0.04020  0.44621  0.67350  Biso   1.000  H
  H402     1.0000 0.00861  0.48851  0.70068  Biso   1.000  H
  C405     1.0000 0.08980  0.68408  0.04042  Biso   1.000  C
  C406     1.0000 0.13156  0.66639  0.12911  Biso   1.000  C
  C407     1.0000 0.08980  0.68408  0.04037  Biso   1.000  C
  C408     1.0000 0.16565  0.59061  0.12879  Biso   1.000  C
  C409     1.0000 0.11491  0.45382  0.74785  Biso   1.000  C
  C410     1.0000 0.14498  0.42810  0.84166  Biso   1.000  C
  C411     1.0000 0.07510  0.52686  0.75872  Biso   1.000  C
  O130     1.0000 0.05731  0.69824  0.00735  Biso   1.000  O
  N276     1.0000 0.13416  0.67244  0.02238  Biso   1.000  N
  C412     1.0000 0.16490  0.66148  0.07344  Biso   1.000  C
  H403     1.0000 0.14220  0.69251  0.15688  Biso   1.000  H
  N277     1.0000 0.18080  0.61278  0.07741  Biso   1.000  N
  O131     1.0000 0.17838  0.55180  0.14779  Biso   1.000  O
  H404     1.0000 0.12509  0.44180  0.70689  Biso   1.000  H
  C413     1.0000 0.15006  0.49143  0.77265  Biso   1.000  C
  H405     1.0000 0.12512  0.44180  0.70689  Biso   1.000  H
  N278     1.0000 0.16390  0.47232  0.83184  Biso   1.000  N
  O132     1.0000 0.15305  0.40252  0.88523  Biso   1.000  O
  O133     1.0000 0.04376  0.55643  0.75516  Biso   1.000  O
  N279     1.0000 0.12068  0.53426  0.77635  Biso   1.000  N
  C414     1.0000 0.15266  0.68376  0.96150  Biso   1.000  C
  H406     1.0000 0.19219  0.68422  0.07600  Biso   1.000  H
  H407     1.0000 0.19222  0.68422  0.07600  Biso   1.000  H
  C415     1.0000 0.21873  0.59396  0.03992  Biso   1.000  C
  H408     1.0000 0.17799  0.49591  0.74498  Biso   1.000  H
  C416     1.0000 0.20460  0.48933  0.86468  Biso   1.000  C
  C417     1.0000 0.14074  0.58193  0.78247  Biso   1.000  C
  C418     1.0000 0.14074  0.58193  0.78243  Biso   1.000  C
  H409     1.0000 0.18319  0.70101  0.96579  Biso   1.000  H
  H410     1.0000 0.13000  0.70510  0.94040  Biso   1.000  H
  N280     1.0000 0.16020  0.64163  0.92442  Biso   1.000  N
  H411     1.0000 0.18322  0.70101  0.96579  Biso   1.000  H
  N281     1.0000 0.20368  0.58051  0.97849  Biso   1.000  N
  H412     1.0000 0.24420  0.61819  0.03672  Biso   1.000  H
  H413     1.0000 0.24420  0.61819  0.03667  Biso   1.000  H
  H414     1.0000 0.23242  0.56571  0.06038  Biso   1.000  H
  N282     1.0000 0.19571  0.53241  0.89902  Biso   1.000  N
  H415     1.0000 0.23072  0.49530  0.83531  Biso   1.000  H
  H416     1.0000 0.21542  0.46421  0.89318  Biso   1.000  H
  H417     1.0000 0.16942  0.58432  0.75630  Biso   1.000  H
  N283     1.0000 0.15359  0.59439  0.84399  Biso   1.000  N
  H418     1.0000 0.11719  0.60531  0.76717  Biso   1.000  H
  C419     1.0000 0.13263  0.63085  0.87527  Biso   1.000  C
  C420     1.0000 0.20282  0.61324  0.92725  Biso   1.000  C
  C421     1.0000 0.20282  0.61324  0.92720  Biso   1.000  C
  C422     1.0000 0.20286  0.61324  0.92725  Biso   1.000  C
  C423     1.0000 0.20286  0.61324  0.92720  Biso   1.000  C
  C424     1.0000 0.20119  0.53447  0.96091  Biso   1.000  C
  C425     1.0000 0.19774  0.57955  0.87212  Biso   1.000  C
  O134     1.0000 0.09577  0.65117  0.86048  Biso   1.000  O
  H419     1.0000 0.23232  0.63299  0.92492  Biso   1.000  H
  H420     1.0000 0.23232  0.63299  0.92487  Biso   1.000  H
  O135     1.0000 0.20471  0.49936  0.99507  Biso   1.000  O
  H421     1.0000 0.22520  0.58272  0.84330  Biso   1.000  H
