data_image0
_cell_length_a       20.233
_cell_length_b       18.07
_cell_length_c       23.638
_cell_angle_alpha    90
_cell_angle_beta     108.47
_cell_angle_gamma    90

_symmetry_space_group_name_H-M    "P 1"
_symmetry_int_tables_number       1

loop_
  _symmetry_equiv_pos_as_xyz
  'x, y, z'

loop_
  _atom_site_label
  _atom_site_occupancy
  _atom_site_fract_x
  _atom_site_fract_y
  _atom_site_fract_z
  _atom_site_thermal_displace_type
  _atom_site_B_iso_or_equiv
  _atom_site_type_symbol
  C1       1.0000 0.55411  0.51212  0.45111  Biso   1.000  C
  C2       1.0000 0.56303  0.43769  0.44183  Biso   1.000  C
  H1       1.0000 0.52245  0.54051  0.42060  Biso   1.000  H
  C3       1.0000 0.59110  0.54582  0.50472  Biso   1.000  C
  C4       1.0000 0.52015  0.40227  0.38420  Biso   1.000  C
  C5       1.0000 0.60967  0.39740  0.48692  Biso   1.000  C
  C6       1.0000 0.63743  0.50426  0.54896  Biso   1.000  C
  C7       1.0000 0.58326  0.62546  0.51507  Biso   1.000  C
  O1       1.0000 0.52712  0.32402  0.38407  Biso   1.000  O
  H2       1.0000 0.47046  0.41489  0.37680  Biso   1.000  H
  H3       1.0000 0.53434  0.42319  0.35111  Biso   1.000  H
  C8       1.0000 0.64770  0.43016  0.54040  Biso   1.000  C
  H4       1.0000 0.61586  0.34621  0.48108  Biso   1.000  H
  H5       1.0000 0.66243  0.52701  0.58567  Biso   1.000  H
  O2       1.0000 0.62341  0.66187  0.55329  Biso   1.000  O
  O3       1.0000 0.52562  0.65307  0.47644  Biso   1.000  O
  C9       1.0000 0.58126  0.29469  0.36810  Biso   1.000  C
  C10      1.0000 0.70054  0.38489  0.58647  Biso   1.000  C
  C11      1.0000 0.51095  0.73011  0.48447  Biso   1.000  C
  C12      1.0000 0.58112  0.21782  0.36320  Biso   1.000  C
  C13      1.0000 0.63367  0.33426  0.35628  Biso   1.000  C
  O4       1.0000 0.68058  0.38046  0.63911  Biso   1.000  O
  H6       1.0000 0.70313  0.33448  0.57077  Biso   1.000  H
  H7       1.0000 0.74702  0.40808  0.59589  Biso   1.000  H
  H8       1.0000 0.51067  0.73780  0.52550  Biso   1.000  H
  H9       1.0000 0.46526  0.74328  0.45650  Biso   1.000  H
  H10      1.0000 0.54697  0.76126  0.47711  Biso   1.000  H
  O5       1.0000 0.52754  0.18185  0.37573  Biso   1.000  O
  C14      1.0000 0.63230  0.18373  0.34576  Biso   1.000  C
  C15      1.0000 0.68621  0.30022  0.33920  Biso   1.000  C
  H11      1.0000 0.63396  0.38661  0.35998  Biso   1.000  H
  C16      1.0000 0.72336  0.33309  0.68152  Biso   1.000  C
  C17      1.0000 0.53366  0.10421  0.38331  Biso   1.000  C
  H12      1.0000 0.63145  0.13138  0.34201  Biso   1.000  H
  C18      1.0000 0.68558  0.22346  0.33336  Biso   1.000  C
  C19      1.0000 0.74220  0.34898  0.32836  Biso   1.000  C
  C20      1.0000 0.69525  0.26929  0.69517  Biso   1.000  C
  C21      1.0000 0.79264  0.35042  0.71100  Biso   1.000  C
  H13      1.0000 0.52874  0.08069  0.34478  Biso   1.000  H
  H14      1.0000 0.49705  0.08600  0.39870  Biso   1.000  H
  H15      1.0000 0.57946  0.09209  0.41159  Biso   1.000  H
  C22      1.0000 0.73971  0.18118  0.31440  Biso   1.000  C
  C23      1.0000 0.80281  0.36547  0.38420  Biso   1.000  C
  H16      1.0000 0.72074  0.39640  0.31070  Biso   1.000  H
  H17      1.0000 0.76035  0.32441  0.29888  Biso   1.000  H
  C24      1.0000 0.73455  0.21854  0.73714  Biso   1.000  C
  H18      1.0000 0.64734  0.25921  0.67550  Biso   1.000  H
  O6       1.0000 0.81614  0.41682  0.69664  Biso   1.000  O
  C25      1.0000 0.83203  0.30072  0.75186  Biso   1.000  C
  H19      1.0000 0.71689  0.13857  0.28960  Biso   1.000  H
  H20      1.0000 0.75814  0.21389  0.28929  Biso   1.000  H
  C26      1.0000 0.79999  0.15302  0.36578  Biso   1.000  C
  C27      1.0000 0.79387  0.42291  0.42096  Biso   1.000  C
  C28      1.0000 0.86615  0.32811  0.39990  Biso   1.000  C
  C29      1.0000 0.80448  0.23475  0.76488  Biso   1.000  C
  C30      1.0000 0.69788  0.15003  0.75074  Biso   1.000  C
  C31      1.0000 0.88700  0.43597  0.72693  Biso   1.000  C
  H21      1.0000 0.87962  0.31179  0.77189  Biso   1.000  H
  C32      1.0000 0.86288  0.18904  0.38826  Biso   1.000  C
  C33      1.0000 0.79039  0.08661  0.39299  Biso   1.000  C
  C34      1.0000 0.84576  0.44344  0.47167  Biso   1.000  C
  H22      1.0000 0.75057  0.44837  0.41039  Biso   1.000  H
  C35      1.0000 0.88003  0.26265  0.36476  Biso   1.000  C
  C36      1.0000 0.91887  0.34992  0.45102  Biso   1.000  C
  C37      1.0000 0.85517  0.17952  0.80449  Biso   1.000  C
  C38      1.0000 0.68524  0.08677  0.70645  Biso   1.000  C
  H23      1.0000 0.72590  0.13088  0.79026  Biso   1.000  H
  H24      1.0000 0.65223  0.16569  0.75387  Biso   1.000  H
  H25      1.0000 0.89493  0.43708  0.76997  Biso   1.000  H
  H26      1.0000 0.89694  0.48489  0.71359  Biso   1.000  H
  H27      1.0000 0.91779  0.39917  0.71796  Biso   1.000  H
  C39      1.0000 0.91512  0.15855  0.43768  Biso   1.000  C
  C40      1.0000 0.84023  0.05789  0.44205  Biso   1.000  C
  H28      1.0000 0.74786  0.06049  0.37689  Biso   1.000  H
  O7       1.0000 0.84097  0.50000  0.50896  Biso   1.000  O
  C41      1.0000 0.91041  0.40686  0.48679  Biso   1.000  C
  H29      1.0000 0.92965  0.26287  0.36690  Biso   1.000  H
  H30      1.0000 0.85156  0.26801  0.32230  Biso   1.000  H
  H31      1.0000 0.96223  0.32468  0.46159  Biso   1.000  H
  C42      1.0000 0.88389  0.13066  0.76551  Biso   1.000  C
  H32      1.0000 0.89371  0.20620  0.83397  Biso   1.000  H
  H33      1.0000 0.83093  0.14881  0.82648  Biso   1.000  H
  C43      1.0000 0.73066  0.02773  0.71234  Biso   1.000  C
  C44      1.0000 0.62347  0.08810  0.65788  Biso   1.000  C
  C45      1.0000 0.90439  0.09469  0.46516  Biso   1.000  C
  H34      1.0000 0.95884  0.18301  0.45231  Biso   1.000  H
  O8       1.0000 0.83358  0.99480  0.47216  Biso   1.000  O
  C46      1.0000 0.77546  0.53597  0.49553  Biso   1.000  C
  O9       1.0000 0.96068  0.43287  0.53701  Biso   1.000  O
  C47      1.0000 0.93613  0.16193  0.74562  Biso   1.000  C
  C48      1.0000 0.85779  0.06170  0.74414  Biso   1.000  C
  C49      1.0000 0.80075  0.02241  0.76123  Biso   1.000  C
  C50      1.0000 0.71133  0.96918  0.67184  Biso   1.000  C
  C51      1.0000 0.60599  0.03099  0.61734  Biso   1.000  C
  H35      1.0000 0.59306  0.12939  0.65289  Biso   1.000  H
  O10      1.0000 0.95057  0.06303  0.51368  Biso   1.000  O
  C52      1.0000 0.77035  0.95517  0.45102  Biso   1.000  C
  H36      1.0000 0.76566  0.56259  0.45757  Biso   1.000  H
  H37      1.0000 0.77652  0.57106  0.52738  Biso   1.000  H
  H38      1.0000 0.73892  0.49906  0.49227  Biso   1.000  H
  C53      1.0000 0.03220  0.41926  0.54143  Biso   1.000  C
  H39      1.0000 0.95492  0.20869  0.76100  Biso   1.000  H
  C54      1.0000 0.96088  0.12745  0.70485  Biso   1.000  C
  C55      1.0000 0.88549  0.02540  0.70373  Biso   1.000  C
  H40      1.0000 0.79683  0.04449  0.79829  Biso   1.000  H
  H41      1.0000 0.81343  0.96967  0.76930  Biso   1.000  H
  C56      1.0000 0.64979  0.96906  0.62590  Biso   1.000  C
  H42      1.0000 0.74182  0.92811  0.67639  Biso   1.000  H
  O11      1.0000 0.54681  0.02717  0.56881  Biso   1.000  O
  C57      1.0000 0.01410  0.10089  0.54111  Biso   1.000  C
  C58      1.0000 0.77093  0.89696  0.49678  Biso   1.000  C
  H43      1.0000 0.76635  0.93171  0.41217  Biso   1.000  H
  H44      1.0000 0.73027  0.98899  0.44540  Biso   1.000  H
  C59      1.0000 0.06335  0.35401  0.57992  Biso   1.000  C
  H45      1.0000 0.06004  0.46386  0.55788  Biso   1.000  H
  H46      1.0000 0.03514  0.41079  0.50088  Biso   1.000  H
  O12      1.0000 0.00847  0.15766  0.68108  Biso   1.000  O
  C60      1.0000 0.93532  0.05717  0.68375  Biso   1.000  C
  H47      1.0000 0.86903  0.97731  0.69000  Biso   1.000  H
  O13      1.0000 0.62368  0.91118  0.58674  Biso   1.000  O
  C61      1.0000 0.50193  0.08677  0.55690  Biso   1.000  C
  H48      1.0000 0.04083  0.10387  0.51319  Biso   1.000  H
  H49      1.0000 0.04121  0.07399  0.57697  Biso   1.000  H
  H50      1.0000 0.00411  0.15091  0.55218  Biso   1.000  H
  C62      1.0000 0.72097  0.89834  0.52564  Biso   1.000  C
  C63      1.0000 0.82159  0.84222  0.51159  Biso   1.000  C
  C64      1.0000 0.03030  0.31970  0.61667  Biso   1.000  C
  C65      1.0000 0.12929  0.33005  0.58259  Biso   1.000  C
  C66      1.0000 0.02774  0.23260  0.69762  Biso   1.000  C
  O14      1.0000 0.96345  0.02584  0.64383  Biso   1.000  O
  C67      1.0000 0.66306  0.84383  0.59606  Biso   1.000  C
  H51      1.0000 0.48434  0.09469  0.59058  Biso   1.000  H
  H52      1.0000 0.46285  0.07692  0.52078  Biso   1.000  H
  H53      1.0000 0.52683  0.13110  0.55088  Biso   1.000  H
  C68      1.0000 0.71967  0.84577  0.56792  Biso   1.000  C
  H54      1.0000 0.68673  0.93641  0.51618  Biso   1.000  H
  H55      1.0000 0.85635  0.84090  0.49241  Biso   1.000  H
  C69      1.0000 0.82188  0.78921  0.55445  Biso   1.000  C
  H56      1.0000 0.98443  0.33437  0.61440  Biso   1.000  H
  C70      1.0000 0.06330  0.26458  0.65641  Biso   1.000  C
  H57      1.0000 0.15190  0.35219  0.55717  Biso   1.000  H
  C71      1.0000 0.16312  0.27427  0.62153  Biso   1.000  C
  H58      1.0000 0.98571  0.26198  0.69530  Biso   1.000  H
  H59      1.0000 0.05954  0.23437  0.73919  Biso   1.000  H
  C72      1.0000 0.93236  0.95949  0.61511  Biso   1.000  C
  H60      1.0000 0.63132  0.80210  0.57907  Biso   1.000  H
  H61      1.0000 0.68394  0.83509  0.63937  Biso   1.000  H
  C73      1.0000 0.77048  0.79037  0.58224  Biso   1.000  C
  C74      1.0000 0.87812  0.73254  0.56966  Biso   1.000  C
  C75      1.0000 0.12997  0.24189  0.65895  Biso   1.000  C
  C76      1.0000 0.23336  0.24798  0.62514  Biso   1.000  C
  H62      1.0000 0.93955  0.91981  0.64468  Biso   1.000  H
  H63      1.0000 0.95375  0.94560  0.58478  Biso   1.000  H
  H64      1.0000 0.88223  0.96740  0.59598  Biso   1.000  H
  H65      1.0000 0.77003  0.75362  0.61078  Biso   1.000  H
  O15      1.0000 0.92846  0.73475  0.55329  Biso   1.000  O
  O16      1.0000 0.86625  0.67858  0.60396  Biso   1.000  O
  H66      1.0000 0.15301  0.20432  0.68621  Biso   1.000  H
  O17      1.0000 0.26618  0.20177  0.65869  Biso   1.000  O
  O18      1.0000 0.25806  0.28301  0.58585  Biso   1.000  O
  C77      1.0000 0.91984  0.62252  0.62309  Biso   1.000  C
  C78      1.0000 0.32562  0.25971  0.58398  Biso   1.000  C
  H67      1.0000 0.91560  0.58771  0.59027  Biso   1.000  H
  H68      1.0000 0.91435  0.59574  0.65739  Biso   1.000  H
  H69      1.0000 0.96582  0.64610  0.63447  Biso   1.000  H
  H70      1.0000 0.35942  0.26187  0.62416  Biso   1.000  H
  H71      1.0000 0.34074  0.29247  0.55739  Biso   1.000  H
  H72      1.0000 0.32264  0.20880  0.56899  Biso   1.000  H
  C79      1.0000 0.44578  0.48788  0.54888  Biso   1.000  C
  C80      1.0000 0.40878  0.45412  0.49526  Biso   1.000  C
  C81      1.0000 0.43689  0.56226  0.55811  Biso   1.000  C
  H73      1.0000 0.47743  0.45949  0.57938  Biso   1.000  H
  C82      1.0000 0.41667  0.37449  0.48492  Biso   1.000  C
  C83      1.0000 0.36245  0.49568  0.45102  Biso   1.000  C
  C84      1.0000 0.39021  0.60260  0.51306  Biso   1.000  C
  C85      1.0000 0.47978  0.59768  0.61578  Biso   1.000  C
  O19      1.0000 0.37647  0.33807  0.44669  Biso   1.000  O
  O20      1.0000 0.47431  0.34693  0.52354  Biso   1.000  O
  C86      1.0000 0.35223  0.56978  0.45958  Biso   1.000  C
  H74      1.0000 0.33745  0.47299  0.41431  Biso   1.000  H
  H75      1.0000 0.38407  0.65379  0.51890  Biso   1.000  H
  O21      1.0000 0.47275  0.67593  0.61587  Biso   1.000  O
  H76      1.0000 0.52942  0.58506  0.62318  Biso   1.000  H
  H77      1.0000 0.46554  0.57676  0.64887  Biso   1.000  H
  C87      1.0000 0.48896  0.26989  0.51547  Biso   1.000  C
  C88      1.0000 0.29934  0.61511  0.41351  Biso   1.000  C
  C89      1.0000 0.41867  0.70531  0.63188  Biso   1.000  C
  H78      1.0000 0.48926  0.26220  0.47448  Biso   1.000  H
  H79      1.0000 0.53462  0.25667  0.54348  Biso   1.000  H
  H80      1.0000 0.45295  0.23868  0.52287  Biso   1.000  H
  O22      1.0000 0.31931  0.61948  0.36088  Biso   1.000  O
  H81      1.0000 0.29675  0.66547  0.42921  Biso   1.000  H
  H82      1.0000 0.25286  0.59186  0.40410  Biso   1.000  H
  C90      1.0000 0.41876  0.78218  0.63679  Biso   1.000  C
  C91      1.0000 0.36619  0.66574  0.64365  Biso   1.000  C
  C92      1.0000 0.27655  0.66691  0.31842  Biso   1.000  C
  O23      1.0000 0.47239  0.81815  0.62425  Biso   1.000  O
  C93      1.0000 0.36763  0.81621  0.65423  Biso   1.000  C
  C94      1.0000 0.31365  0.69972  0.66074  Biso   1.000  C
  H83      1.0000 0.36592  0.61339  0.64000  Biso   1.000  H
  C95      1.0000 0.30468  0.73066  0.30481  Biso   1.000  C
  C96      1.0000 0.20729  0.64958  0.28898  Biso   1.000  C
  C97      1.0000 0.46622  0.89579  0.61667  Biso   1.000  C
  H84      1.0000 0.36843  0.86857  0.65797  Biso   1.000  H
  C98      1.0000 0.31430  0.77648  0.66663  Biso   1.000  C
  C99      1.0000 0.25768  0.65097  0.67162  Biso   1.000  C
  C100     1.0000 0.26538  0.78141  0.26284  Biso   1.000  C
  H85      1.0000 0.35254  0.74079  0.32448  Biso   1.000  H
  O24      1.0000 0.18374  0.58318  0.30334  Biso   1.000  O
  C101     1.0000 0.16785  0.69923  0.24812  Biso   1.000  C
  H86      1.0000 0.47114  0.91926  0.65521  Biso   1.000  H
  H87      1.0000 0.50283  0.91400  0.60128  Biso   1.000  H
  H88      1.0000 0.42047  0.90786  0.58839  Biso   1.000  H
  C102     1.0000 0.26017  0.81882  0.68558  Biso   1.000  C
  C103     1.0000 0.19712  0.63448  0.61578  Biso   1.000  C
  H89      1.0000 0.27914  0.60360  0.68928  Biso   1.000  H
  H90      1.0000 0.23953  0.67559  0.70110  Biso   1.000  H
  C104     1.0000 0.19539  0.76525  0.23505  Biso   1.000  C
  C105     1.0000 0.30205  0.84997  0.24924  Biso   1.000  C
  C106     1.0000 0.11288  0.56397  0.27305  Biso   1.000  C
  H91      1.0000 0.12026  0.68816  0.22810  Biso   1.000  H
  H92      1.0000 0.28304  0.86137  0.71038  Biso   1.000  H
  H93      1.0000 0.24174  0.78605  0.71069  Biso   1.000  H
  C107     1.0000 0.19989  0.84698  0.63420  Biso   1.000  C
  C108     1.0000 0.20606  0.57709  0.57903  Biso   1.000  C
  C109     1.0000 0.13372  0.67189  0.60003  Biso   1.000  C
  C110     1.0000 0.14471  0.82042  0.19549  Biso   1.000  C
  C111     1.0000 0.31464  0.91323  0.29353  Biso   1.000  C
  H94      1.0000 0.27397  0.86906  0.20968  Biso   1.000  H
  H95      1.0000 0.34770  0.83426  0.24612  Biso   1.000  H
  H96      1.0000 0.10500  0.56287  0.23001  Biso   1.000  H
  H97      1.0000 0.10299  0.51511  0.28639  Biso   1.000  H
  H98      1.0000 0.08208  0.60077  0.28198  Biso   1.000  H
  C112     1.0000 0.13700  0.81096  0.61172  Biso   1.000  C
  C113     1.0000 0.20947  0.91334  0.60695  Biso   1.000  C
  C114     1.0000 0.15412  0.55650  0.52831  Biso   1.000  C
  H99      1.0000 0.24936  0.55158  0.58960  Biso   1.000  H
  C115     1.0000 0.08101  0.65003  0.54896  Biso   1.000  C
  C116     1.0000 0.11985  0.73730  0.63523  Biso   1.000  C
  C117     1.0000 0.11599  0.86929  0.23447  Biso   1.000  C
  H100     1.0000 0.10617  0.79380  0.16601  Biso   1.000  H
  H101     1.0000 0.16900  0.85119  0.17350  Biso   1.000  H
  C118     1.0000 0.26927  0.97222  0.28764  Biso   1.000  C
  C119     1.0000 0.37641  0.91184  0.34210  Biso   1.000  C
  C120     1.0000 0.08476  0.84139  0.56230  Biso   1.000  C
  C121     1.0000 0.15965  0.94206  0.55793  Biso   1.000  C
  H102     1.0000 0.25202  0.93946  0.62309  Biso   1.000  H
  O25      1.0000 0.15896  0.50000  0.49103  Biso   1.000  O
  C122     1.0000 0.08947  0.59314  0.51319  Biso   1.000  C
  H103     1.0000 0.03765  0.67526  0.53839  Biso   1.000  H
  H104     1.0000 0.07023  0.73708  0.63308  Biso   1.000  H
  H105     1.0000 0.14832  0.73199  0.67769  Biso   1.000  H
  C123     1.0000 0.06380  0.83802  0.25437  Biso   1.000  C
  C124     1.0000 0.14207  0.93830  0.25579  Biso   1.000  C
  C125     1.0000 0.19918  0.97759  0.23876  Biso   1.000  C
  C126     1.0000 0.28860  0.03082  0.32814  Biso   1.000  C
  C127     1.0000 0.39394  0.96895  0.38264  Biso   1.000  C
  H106     1.0000 0.40687  0.87056  0.34709  Biso   1.000  H
  C128     1.0000 0.09550  0.90526  0.53483  Biso   1.000  C
  H107     1.0000 0.04104  0.81699  0.54767  Biso   1.000  H
  O26      1.0000 0.16628  0.00520  0.52778  Biso   1.000  O
  C129     1.0000 0.22447  0.46397  0.50445  Biso   1.000  C
  O27      1.0000 0.03920  0.56707  0.46297  Biso   1.000  O
  H108     1.0000 0.04496  0.79126  0.23898  Biso   1.000  H
  C130     1.0000 0.03900  0.87255  0.29513  Biso   1.000  C
  C131     1.0000 0.11439  0.97460  0.29625  Biso   1.000  C
  H109     1.0000 0.20305  0.95545  0.20169  Biso   1.000  H
  H110     1.0000 0.18645  0.03027  0.23068  Biso   1.000  H
  H111     1.0000 0.25806  0.07194  0.32359  Biso   1.000  H
  C132     1.0000 0.35007  0.03088  0.37403  Biso   1.000  C
  O28      1.0000 0.45307  0.97277  0.43117  Biso   1.000  O
  O29      1.0000 0.04936  0.93691  0.48630  Biso   1.000  O
  C133     1.0000 0.22953  0.04488  0.54896  Biso   1.000  C
  H112     1.0000 0.23427  0.43741  0.54241  Biso   1.000  H
  H113     1.0000 0.22336  0.42889  0.47261  Biso   1.000  H
  H114     1.0000 0.26096  0.50089  0.50771  Biso   1.000  H
  C134     1.0000 0.96773  0.58074  0.45856  Biso   1.000  C
  C135     1.0000 0.06456  0.94278  0.31623  Biso   1.000  C
  O30      1.0000 0.99141  0.84234  0.31891  Biso   1.000  O
  H115     1.0000 0.13085  0.02274  0.30999  Biso   1.000  H
  O31      1.0000 0.37620  0.08882  0.41324  Biso   1.000  O
  C136     1.0000 0.49795  0.91317  0.44308  Biso   1.000  C
  C137     1.0000 0.98578  0.89906  0.45887  Biso   1.000  C
  C138     1.0000 0.22895  0.10304  0.50320  Biso   1.000  C
  H116     1.0000 0.23356  0.06829  0.58777  Biso   1.000  H
  H117     1.0000 0.26966  0.01101  0.55458  Biso   1.000  H
  C139     1.0000 0.93653  0.64593  0.42006  Biso   1.000  C
  H118     1.0000 0.93989  0.53608  0.44210  Biso   1.000  H
  H119     1.0000 0.96474  0.58921  0.49910  Biso   1.000  H
  O32      1.0000 0.03648  0.97410  0.35615  Biso   1.000  O
  C140     1.0000 0.97214  0.76740  0.30236  Biso   1.000  C
  C141     1.0000 0.33682  0.15612  0.40392  Biso   1.000  C
  H120     1.0000 0.51554  0.90526  0.40940  Biso   1.000  H
  H121     1.0000 0.53707  0.92308  0.47921  Biso   1.000  H
  H122     1.0000 0.47305  0.86890  0.44910  Biso   1.000  H
  H123     1.0000 0.95905  0.89607  0.48679  Biso   1.000  H
  H124     1.0000 0.95867  0.92595  0.42301  Biso   1.000  H
  H125     1.0000 0.99577  0.84909  0.44781  Biso   1.000  H
  C142     1.0000 0.27890  0.10166  0.47430  Biso   1.000  C
  C143     1.0000 0.17828  0.15778  0.48835  Biso   1.000  C
  C144     1.0000 0.96958  0.68030  0.38331  Biso   1.000  C
  C145     1.0000 0.87059  0.66995  0.41739  Biso   1.000  C
  C146     1.0000 0.06757  0.04051  0.38487  Biso   1.000  C
  H126     1.0000 0.01417  0.73796  0.30468  Biso   1.000  H
  H127     1.0000 0.94039  0.76558  0.26079  Biso   1.000  H
  C147     1.0000 0.93658  0.73542  0.34357  Biso   1.000  C
  H128     1.0000 0.36856  0.19784  0.42091  Biso   1.000  H
  H129     1.0000 0.31599  0.16486  0.36061  Biso   1.000  H
  C148     1.0000 0.28021  0.15423  0.43206  Biso   1.000  C
  H130     1.0000 0.31315  0.06364  0.48380  Biso   1.000  H
  H131     1.0000 0.14353  0.15910  0.50757  Biso   1.000  H
  C149     1.0000 0.17805  0.21085  0.44553  Biso   1.000  C
  H132     1.0000 0.01545  0.66558  0.38559  Biso   1.000  H
  H133     1.0000 0.84798  0.64776  0.44281  Biso   1.000  H
  C150     1.0000 0.83681  0.72568  0.37845  Biso   1.000  C
  H134     1.0000 0.06038  0.08019  0.35530  Biso   1.000  H
  H135     1.0000 0.04618  0.05440  0.41520  Biso   1.000  H
  H136     1.0000 0.11765  0.03260  0.40401  Biso   1.000  H
  C151     1.0000 0.86989  0.75811  0.34098  Biso   1.000  C
  C152     1.0000 0.22945  0.20963  0.41774  Biso   1.000  C
  C153     1.0000 0.12174  0.26740  0.43028  Biso   1.000  C
  C154     1.0000 0.76652  0.75196  0.37484  Biso   1.000  C
  H137     1.0000 0.84687  0.79568  0.31378  Biso   1.000  H
  H138     1.0000 0.22985  0.24638  0.38920  Biso   1.000  H
  O33      1.0000 0.07143  0.26525  0.44669  Biso   1.000  O
  O34      1.0000 0.13368  0.32136  0.39602  Biso   1.000  O
  O35      1.0000 0.73375  0.79823  0.34130  Biso   1.000  O
  O36      1.0000 0.74182  0.71693  0.41413  Biso   1.000  O
  C155     1.0000 0.08009  0.37753  0.37689  Biso   1.000  C
  C156     1.0000 0.67426  0.74029  0.41601  Biso   1.000  C
  H139     1.0000 0.08426  0.41234  0.40967  Biso   1.000  H
  H140     1.0000 0.08558  0.40432  0.34259  Biso   1.000  H
  H141     1.0000 0.03405  0.35390  0.36547  Biso   1.000  H
  H142     1.0000 0.64049  0.73807  0.37577  Biso   1.000  H
  H143     1.0000 0.65919  0.70747  0.44259  Biso   1.000  H
  H144     1.0000 0.67729  0.79120  0.43099  Biso   1.000  H
  C157     1.0000 0.64465  0.67952  0.69548  Biso   1.000  C
  C158     1.0000 0.61593  0.63066  0.73447  Biso   1.000  C
  C159     1.0000 0.69533  0.73470  0.73504  Biso   1.000  C
  H145     1.0000 0.60611  0.70620  0.66600  Biso   1.000  H
  H146     1.0000 0.66894  0.64875  0.67349  Biso   1.000  H
  C160     1.0000 0.64201  0.56165  0.75578  Biso   1.000  C
  C161     1.0000 0.56374  0.66193  0.75436  Biso   1.000  C
  C162     1.0000 0.76532  0.71854  0.76283  Biso   1.000  C
  C163     1.0000 0.66779  0.80072  0.74811  Biso   1.000  C
  C164     1.0000 0.69912  0.52241  0.73875  Biso   1.000  C
  C165     1.0000 0.61433  0.52535  0.79624  Biso   1.000  C
  H147     1.0000 0.54490  0.70869  0.73897  Biso   1.000  H
  C166     1.0000 0.53899  0.62739  0.79512  Biso   1.000  C
  C167     1.0000 0.80199  0.64997  0.74923  Biso   1.000  C
  C168     1.0000 0.80462  0.76929  0.80480  Biso   1.000  C
  C169     1.0000 0.70723  0.85036  0.78897  Biso   1.000  C
  H148     1.0000 0.62025  0.81179  0.72809  Biso   1.000  H
  H149     1.0000 0.70304  0.54449  0.70168  Biso   1.000  H
  H150     1.0000 0.68644  0.46967  0.73067  Biso   1.000  H
  C170     1.0000 0.76921  0.52773  0.78763  Biso   1.000  C
  C171     1.0000 0.56450  0.55717  0.81622  Biso   1.000  C
  H151     1.0000 0.63083  0.47731  0.80998  Biso   1.000  H
  O37      1.0000 0.49140  0.65766  0.81890  Biso   1.000  O
  C172     1.0000 0.81463  0.58677  0.79352  Biso   1.000  C
  H152     1.0000 0.77391  0.63088  0.70967  Biso   1.000  H
  H153     1.0000 0.84763  0.66569  0.74606  Biso   1.000  H
  H154     1.0000 0.85253  0.75916  0.82447  Biso   1.000  H
  C173     1.0000 0.77649  0.83304  0.81841  Biso   1.000  C
  O38      1.0000 0.68368  0.91677  0.80333  Biso   1.000  O
  C174     1.0000 0.78854  0.46918  0.82813  Biso   1.000  C
  O39      1.0000 0.53642  0.52584  0.85614  Biso   1.000  O
  C175     1.0000 0.47208  0.73260  0.80235  Biso   1.000  C
  C176     1.0000 0.87635  0.58810  0.84209  Biso   1.000  C
  O40      1.0000 0.81929  0.88046  0.86087  Biso   1.000  O
  C177     1.0000 0.61280  0.93597  0.77300  Biso   1.000  C
  H155     1.0000 0.75800  0.42811  0.82358  Biso   1.000  H
  C178     1.0000 0.85001  0.46906  0.87403  Biso   1.000  C
  C179     1.0000 0.56751  0.45949  0.88486  Biso   1.000  C
  H156     1.0000 0.44033  0.73437  0.76078  Biso   1.000  H
  H157     1.0000 0.51411  0.76198  0.80467  Biso   1.000  H
  C180     1.0000 0.43652  0.76458  0.84356  Biso   1.000  C
  C181     1.0000 0.89388  0.53099  0.88263  Biso   1.000  C
  H158     1.0000 0.90681  0.62939  0.84709  Biso   1.000  H
  C182     1.0000 0.79928  0.88489  0.91350  Biso   1.000  C
  H159     1.0000 0.60494  0.93708  0.73000  Biso   1.000  H
  H160     1.0000 0.60293  0.98489  0.78638  Biso   1.000  H
  H161     1.0000 0.58202  0.89917  0.78197  Biso   1.000  H
  O41      1.0000 0.87614  0.41118  0.91323  Biso   1.000  O
  H162     1.0000 0.56032  0.41981  0.85529  Biso   1.000  H
  H163     1.0000 0.54612  0.44560  0.91519  Biso   1.000  H
  H164     1.0000 0.61759  0.46740  0.90400  Biso   1.000  H
  C183     1.0000 0.46952  0.81970  0.88330  Biso   1.000  C
  C184     1.0000 0.36983  0.74189  0.84098  Biso   1.000  C
  O42      1.0000 0.95299  0.52717  0.93112  Biso   1.000  O
  H165     1.0000 0.79669  0.83448  0.92920  Biso   1.000  H
  H166     1.0000 0.75280  0.90808  0.90409  Biso   1.000  H
  C185     1.0000 0.85217  0.93016  0.95957  Biso   1.000  C
  C186     1.0000 0.83676  0.34383  0.90391  Biso   1.000  C
  H167     1.0000 0.51544  0.83437  0.88558  Biso   1.000  H
  C187     1.0000 0.43647  0.85401  0.92006  Biso   1.000  C
  C188     1.0000 0.33675  0.77427  0.87844  Biso   1.000  C
  H168     1.0000 0.34681  0.70426  0.81377  Biso   1.000  H
  C189     1.0000 0.99789  0.58677  0.94307  Biso   1.000  C
  C190     1.0000 0.89020  0.89740  0.01305  Biso   1.000  C
  C191     1.0000 0.86239  0.00426  0.95101  Biso   1.000  C
  H169     1.0000 0.86848  0.30210  0.92086  Biso   1.000  H
  H170     1.0000 0.81593  0.33509  0.86060  Biso   1.000  H
  C192     1.0000 0.78019  0.34577  0.93201  Biso   1.000  C
  C193     1.0000 0.37053  0.82999  0.91738  Biso   1.000  C
  C194     1.0000 0.46767  0.91926  0.95855  Biso   1.000  C
  C195     1.0000 0.26646  0.74798  0.87483  Biso   1.000  C
  H171     1.0000 0.97299  0.63110  0.94909  Biso   1.000  H
  H172     1.0000 0.01553  0.59469  0.90940  Biso   1.000  H
  H173     1.0000 0.03702  0.57687  0.97920  Biso   1.000  H
  H174     1.0000 0.88406  0.84615  0.01889  Biso   1.000  H
  C196     1.0000 0.93688  0.93769  0.05810  Biso   1.000  C
  C197     1.0000 0.90872  0.04588  0.99525  Biso   1.000  C
  H175     1.0000 0.83737  0.02701  0.91426  Biso   1.000  H
  C198     1.0000 0.77884  0.39834  0.97429  Biso   1.000  C
  C199     1.0000 0.72939  0.29037  0.91774  Biso   1.000  C
  H176     1.0000 0.34790  0.85219  0.94276  Biso   1.000  H
  O43      1.0000 0.53919  0.93287  0.96296  Biso   1.000  O
  H177     1.0000 0.43983  0.96386  0.94209  Biso   1.000  H
  H178     1.0000 0.46473  0.91079  0.99909  Biso   1.000  H
  O44      1.0000 0.23369  0.70172  0.84129  Biso   1.000  O
  O45      1.0000 0.24175  0.78301  0.91408  Biso   1.000  O
  C200     1.0000 0.97977  0.90227  0.11577  Biso   1.000  C
  C201     1.0000 0.94576  0.01212  0.04887  Biso   1.000  C
  C202     1.0000 0.91661  0.12551  0.98491  Biso   1.000  C
  H179     1.0000 0.81309  0.43641  0.98379  Biso   1.000  H
  C203     1.0000 0.72899  0.39696  0.00319  Biso   1.000  C
  C204     1.0000 0.67799  0.28921  0.94552  Biso   1.000  C
  H180     1.0000 0.72979  0.25357  0.88919  Biso   1.000  H
  C205     1.0000 0.58946  0.90681  0.01318  Biso   1.000  C
  C206     1.0000 0.17420  0.75966  0.91600  Biso   1.000  C
  O46      1.0000 0.97273  0.82402  0.11586  Biso   1.000  O
  H181     1.0000 0.96553  0.92319  0.14886  Biso   1.000  H
  H182     1.0000 0.02946  0.91489  0.12317  Biso   1.000  H
  H183     1.0000 0.97742  0.04051  0.07937  Biso   1.000  H
  O47      1.0000 0.87641  0.16193  0.94668  Biso   1.000  O
  O48      1.0000 0.97430  0.15313  0.02353  Biso   1.000  O
  C207     1.0000 0.67822  0.34222  0.98834  Biso   1.000  C
  C208     1.0000 0.72952  0.45517  0.04896  Biso   1.000  C
  C209     1.0000 0.62168  0.23254  0.93027  Biso   1.000  C
  C210     1.0000 0.65416  0.94344  0.02830  Biso   1.000  C
  C211     1.0000 0.58100  0.84992  0.04896  Biso   1.000  C
  H184     1.0000 0.14043  0.76187  0.87576  Biso   1.000  H
  H185     1.0000 0.15913  0.79247  0.94258  Biso   1.000  H
  H186     1.0000 0.17723  0.70880  0.93098  Biso   1.000  H
  C212     1.0000 0.91866  0.79463  0.13187  Biso   1.000  C
  C213     1.0000 0.98895  0.23005  0.01546  Biso   1.000  C
  H187     1.0000 0.64357  0.34090  0.00756  Biso   1.000  H
  O49      1.0000 0.66627  0.49480  0.02777  Biso   1.000  O
  H188     1.0000 0.73355  0.43171  0.08776  Biso   1.000  H
  H189     1.0000 0.76965  0.48899  0.05458  Biso   1.000  H
  O50      1.0000 0.57137  0.23470  0.94668  Biso   1.000  O
  O51      1.0000 0.63362  0.17858  0.89601  Biso   1.000  O
  C214     1.0000 0.70605  0.92291  0.07902  Biso   1.000  C
  O52      1.0000 0.65890  0.00006  0.99102  Biso   1.000  O
  C215     1.0000 0.63371  0.82811  0.10003  Biso   1.000  C
  H190     1.0000 0.53764  0.82468  0.03838  Biso   1.000  H
  C216     1.0000 0.91875  0.71776  0.13678  Biso   1.000  C
  C217     1.0000 0.86623  0.83420  0.14365  Biso   1.000  C
  H191     1.0000 0.98920  0.23774  0.97447  Biso   1.000  H
  H192     1.0000 0.95294  0.26126  0.02286  Biso   1.000  H
  H193     1.0000 0.03471  0.24333  0.04347  Biso   1.000  H
  C218     1.0000 0.65964  0.55789  0.05792  Biso   1.000  C
  C219     1.0000 0.58003  0.12252  0.87688  Biso   1.000  C
  H194     1.0000 0.74935  0.94837  0.08959  Biso   1.000  H
  C220     1.0000 0.69711  0.86547  0.11577  Biso   1.000  C
  C221     1.0000 0.72446  0.03597  0.00444  Biso   1.000  C
  C222     1.0000 0.61989  0.76265  0.13522  Biso   1.000  C
  C223     1.0000 0.86762  0.68373  0.15422  Biso   1.000  C
  O53      1.0000 0.97238  0.68185  0.12424  Biso   1.000  O
  C224     1.0000 0.81364  0.80022  0.16073  Biso   1.000  C
  H195     1.0000 0.86596  0.88655  0.13999  Biso   1.000  H
  C225     1.0000 0.59548  0.59469  0.03482  Biso   1.000  C
  C226     1.0000 0.70946  0.58661  0.10694  Biso   1.000  C
  H196     1.0000 0.58420  0.08771  0.90966  Biso   1.000  H
  H197     1.0000 0.58552  0.09568  0.84258  Biso   1.000  H
  H198     1.0000 0.53399  0.14610  0.86546  Biso   1.000  H
  C227     1.0000 0.75772  0.84898  0.17161  Biso   1.000  C
  H199     1.0000 0.76095  0.99906  0.00770  Biso   1.000  H
  H200     1.0000 0.72330  0.07111  0.97260  Biso   1.000  H
  H201     1.0000 0.73424  0.06265  0.04235  Biso   1.000  H
  C228     1.0000 0.63699  0.68904  0.11171  Biso   1.000  C
  H202     1.0000 0.57022  0.76287  0.13308  Biso   1.000  H
  H203     1.0000 0.64836  0.76796  0.17768  Biso   1.000  H
  C229     1.0000 0.81429  0.72346  0.16662  Biso   1.000  C
  H204     1.0000 0.86842  0.63138  0.15796  Biso   1.000  H
  C230     1.0000 0.96621  0.60421  0.11666  Biso   1.000  C
  O54      1.0000 0.54930  0.56303  0.98629  Biso   1.000  O
  C231     1.0000 0.58475  0.65855  0.06229  Biso   1.000  C
  C232     1.0000 0.69988  0.65296  0.13419  Biso   1.000  C
  H205     1.0000 0.75206  0.56049  0.12308  Biso   1.000  H
  H206     1.0000 0.77913  0.89635  0.18927  Biso   1.000  H
  H207     1.0000 0.73952  0.82435  0.20109  Biso   1.000  H
  C233     1.0000 0.76016  0.68118  0.18557  Biso   1.000  C
  H208     1.0000 0.97112  0.58069  0.15515  Biso   1.000  H
  H209     1.0000 0.92046  0.59209  0.08838  Biso   1.000  H
  H210     1.0000 0.00287  0.58600  0.10127  Biso   1.000  H
  C234     1.0000 0.48572  0.60089  0.95886  Biso   1.000  C
  H211     1.0000 0.54103  0.68296  0.04766  Biso   1.000  H
  H212     1.0000 0.78303  0.63857  0.21037  Biso   1.000  H
  H213     1.0000 0.74173  0.71389  0.21068  Biso   1.000  H
  H214     1.0000 0.45899  0.60387  0.98678  Biso   1.000  H
  H215     1.0000 0.45861  0.57399  0.92300  Biso   1.000  H
  H216     1.0000 0.49571  0.65086  0.94780  Biso   1.000  H
  C235     1.0000 0.35523  0.32048  0.30450  Biso   1.000  C
  C236     1.0000 0.30454  0.26525  0.26489  Biso   1.000  C
  C237     1.0000 0.38395  0.36934  0.26552  Biso   1.000  C
  H217     1.0000 0.39377  0.29380  0.33398  Biso   1.000  H
  H218     1.0000 0.33094  0.35119  0.32649  Biso   1.000  H
  C238     1.0000 0.23456  0.28141  0.23715  Biso   1.000  C
  C239     1.0000 0.33209  0.19928  0.25187  Biso   1.000  C
  C240     1.0000 0.43619  0.33802  0.24562  Biso   1.000  C
  C241     1.0000 0.35785  0.43830  0.24415  Biso   1.000  C
  C242     1.0000 0.19531  0.23066  0.19518  Biso   1.000  C
  C243     1.0000 0.19794  0.34997  0.25075  Biso   1.000  C
  C244     1.0000 0.29270  0.14958  0.21101  Biso   1.000  C
  H219     1.0000 0.37968  0.18821  0.27190  Biso   1.000  H
  H220     1.0000 0.45498  0.29131  0.26101  Biso   1.000  H
  C245     1.0000 0.46094  0.37255  0.20486  Biso   1.000  C
  C246     1.0000 0.30081  0.47759  0.26124  Biso   1.000  C
  C247     1.0000 0.38555  0.47460  0.20374  Biso   1.000  C
  H221     1.0000 0.14740  0.24079  0.17551  Biso   1.000  H
  C248     1.0000 0.22344  0.16691  0.18158  Biso   1.000  C
  C249     1.0000 0.18530  0.41323  0.20646  Biso   1.000  C
  H222     1.0000 0.22596  0.36906  0.29027  Biso   1.000  H
  H223     1.0000 0.15229  0.33431  0.25388  Biso   1.000  H
  O55      1.0000 0.31620  0.08318  0.19665  Biso   1.000  O
  O56      1.0000 0.50853  0.34234  0.18109  Biso   1.000  O
  C250     1.0000 0.43538  0.44283  0.18376  Biso   1.000  C
  C251     1.0000 0.23067  0.47227  0.21235  Biso   1.000  C
  H224     1.0000 0.29689  0.45551  0.29830  Biso   1.000  H
  H225     1.0000 0.31349  0.53027  0.26931  Biso   1.000  H
  H226     1.0000 0.36909  0.52269  0.19001  Biso   1.000  H
  O57      1.0000 0.18063  0.11948  0.13911  Biso   1.000  O
  C252     1.0000 0.12353  0.41184  0.15789  Biso   1.000  C
  C253     1.0000 0.38706  0.06397  0.22694  Biso   1.000  C
  C254     1.0000 0.52780  0.26740  0.19763  Biso   1.000  C
  O58      1.0000 0.46351  0.47416  0.14384  Biso   1.000  O
  C255     1.0000 0.21134  0.53077  0.17185  Biso   1.000  C
  C256     1.0000 0.20060  0.11511  0.08648  Biso   1.000  C
  C257     1.0000 0.10605  0.46895  0.11735  Biso   1.000  C
  H227     1.0000 0.09307  0.37061  0.15290  Biso   1.000  H
  H228     1.0000 0.39499  0.06292  0.26998  Biso   1.000  H
  H229     1.0000 0.39695  0.01511  0.21360  Biso   1.000  H
  H230     1.0000 0.41786  0.10077  0.21802  Biso   1.000  H
  H231     1.0000 0.55955  0.26558  0.23920  Biso   1.000  H
  H232     1.0000 0.48577  0.23802  0.19531  Biso   1.000  H
  C258     1.0000 0.56336  0.23542  0.15642  Biso   1.000  C
  C259     1.0000 0.43237  0.54045  0.11512  Biso   1.000  C
  H233     1.0000 0.24188  0.57189  0.17640  Biso   1.000  H
  C260     1.0000 0.14987  0.53088  0.12596  Biso   1.000  C
  H234     1.0000 0.20319  0.16552  0.07078  Biso   1.000  H
  H235     1.0000 0.24708  0.09192  0.09589  Biso   1.000  H
  C261     1.0000 0.14771  0.06978  0.04041  Biso   1.000  C
  O59      1.0000 0.04687  0.47277  0.06882  Biso   1.000  O
  C262     1.0000 0.53036  0.18030  0.11668  Biso   1.000  C
  C263     1.0000 0.63005  0.25811  0.15901  Biso   1.000  C
  H236     1.0000 0.43956  0.58019  0.14469  Biso   1.000  H
  H237     1.0000 0.45376  0.55440  0.08479  Biso   1.000  H
  H238     1.0000 0.38229  0.53260  0.09598  Biso   1.000  H
  O60      1.0000 0.12374  0.58877  0.08675  Biso   1.000  O
  C264     1.0000 0.13749  0.99568  0.04897  Biso   1.000  C
  C265     1.0000 0.10968  0.10260  0.98693  Biso   1.000  C
  C266     1.0000 0.00199  0.41317  0.05691  Biso   1.000  C
  H239     1.0000 0.48449  0.16558  0.11440  Biso   1.000  H
  C267     1.0000 0.56341  0.14599  0.07993  Biso   1.000  C
  C268     1.0000 0.66318  0.22568  0.12154  Biso   1.000  C
  H240     1.0000 0.65307  0.29568  0.18621  Biso   1.000  H
  C269     1.0000 0.16312  0.65612  0.09607  Biso   1.000  C
  C270     1.0000 0.09116  0.95418  0.00473  Biso   1.000  C
  H241     1.0000 0.16249  0.97299  0.08568  Biso   1.000  H
  H242     1.0000 0.11587  0.15379  0.98109  Biso   1.000  H
  C271     1.0000 0.06301  0.06226  0.94188  Biso   1.000  C
  H243     1.0000 0.02689  0.36890  0.05089  Biso   1.000  H
  H244     1.0000 0.98440  0.40531  0.09059  Biso   1.000  H
  H245     1.0000 0.96291  0.42308  0.02078  Biso   1.000  H
  C272     1.0000 0.62935  0.16995  0.08260  Biso   1.000  C
  C273     1.0000 0.53221  0.08074  0.04144  Biso   1.000  C
  C274     1.0000 0.73342  0.25202  0.12515  Biso   1.000  C
  H246     1.0000 0.13138  0.69790  0.07908  Biso   1.000  H
  H247     1.0000 0.18400  0.66486  0.13938  Biso   1.000  H
  C275     1.0000 0.21973  0.65418  0.06793  Biso   1.000  C
  C276     1.0000 0.05412  0.98788  0.95112  Biso   1.000  C
  C277     1.0000 0.08327  0.87449  0.01508  Biso   1.000  C
  C278     1.0000 0.02011  0.09768  0.88421  Biso   1.000  C
  H248     1.0000 0.65196  0.14781  0.05718  Biso   1.000  H
  O61      1.0000 0.46074  0.06707  0.03702  Biso   1.000  O
  H249     1.0000 0.56010  0.03608  0.05789  Biso   1.000  H
  H250     1.0000 0.53520  0.08921  0.00089  Biso   1.000  H
  O62      1.0000 0.76619  0.29823  0.15869  Biso   1.000  O
  O63      1.0000 0.75812  0.21693  0.08586  Biso   1.000  O
  C279     1.0000 0.22104  0.60166  0.02569  Biso   1.000  C
  C280     1.0000 0.27049  0.70963  0.08225  Biso   1.000  C
  H251     1.0000 0.02246  0.95949  0.92061  Biso   1.000  H
  O64      1.0000 0.02563  0.84693  0.97645  Biso   1.000  O
  O65      1.0000 0.12347  0.83813  0.05330  Biso   1.000  O
  H252     1.0000 0.97042  0.08511  0.87681  Biso   1.000  H
  O66      1.0000 0.02715  0.17598  0.88412  Biso   1.000  O
  H253     1.0000 0.03435  0.07681  0.85112  Biso   1.000  H
  C281     1.0000 0.41043  0.09314  0.98680  Biso   1.000  C
  C282     1.0000 0.82568  0.24029  0.08399  Biso   1.000  C
  H254     1.0000 0.18679  0.56359  0.01619  Biso   1.000  H
  C283     1.0000 0.27094  0.60304  0.99679  Biso   1.000  C
  C284     1.0000 0.32194  0.71079  0.05446  Biso   1.000  C
  H255     1.0000 0.27009  0.74638  0.11079  Biso   1.000  H
  C285     1.0000 0.01096  0.76989  0.98448  Biso   1.000  C
  C286     1.0000 0.08127  0.20531  0.86811  Biso   1.000  C
  C287     1.0000 0.34577  0.05656  0.97168  Biso   1.000  C
  C288     1.0000 0.41888  0.15003  0.95103  Biso   1.000  C
  H256     1.0000 0.85950  0.23807  0.12422  Biso   1.000  H
  H257     1.0000 0.84080  0.20747  0.05740  Biso   1.000  H
  H258     1.0000 0.82270  0.29120  0.06900  Biso   1.000  H
  C289     1.0000 0.32166  0.65778  0.01164  Biso   1.000  C
  C290     1.0000 0.27036  0.54483  0.95103  Biso   1.000  C
  C291     1.0000 0.37818  0.76740  0.06967  Biso   1.000  C
  H259     1.0000 0.96522  0.75672  0.95651  Biso   1.000  H
  H260     1.0000 0.04694  0.73868  0.97712  Biso   1.000  H
  H261     1.0000 0.01068  0.76220  0.02551  Biso   1.000  H
  C292     1.0000 0.08113  0.28218  0.86320  Biso   1.000  C
  C293     1.0000 0.13368  0.16574  0.85629  Biso   1.000  C
  C294     1.0000 0.29388  0.07709  0.92096  Biso   1.000  C
  O67      1.0000 0.34098  0.00000  0.00897  Biso   1.000  O
  C295     1.0000 0.36616  0.17189  0.89991  Biso   1.000  C
  H262     1.0000 0.46224  0.17532  0.96160  Biso   1.000  H
  H263     1.0000 0.35636  0.65910  0.99242  Biso   1.000  H
  O68      1.0000 0.33361  0.50515  0.97221  Biso   1.000  O
  H264     1.0000 0.26638  0.56829  0.91222  Biso   1.000  H
  H265     1.0000 0.23028  0.51101  0.94541  Biso   1.000  H
  O69      1.0000 0.42852  0.76525  0.05330  Biso   1.000  O
  O70      1.0000 0.36626  0.82136  0.10397  Biso   1.000  O
  O71      1.0000 0.02750  0.31815  0.87574  Biso   1.000  O
  C296     1.0000 0.13231  0.31621  0.84577  Biso   1.000  C
  C297     1.0000 0.18624  0.19978  0.83925  Biso   1.000  C
  H266     1.0000 0.13397  0.11339  0.85999  Biso   1.000  H
  C298     1.0000 0.30282  0.13448  0.88421  Biso   1.000  C
  H267     1.0000 0.25053  0.05158  0.91039  Biso   1.000  H
  C299     1.0000 0.27542  0.96397  0.99554  Biso   1.000  C
  C300     1.0000 0.38004  0.23730  0.86477  Biso   1.000  C
  C301     1.0000 0.34024  0.44211  0.94206  Biso   1.000  C
  C302     1.0000 0.41990  0.87748  0.12310  Biso   1.000  C
  C303     1.0000 0.03367  0.39579  0.88332  Biso   1.000  C
  H268     1.0000 0.13146  0.36857  0.84202  Biso   1.000  H
  C304     1.0000 0.18559  0.27648  0.83337  Biso   1.000  C
  C305     1.0000 0.24221  0.15097  0.82837  Biso   1.000  C
  H269     1.0000 0.26562  0.93741  0.95758  Biso   1.000  H
  H270     1.0000 0.27658  0.92889  0.02739  Biso   1.000  H
  H271     1.0000 0.23893  0.00089  0.99228  Biso   1.000  H
  C306     1.0000 0.36289  0.31096  0.88827  Biso   1.000  C
  H272     1.0000 0.42966  0.23708  0.86691  Biso   1.000  H
  H273     1.0000 0.35157  0.23199  0.82230  Biso   1.000  H
  C307     1.0000 0.40440  0.40526  0.96517  Biso   1.000  C
  C308     1.0000 0.29042  0.41334  0.89304  Biso   1.000  C
  H274     1.0000 0.41568  0.91229  0.09032  Biso   1.000  H
  H275     1.0000 0.41436  0.90426  0.15740  Biso   1.000  H
  H276     1.0000 0.46588  0.85390  0.13448  Biso   1.000  H
  H277     1.0000 0.99701  0.41400  0.89871  Biso   1.000  H
  H278     1.0000 0.02875  0.41931  0.84478  Biso   1.000  H
  H279     1.0000 0.07947  0.40791  0.91160  Biso   1.000  H
  C309     1.0000 0.23972  0.31882  0.81441  Biso   1.000  C
  H280     1.0000 0.22075  0.10360  0.81071  Biso   1.000  H
  H281     1.0000 0.26036  0.17559  0.79889  Biso   1.000  H
  C310     1.0000 0.30000  0.34698  0.86579  Biso   1.000  C
  C311     1.0000 0.41513  0.34139  0.93769  Biso   1.000  C
  O72      1.0000 0.45058  0.43691  0.01369  Biso   1.000  O
  H282     1.0000 0.24787  0.43951  0.87690  Biso   1.000  H
  H283     1.0000 0.21685  0.36137  0.78961  Biso   1.000  H
  H284     1.0000 0.25815  0.28611  0.78930  Biso   1.000  H
  H285     1.0000 0.45885  0.31699  0.95232  Biso   1.000  H
  C312     1.0000 0.51416  0.39911  0.04112  Biso   1.000  C
  H286     1.0000 0.54089  0.39607  0.01320  Biso   1.000  H
  H287     1.0000 0.54127  0.42601  0.07698  Biso   1.000  H
  H288     1.0000 0.50417  0.34909  0.05218  Biso   1.000  H
