data_image0
_cell_length_a       19.413
_cell_length_b       23.698
_cell_length_c       32.864
_cell_angle_alpha    90
_cell_angle_beta     90
_cell_angle_gamma    90

_symmetry_space_group_name_H-M    "P 1"
_symmetry_int_tables_number       1

loop_
  _symmetry_equiv_pos_as_xyz
  'x, y, z'

loop_
  _atom_site_label
  _atom_site_occupancy
  _atom_site_fract_x
  _atom_site_fract_y
  _atom_site_fract_z
  _atom_site_thermal_displace_type
  _atom_site_B_iso_or_equiv
  _atom_site_type_symbol
  C1       1.0000 0.59800  0.48211  0.55048  Biso   1.000  C
  C2       1.0000 0.56931  0.48658  0.59357  Biso   1.000  C
  O1       1.0000 0.63844  0.43189  0.54610  Biso   1.000  O
  H1       1.0000 0.55952  0.48152  0.53070  Biso   1.000  H
  H2       1.0000 0.62690  0.51561  0.54449  Biso   1.000  H
  O2       1.0000 0.52465  0.43767  0.59795  Biso   1.000  O
  C3       1.0000 0.62412  0.48785  0.62619  Biso   1.000  C
  H3       1.0000 0.54082  0.52161  0.59570  Biso   1.000  H
  H4       1.0000 0.67759  0.44042  0.53721  Biso   1.000  H
  C4       1.0000 0.49400  0.43109  0.63671  Biso   1.000  C
  C5       1.0000 0.59079  0.48443  0.66815  Biso   1.000  C
  O3       1.0000 0.66007  0.54068  0.62424  Biso   1.000  O
  H5       1.0000 0.65698  0.45582  0.62229  Biso   1.000  H
  O4       1.0000 0.44769  0.47692  0.64493  Biso   1.000  O
  H6       1.0000 0.46778  0.39480  0.63741  Biso   1.000  H
  C6       1.0000 0.54901  0.43021  0.66955  Biso   1.000  C
  O5       1.0000 0.64426  0.48367  0.69821  Biso   1.000  O
  H7       1.0000 0.56009  0.51768  0.67259  Biso   1.000  H
  C7       1.0000 0.72931  0.53996  0.60893  Biso   1.000  C
  C8       1.0000 0.37671  0.46320  0.65038  Biso   1.000  C
  O6       1.0000 0.51862  0.42223  0.70834  Biso   1.000  O
  H8       1.0000 0.58069  0.39780  0.66410  Biso   1.000  H
  H9       1.0000 0.67352  0.48679  0.71720  Biso   1.000  H
  O7       1.0000 0.73374  0.57174  0.57294  Biso   1.000  O
  H10      1.0000 0.74332  0.50021  0.60321  Biso   1.000  H
  C9       1.0000 0.77592  0.56444  0.64143  Biso   1.000  C
  C10      1.0000 0.33529  0.49143  0.61572  Biso   1.000  C
  C11      1.0000 0.35311  0.48456  0.69130  Biso   1.000  C
  H11      1.0000 0.37052  0.42130  0.64910  Biso   1.000  H
  H12      1.0000 0.53650  0.39408  0.71969  Biso   1.000  H
  C12      1.0000 0.71612  0.62967  0.57735  Biso   1.000  C
  O8       1.0000 0.77170  0.53228  0.67825  Biso   1.000  O
  H13      1.0000 0.82450  0.56271  0.63130  Biso   1.000  H
  C13      1.0000 0.75748  0.62680  0.64931  Biso   1.000  C
  C14      1.0000 0.34982  0.46434  0.57473  Biso   1.000  C
  O9       1.0000 0.26214  0.48603  0.62278  Biso   1.000  O
  H14      1.0000 0.34760  0.53241  0.61441  Biso   1.000  H
  C15      1.0000 0.27672  0.47531  0.69508  Biso   1.000  C
  O10      1.0000 0.38742  0.45426  0.72271  Biso   1.000  O
  H15      1.0000 0.36373  0.52570  0.69380  Biso   1.000  H
  C16      1.0000 0.76129  0.65892  0.60976  Biso   1.000  C
  H16      1.0000 0.66692  0.63229  0.58599  Biso   1.000  H
  C17      1.0000 0.72338  0.65681  0.53545  Biso   1.000  C
  H17      1.0000 0.77021  0.55431  0.69830  Biso   1.000  H
  O11      1.0000 0.80328  0.65069  0.67877  Biso   1.000  O
  H18      1.0000 0.70932  0.62891  0.65999  Biso   1.000  H
  O12      1.0000 0.33627  0.40581  0.57449  Biso   1.000  O
  H19      1.0000 0.32113  0.48291  0.55371  Biso   1.000  H
  H20      1.0000 0.39870  0.47071  0.56749  Biso   1.000  H
  C18      1.0000 0.24020  0.50709  0.66115  Biso   1.000  C
  O13      1.0000 0.25184  0.49523  0.73357  Biso   1.000  O
  H21      1.0000 0.26663  0.43409  0.69249  Biso   1.000  H
  H22      1.0000 0.38031  0.47021  0.74510  Biso   1.000  H
  O14      1.0000 0.73358  0.71398  0.61648  Biso   1.000  O
  H23      1.0000 0.81008  0.66149  0.60020  Biso   1.000  H
  O15      1.0000 0.79035  0.64972  0.51884  Biso   1.000  O
  H24      1.0000 0.68918  0.63989  0.51671  Biso   1.000  H
  H25      1.0000 0.71318  0.69761  0.53761  Biso   1.000  H
  H26      1.0000 0.84371  0.63989  0.67399  Biso   1.000  H
  H27      1.0000 0.29418  0.40029  0.57881  Biso   1.000  H
  O16      1.0000 0.25334  0.56541  0.66477  Biso   1.000  O
  H28      1.0000 0.18951  0.50072  0.66380  Biso   1.000  H
  H29      1.0000 0.28131  0.49232  0.75259  Biso   1.000  H
  C19      1.0000 0.77510  0.76230  0.60799  Biso   1.000  C
  H30      1.0000 0.78731  0.63410  0.49601  Biso   1.000  H
  C20      1.0000 0.19502  0.60258  0.66775  Biso   1.000  C
  O17      1.0000 0.74723  0.79348  0.57534  Biso   1.000  O
  H31      1.0000 0.82301  0.75011  0.60120  Biso   1.000  H
  C21      1.0000 0.77592  0.79783  0.64663  Biso   1.000  C
  C22      1.0000 0.20198  0.63588  0.70704  Biso   1.000  C
  H32      1.0000 0.15129  0.58022  0.66800  Biso   1.000  H
  C23      1.0000 0.19600  0.64246  0.63072  Biso   1.000  C
  C24      1.0000 0.67862  0.81306  0.58167  Biso   1.000  C
  O18      1.0000 0.80745  0.76736  0.67874  Biso   1.000  O
  H33      1.0000 0.80322  0.83281  0.64140  Biso   1.000  H
  C25      1.0000 0.70169  0.81471  0.65710  Biso   1.000  C
  O19      1.0000 0.19410  0.59946  0.74166  Biso   1.000  O
  C26      1.0000 0.14501  0.68077  0.70886  Biso   1.000  C
  H34      1.0000 0.24808  0.65461  0.70801  Biso   1.000  H
  O20      1.0000 0.14398  0.68483  0.63525  Biso   1.000  O
  H35      1.0000 0.24200  0.66141  0.62950  Biso   1.000  H
  C27      1.0000 0.18338  0.61309  0.59135  Biso   1.000  C
  C28      1.0000 0.67228  0.84678  0.62126  Biso   1.000  C
  H36      1.0000 0.64689  0.77981  0.58301  Biso   1.000  H
  C29      1.0000 0.66049  0.84822  0.54506  Biso   1.000  C
  H37      1.0000 0.81672  0.78952  0.69791  Biso   1.000  H
  O21      1.0000 0.70303  0.84796  0.69310  Biso   1.000  O
  H38      1.0000 0.67362  0.77998  0.66200  Biso   1.000  H
  H39      1.0000 0.22799  0.57760  0.74321  Biso   1.000  H
  O22      1.0000 0.14954  0.71259  0.74489  Biso   1.000  O
  C30      1.0000 0.15000  0.71833  0.67101  Biso   1.000  C
  H40      1.0000 0.09931  0.66120  0.70850  Biso   1.000  H
  O23      1.0000 0.12038  0.58309  0.59071  Biso   1.000  O
  H41      1.0000 0.18318  0.64140  0.56919  Biso   1.000  H
  H42      1.0000 0.22171  0.58651  0.58611  Biso   1.000  H
  O24      1.0000 0.59965  0.85632  0.63045  Biso   1.000  O
  H43      1.0000 0.69649  0.88379  0.61831  Biso   1.000  H
  O25      1.0000 0.70365  0.89657  0.54193  Biso   1.000  O
  H44      1.0000 0.66538  0.82501  0.52020  Biso   1.000  H
  H45      1.0000 0.61181  0.86041  0.54701  Biso   1.000  H
  H46      1.0000 0.66981  0.87058  0.69289  Biso   1.000  H
  H47      1.0000 0.17401  0.74129  0.74081  Biso   1.000  H
  O26      1.0000 0.21419  0.74572  0.67162  Biso   1.000  O
  H48      1.0000 0.11230  0.74711  0.67149  Biso   1.000  H
  H49      1.0000 0.08942  0.60279  0.60151  Biso   1.000  H
  C31      1.0000 0.57420  0.91202  0.62442  Biso   1.000  C
  H50      1.0000 0.68171  0.92531  0.54939  Biso   1.000  H
  C32      1.0000 0.21620  0.80547  0.66714  Biso   1.000  C
  C33      1.0000 0.54680  0.93299  0.66483  Biso   1.000  C
  O27      1.0000 0.52259  0.91312  0.59497  Biso   1.000  O
  H51      1.0000 0.61299  0.93691  0.61551  Biso   1.000  H
  C34      1.0000 0.25941  0.82741  0.70238  Biso   1.000  C
  H52      1.0000 0.16850  0.82129  0.66879  Biso   1.000  H
  C35      1.0000 0.24829  0.82062  0.62631  Biso   1.000  C
  C36      1.0000 0.48462  0.89919  0.67874  Biso   1.000  C
  O28      1.0000 0.60042  0.93185  0.69514  Biso   1.000  O
  H53      1.0000 0.53191  0.97312  0.66121  Biso   1.000  H
  C37      1.0000 0.46041  0.88202  0.60516  Biso   1.000  C
  O29      1.0000 0.22284  0.81741  0.73950  Biso   1.000  O
  C38      1.0000 0.27492  0.89012  0.69678  Biso   1.000  C
  H54      1.0000 0.30392  0.80619  0.70320  Biso   1.000  H
  O30      1.0000 0.26446  0.88041  0.62430  Biso   1.000  O
  H55      1.0000 0.29181  0.79851  0.62281  Biso   1.000  H
  C39      1.0000 0.20079  0.80872  0.59065  Biso   1.000  C
  C40      1.0000 0.43100  0.90358  0.64472  Biso   1.000  C
  O31      1.0000 0.45748  0.92219  0.71546  Biso   1.000  O
  H56      1.0000 0.49781  0.85889  0.68300  Biso   1.000  H
  H57      1.0000 0.60011  0.96232  0.70819  Biso   1.000  H
  H58      1.0000 0.47190  0.84108  0.60811  Biso   1.000  H
  C41      1.0000 0.41148  0.88940  0.57026  Biso   1.000  C
  H59      1.0000 0.18822  0.83851  0.74060  Biso   1.000  H
  O32      1.0000 0.31736  0.91092  0.72864  Biso   1.000  O
  C42      1.0000 0.30747  0.89986  0.65585  Biso   1.000  C
  H60      1.0000 0.23031  0.91109  0.69760  Biso   1.000  H
  O33      1.0000 0.13496  0.83480  0.59564  Biso   1.000  O
  H61      1.0000 0.22238  0.82281  0.56530  Biso   1.000  H
  H62      1.0000 0.19461  0.76741  0.58791  Biso   1.000  H
  O34      1.0000 0.37222  0.87121  0.65585  Biso   1.000  O
  H63      1.0000 0.41709  0.94392  0.64131  Biso   1.000  H
  H64      1.0000 0.43522  0.89721  0.72791  Biso   1.000  H
  O35      1.0000 0.38351  0.94620  0.56956  Biso   1.000  O
  H65      1.0000 0.43600  0.88189  0.54440  Biso   1.000  H
  H66      1.0000 0.37351  0.86189  0.57269  Biso   1.000  H
  H67      1.0000 0.30510  0.89649  0.75079  Biso   1.000  H
  H68      1.0000 0.31572  0.94122  0.65220  Biso   1.000  H
  H69      1.0000 0.13512  0.86649  0.58420  Biso   1.000  H
  H70      1.0000 0.41539  0.96941  0.56530  Biso   1.000  H
  C43      1.0000 0.59800  0.51789  0.44952  Biso   1.000  C
  C44      1.0000 0.56931  0.51342  0.40643  Biso   1.000  C
  O36      1.0000 0.63844  0.56811  0.45390  Biso   1.000  O
  H71      1.0000 0.55952  0.51848  0.46930  Biso   1.000  H
  H72      1.0000 0.62690  0.48439  0.45551  Biso   1.000  H
  O37      1.0000 0.52465  0.56233  0.40205  Biso   1.000  O
  C45      1.0000 0.62412  0.51215  0.37381  Biso   1.000  C
  H73      1.0000 0.54082  0.47839  0.40430  Biso   1.000  H
  H74      1.0000 0.67759  0.55958  0.46279  Biso   1.000  H
  C46      1.0000 0.49400  0.56891  0.36329  Biso   1.000  C
  C47      1.0000 0.59079  0.51557  0.33185  Biso   1.000  C
  O38      1.0000 0.66007  0.45932  0.37576  Biso   1.000  O
  H75      1.0000 0.65698  0.54418  0.37771  Biso   1.000  H
  O39      1.0000 0.44769  0.52308  0.35507  Biso   1.000  O
  H76      1.0000 0.46778  0.60520  0.36259  Biso   1.000  H
  C48      1.0000 0.54901  0.56979  0.33045  Biso   1.000  C
  O40      1.0000 0.64426  0.51633  0.30179  Biso   1.000  O
  H77      1.0000 0.56009  0.48232  0.32741  Biso   1.000  H
  C49      1.0000 0.72931  0.46004  0.39107  Biso   1.000  C
  C50      1.0000 0.37671  0.53680  0.34962  Biso   1.000  C
  O41      1.0000 0.51862  0.57777  0.29166  Biso   1.000  O
  H78      1.0000 0.58069  0.60220  0.33590  Biso   1.000  H
  H79      1.0000 0.67352  0.51321  0.28280  Biso   1.000  H
  C51      1.0000 0.77592  0.43556  0.35857  Biso   1.000  C
  O42      1.0000 0.73374  0.42826  0.42706  Biso   1.000  O
  H80      1.0000 0.74332  0.49979  0.39679  Biso   1.000  H
  C52      1.0000 0.33529  0.50857  0.38428  Biso   1.000  C
  C53      1.0000 0.35311  0.51544  0.30870  Biso   1.000  C
  H81      1.0000 0.37052  0.57870  0.35090  Biso   1.000  H
  H82      1.0000 0.53650  0.60592  0.28031  Biso   1.000  H
  C54      1.0000 0.75748  0.37320  0.35069  Biso   1.000  C
  O43      1.0000 0.77170  0.46772  0.32175  Biso   1.000  O
  H83      1.0000 0.82450  0.43729  0.36870  Biso   1.000  H
  C55      1.0000 0.71612  0.37033  0.42265  Biso   1.000  C
  O44      1.0000 0.26214  0.51397  0.37722  Biso   1.000  O
  H84      1.0000 0.34760  0.46759  0.38559  Biso   1.000  H
  C56      1.0000 0.34982  0.53566  0.42527  Biso   1.000  C
  C57      1.0000 0.27672  0.52469  0.30492  Biso   1.000  C
  O45      1.0000 0.38742  0.54574  0.27729  Biso   1.000  O
  H85      1.0000 0.36373  0.47430  0.30620  Biso   1.000  H
  C58      1.0000 0.76129  0.34108  0.39024  Biso   1.000  C
  O46      1.0000 0.80328  0.34931  0.32123  Biso   1.000  O
  H86      1.0000 0.70932  0.37109  0.34001  Biso   1.000  H
  H87      1.0000 0.77021  0.44569  0.30170  Biso   1.000  H
  H88      1.0000 0.66692  0.36771  0.41401  Biso   1.000  H
  C59      1.0000 0.72338  0.34319  0.46455  Biso   1.000  C
  C60      1.0000 0.24020  0.49291  0.33885  Biso   1.000  C
  O47      1.0000 0.33627  0.59419  0.42551  Biso   1.000  O
  H89      1.0000 0.32113  0.51709  0.44629  Biso   1.000  H
  H90      1.0000 0.39870  0.52929  0.43251  Biso   1.000  H
  O48      1.0000 0.25184  0.50477  0.26643  Biso   1.000  O
  H91      1.0000 0.26663  0.56591  0.30751  Biso   1.000  H
  H92      1.0000 0.38031  0.52979  0.25490  Biso   1.000  H
  O49      1.0000 0.73358  0.28602  0.38352  Biso   1.000  O
  H93      1.0000 0.81008  0.33851  0.39980  Biso   1.000  H
  H94      1.0000 0.84371  0.36011  0.32601  Biso   1.000  H
  O50      1.0000 0.79035  0.35028  0.48116  Biso   1.000  O
  H95      1.0000 0.68918  0.36011  0.48329  Biso   1.000  H
  H96      1.0000 0.71318  0.30239  0.46239  Biso   1.000  H
  O51      1.0000 0.25334  0.43459  0.33523  Biso   1.000  O
  H97      1.0000 0.18951  0.49928  0.33620  Biso   1.000  H
  H98      1.0000 0.29418  0.59971  0.42119  Biso   1.000  H
  H99      1.0000 0.28131  0.50768  0.24741  Biso   1.000  H
  C61      1.0000 0.77510  0.23770  0.39201  Biso   1.000  C
  H100     1.0000 0.78731  0.36590  0.50399  Biso   1.000  H
  C62      1.0000 0.19502  0.39742  0.33225  Biso   1.000  C
  C63      1.0000 0.77592  0.20217  0.35337  Biso   1.000  C
  O52      1.0000 0.74723  0.20652  0.42466  Biso   1.000  O
  H101     1.0000 0.82301  0.24989  0.39880  Biso   1.000  H
  C64      1.0000 0.19600  0.35754  0.36928  Biso   1.000  C
  C65      1.0000 0.20198  0.36412  0.29296  Biso   1.000  C
  H102     1.0000 0.15129  0.41978  0.33200  Biso   1.000  H
  C66      1.0000 0.70169  0.18529  0.34290  Biso   1.000  C
  O53      1.0000 0.80745  0.23264  0.32126  Biso   1.000  O
  H103     1.0000 0.80322  0.16719  0.35860  Biso   1.000  H
  C67      1.0000 0.67862  0.18694  0.41833  Biso   1.000  C
  O54      1.0000 0.14398  0.31517  0.36475  Biso   1.000  O
  H104     1.0000 0.24200  0.33859  0.37050  Biso   1.000  H
  C68      1.0000 0.18338  0.38691  0.40865  Biso   1.000  C
  C69      1.0000 0.14501  0.31923  0.29114  Biso   1.000  C
  O55      1.0000 0.19410  0.40054  0.25834  Biso   1.000  O
  H105     1.0000 0.24808  0.34539  0.29199  Biso   1.000  H
  C70      1.0000 0.67228  0.15322  0.37874  Biso   1.000  C
  O56      1.0000 0.70303  0.15204  0.30690  Biso   1.000  O
  H106     1.0000 0.67362  0.22002  0.33800  Biso   1.000  H
  H107     1.0000 0.81672  0.21048  0.30209  Biso   1.000  H
  H108     1.0000 0.64689  0.22019  0.41699  Biso   1.000  H
  C71      1.0000 0.66049  0.15178  0.45494  Biso   1.000  C
  C72      1.0000 0.15000  0.28167  0.32899  Biso   1.000  C
  O57      1.0000 0.12038  0.41691  0.40929  Biso   1.000  O
  H109     1.0000 0.18318  0.35860  0.43081  Biso   1.000  H
  H110     1.0000 0.22171  0.41349  0.41389  Biso   1.000  H
  O58      1.0000 0.14954  0.28741  0.25511  Biso   1.000  O
  H111     1.0000 0.09931  0.33880  0.29150  Biso   1.000  H
  H112     1.0000 0.22799  0.42240  0.25679  Biso   1.000  H
  O59      1.0000 0.59965  0.14368  0.36955  Biso   1.000  O
  H113     1.0000 0.69649  0.11621  0.38169  Biso   1.000  H
  H114     1.0000 0.66981  0.12942  0.30711  Biso   1.000  H
  O60      1.0000 0.70365  0.10343  0.45807  Biso   1.000  O
  H115     1.0000 0.66538  0.17499  0.47980  Biso   1.000  H
  H116     1.0000 0.61181  0.13959  0.45299  Biso   1.000  H
  O61      1.0000 0.21419  0.25428  0.32838  Biso   1.000  O
  H117     1.0000 0.11230  0.25289  0.32851  Biso   1.000  H
  H118     1.0000 0.08942  0.39721  0.39849  Biso   1.000  H
  H119     1.0000 0.17401  0.25871  0.25919  Biso   1.000  H
  C73      1.0000 0.57420  0.08798  0.37558  Biso   1.000  C
  H120     1.0000 0.68171  0.07469  0.45061  Biso   1.000  H
  C74      1.0000 0.21620  0.19453  0.33286  Biso   1.000  C
  C75      1.0000 0.54680  0.06701  0.33517  Biso   1.000  C
  O62      1.0000 0.52259  0.08688  0.40503  Biso   1.000  O
  H121     1.0000 0.61299  0.06309  0.38449  Biso   1.000  H
  C76      1.0000 0.25941  0.17259  0.29762  Biso   1.000  C
  H122     1.0000 0.16850  0.17871  0.33121  Biso   1.000  H
  C77      1.0000 0.24829  0.17938  0.37369  Biso   1.000  C
  C78      1.0000 0.48462  0.10081  0.32126  Biso   1.000  C
  O63      1.0000 0.60042  0.06815  0.30486  Biso   1.000  O
  H123     1.0000 0.53191  0.02688  0.33879  Biso   1.000  H
  C79      1.0000 0.46041  0.11798  0.39484  Biso   1.000  C
  O64      1.0000 0.22284  0.18259  0.26050  Biso   1.000  O
  C80      1.0000 0.27492  0.10988  0.30322  Biso   1.000  C
  H124     1.0000 0.30392  0.19381  0.29680  Biso   1.000  H
  O65      1.0000 0.26446  0.11959  0.37570  Biso   1.000  O
  H125     1.0000 0.29181  0.20149  0.37719  Biso   1.000  H
  C81      1.0000 0.20079  0.19128  0.40935  Biso   1.000  C
  C82      1.0000 0.43100  0.09642  0.35528  Biso   1.000  C
  O66      1.0000 0.45748  0.07781  0.28454  Biso   1.000  O
  H126     1.0000 0.49781  0.14111  0.31700  Biso   1.000  H
  H127     1.0000 0.60011  0.03768  0.29181  Biso   1.000  H
  H128     1.0000 0.47190  0.15892  0.39189  Biso   1.000  H
  C83      1.0000 0.41148  0.11060  0.42974  Biso   1.000  C
  H129     1.0000 0.18822  0.16149  0.25940  Biso   1.000  H
  O67      1.0000 0.31736  0.08908  0.27136  Biso   1.000  O
  C84      1.0000 0.30747  0.10014  0.34415  Biso   1.000  C
  H130     1.0000 0.23031  0.08891  0.30240  Biso   1.000  H
  O68      1.0000 0.13496  0.16520  0.40436  Biso   1.000  O
  H131     1.0000 0.22238  0.17719  0.43470  Biso   1.000  H
  H132     1.0000 0.19461  0.23259  0.41209  Biso   1.000  H
  O69      1.0000 0.37222  0.12879  0.34415  Biso   1.000  O
  H133     1.0000 0.41709  0.05608  0.35869  Biso   1.000  H
  H134     1.0000 0.43522  0.10279  0.27209  Biso   1.000  H
  O70      1.0000 0.38351  0.05380  0.43044  Biso   1.000  O
  H135     1.0000 0.43600  0.11811  0.45560  Biso   1.000  H
  H136     1.0000 0.37351  0.13811  0.42731  Biso   1.000  H
  H137     1.0000 0.30510  0.10351  0.24921  Biso   1.000  H
  H138     1.0000 0.31572  0.05878  0.34780  Biso   1.000  H
  H139     1.0000 0.13512  0.13351  0.41580  Biso   1.000  H
  H140     1.0000 0.41539  0.03059  0.43470  Biso   1.000  H
  O71      1.0000 0.63494  0.33480  0.59564  Biso   1.000  O
  H141     1.0000 0.63509  0.36649  0.58420  Biso   1.000  H
  C85      1.0000 0.70082  0.30872  0.59065  Biso   1.000  C
  C86      1.0000 0.74831  0.32062  0.62631  Biso   1.000  C
  H142     1.0000 0.72240  0.32281  0.56530  Biso   1.000  H
  H143     1.0000 0.69459  0.26741  0.58791  Biso   1.000  H
  O72      1.0000 0.76449  0.38041  0.62430  Biso   1.000  O
  C87      1.0000 0.71622  0.30547  0.66714  Biso   1.000  C
  H144     1.0000 0.79179  0.29851  0.62281  Biso   1.000  H
  C88      1.0000 0.80750  0.39986  0.65585  Biso   1.000  C
  O73      1.0000 0.71416  0.24572  0.67162  Biso   1.000  O
  C89      1.0000 0.75939  0.32741  0.70238  Biso   1.000  C
  H145     1.0000 0.66852  0.32129  0.66879  Biso   1.000  H
  O74      1.0000 0.87220  0.37121  0.65585  Biso   1.000  O
  H146     1.0000 0.81569  0.44122  0.65220  Biso   1.000  H
  C90      1.0000 0.77489  0.39012  0.69678  Biso   1.000  C
  C91      1.0000 0.64998  0.21833  0.67101  Biso   1.000  C
  O75      1.0000 0.72287  0.31741  0.73950  Biso   1.000  O
  H147     1.0000 0.80389  0.30619  0.70320  Biso   1.000  H
  C92      1.0000 0.93103  0.40358  0.64472  Biso   1.000  C
  O76      1.0000 0.81734  0.41092  0.72864  Biso   1.000  O
  H148     1.0000 0.73028  0.41109  0.69760  Biso   1.000  H
  O77      1.0000 0.64400  0.18483  0.63525  Biso   1.000  O
  H149     1.0000 0.61232  0.24711  0.67149  Biso   1.000  H
  C93      1.0000 0.64498  0.18077  0.70886  Biso   1.000  C
  H150     1.0000 0.68820  0.33851  0.74060  Biso   1.000  H
  C94      1.0000 0.98460  0.39919  0.67874  Biso   1.000  C
  H151     1.0000 0.91712  0.44392  0.64131  Biso   1.000  H
  C95      1.0000 0.96039  0.38202  0.60516  Biso   1.000  C
  H152     1.0000 0.80508  0.39649  0.75079  Biso   1.000  H
  C96      1.0000 0.69598  0.14246  0.63072  Biso   1.000  C
  O78      1.0000 0.64956  0.21259  0.74489  Biso   1.000  O
  H153     1.0000 0.59929  0.16120  0.70850  Biso   1.000  H
  C97      1.0000 0.70200  0.13588  0.70704  Biso   1.000  C
  O79      1.0000 0.95750  0.42219  0.71546  Biso   1.000  O
  H154     1.0000 0.99778  0.35889  0.68300  Biso   1.000  H
  C98      1.0000 0.04682  0.43299  0.66483  Biso   1.000  C
  H155     1.0000 0.97187  0.34108  0.60811  Biso   1.000  H
  C99      1.0000 0.91150  0.38940  0.57026  Biso   1.000  C
  O80      1.0000 0.02261  0.41312  0.59497  Biso   1.000  O
  C100     1.0000 0.69500  0.10258  0.66775  Biso   1.000  C
  H156     1.0000 0.74198  0.16141  0.62950  Biso   1.000  H
  C101     1.0000 0.68341  0.11309  0.59135  Biso   1.000  C
  H157     1.0000 0.67398  0.24129  0.74081  Biso   1.000  H
  O81      1.0000 0.69407  0.09946  0.74166  Biso   1.000  O
  H158     1.0000 0.74811  0.15461  0.70801  Biso   1.000  H
  H159     1.0000 0.93520  0.39721  0.72791  Biso   1.000  H
  O82      1.0000 0.10040  0.43185  0.69514  Biso   1.000  O
  C102     1.0000 0.07418  0.41202  0.62442  Biso   1.000  C
  H160     1.0000 0.03189  0.47312  0.66121  Biso   1.000  H
  O83      1.0000 0.88348  0.44620  0.56956  Biso   1.000  O
  H161     1.0000 0.93602  0.38189  0.54440  Biso   1.000  H
  H162     1.0000 0.87349  0.36189  0.57269  Biso   1.000  H
  O84      1.0000 0.75331  0.06541  0.66477  Biso   1.000  O
  H163     1.0000 0.65132  0.08022  0.66800  Biso   1.000  H
  O85      1.0000 0.62041  0.08309  0.59071  Biso   1.000  O
  H164     1.0000 0.68320  0.14140  0.56919  Biso   1.000  H
  H165     1.0000 0.72168  0.08651  0.58611  Biso   1.000  H
  H166     1.0000 0.72802  0.07760  0.74321  Biso   1.000  H
  H167     1.0000 0.10009  0.46232  0.70819  Biso   1.000  H
  O86      1.0000 0.09962  0.35632  0.63045  Biso   1.000  O
  H168     1.0000 0.11302  0.43691  0.61551  Biso   1.000  H
  H169     1.0000 0.91542  0.46941  0.56530  Biso   1.000  H
  C103     1.0000 0.74023  0.00709  0.66115  Biso   1.000  C
  H170     1.0000 0.58940  0.10279  0.60151  Biso   1.000  H
  C104     1.0000 0.17231  0.34678  0.62126  Biso   1.000  C
  H171     1.0000 0.68949  0.00072  0.66380  Biso   1.000  H
  O87      1.0000 0.76212  0.98603  0.62278  Biso   1.000  O
  C105     1.0000 0.77670  0.97531  0.69508  Biso   1.000  C
  C106     1.0000 0.20172  0.31471  0.65710  Biso   1.000  C
  H172     1.0000 0.19652  0.38379  0.61831  Biso   1.000  H
  C107     1.0000 0.17859  0.31306  0.58167  Biso   1.000  C
  C108     1.0000 0.83532  0.99143  0.61572  Biso   1.000  C
  O88      1.0000 0.75182  0.99523  0.73357  Biso   1.000  O
  H173     1.0000 0.76660  0.93409  0.69249  Biso   1.000  H
  C109     1.0000 0.85309  0.98456  0.69130  Biso   1.000  C
  O89      1.0000 0.20306  0.34796  0.69310  Biso   1.000  O
  C110     1.0000 0.27590  0.29783  0.64663  Biso   1.000  C
  H174     1.0000 0.17360  0.27998  0.66200  Biso   1.000  H
  O90      1.0000 0.24726  0.29348  0.57534  Biso   1.000  O
  H175     1.0000 0.14691  0.27981  0.58301  Biso   1.000  H
  C111     1.0000 0.16051  0.34822  0.54506  Biso   1.000  C
  H176     1.0000 0.84758  0.03241  0.61441  Biso   1.000  H
  C112     1.0000 0.87668  0.96320  0.65038  Biso   1.000  C
  C113     1.0000 0.84979  0.96434  0.57473  Biso   1.000  C
  H177     1.0000 0.78128  0.99232  0.75259  Biso   1.000  H
  H178     1.0000 0.86370  0.02570  0.69380  Biso   1.000  H
  O91      1.0000 0.88740  0.95426  0.72271  Biso   1.000  O
  H179     1.0000 0.16978  0.37058  0.69289  Biso   1.000  H
  O92      1.0000 0.30747  0.26736  0.67874  Biso   1.000  O
  C114     1.0000 0.27512  0.26230  0.60799  Biso   1.000  C
  H180     1.0000 0.30320  0.33281  0.64140  Biso   1.000  H
  O93      1.0000 0.20368  0.39657  0.54193  Biso   1.000  O
  H181     1.0000 0.16540  0.32501  0.52020  Biso   1.000  H
  H182     1.0000 0.11178  0.36041  0.54701  Biso   1.000  H
  O94      1.0000 0.94772  0.97692  0.64493  Biso   1.000  O
  H183     1.0000 0.87050  0.92130  0.64910  Biso   1.000  H
  O95      1.0000 0.83630  0.90581  0.57449  Biso   1.000  O
  H184     1.0000 0.82110  0.98291  0.55371  Biso   1.000  H
  H185     1.0000 0.89868  0.97071  0.56749  Biso   1.000  H
  H186     1.0000 0.88029  0.97021  0.74510  Biso   1.000  H
  H187     1.0000 0.31669  0.28952  0.69791  Biso   1.000  H
  O96      1.0000 0.23361  0.21398  0.61648  Biso   1.000  O
  H188     1.0000 0.32298  0.25011  0.60120  Biso   1.000  H
  H189     1.0000 0.18168  0.42531  0.54939  Biso   1.000  H
  C115     1.0000 0.99402  0.93109  0.63671  Biso   1.000  C
  H190     1.0000 0.79421  0.90029  0.57881  Biso   1.000  H
  C116     1.0000 0.26132  0.15892  0.60976  Biso   1.000  C
  H191     1.0000 0.96781  0.89480  0.63741  Biso   1.000  H
  O97      1.0000 0.02467  0.93767  0.59795  Biso   1.000  O
  C117     1.0000 0.04899  0.93021  0.66955  Biso   1.000  C
  C118     1.0000 0.25751  0.12680  0.64931  Biso   1.000  C
  H192     1.0000 0.31010  0.16149  0.60020  Biso   1.000  H
  C119     1.0000 0.21609  0.12967  0.57735  Biso   1.000  C
  C120     1.0000 0.06928  0.98658  0.59357  Biso   1.000  C
  O98      1.0000 0.01865  0.92223  0.70834  Biso   1.000  O
  H193     1.0000 0.08072  0.89780  0.66410  Biso   1.000  H
  C121     1.0000 0.09082  0.98443  0.66815  Biso   1.000  C
  O99      1.0000 0.30330  0.15069  0.67877  Biso   1.000  O
  C122     1.0000 0.27590  0.06444  0.64143  Biso   1.000  C
  H194     1.0000 0.20929  0.12891  0.65999  Biso   1.000  H
  O100     1.0000 0.23376  0.07174  0.57294  Biso   1.000  O
  H195     1.0000 0.16690  0.13229  0.58599  Biso   1.000  H
  C123     1.0000 0.22341  0.15681  0.53545  Biso   1.000  C
  C124     1.0000 0.12409  0.98785  0.62619  Biso   1.000  C
  C125     1.0000 0.09798  0.98211  0.55048  Biso   1.000  C
  H196     1.0000 0.04080  0.02161  0.59570  Biso   1.000  H
  H197     1.0000 0.03652  0.89408  0.71969  Biso   1.000  H
  O101     1.0000 0.14428  0.98367  0.69821  Biso   1.000  O
  H198     1.0000 0.06011  0.01768  0.67259  Biso   1.000  H
  H199     1.0000 0.34369  0.13989  0.67399  Biso   1.000  H
  O102     1.0000 0.27167  0.03228  0.67825  Biso   1.000  O
  C126     1.0000 0.22928  0.03996  0.60893  Biso   1.000  C
  H200     1.0000 0.32452  0.06271  0.63130  Biso   1.000  H
  O103     1.0000 0.29032  0.14972  0.51884  Biso   1.000  O
  H201     1.0000 0.18920  0.13989  0.51671  Biso   1.000  H
  H202     1.0000 0.21321  0.19761  0.53761  Biso   1.000  H
  H203     1.0000 0.15701  0.95582  0.62229  Biso   1.000  H
  O104     1.0000 0.16010  0.04068  0.62424  Biso   1.000  O
  O105     1.0000 0.13841  0.93189  0.54610  Biso   1.000  O
  H204     1.0000 0.05950  0.98152  0.53070  Biso   1.000  H
  H205     1.0000 0.12693  0.01561  0.54449  Biso   1.000  H
  H206     1.0000 0.17349  0.98679  0.71720  Biso   1.000  H
  H207     1.0000 0.27018  0.05431  0.69830  Biso   1.000  H
  H208     1.0000 0.24329  0.00021  0.60321  Biso   1.000  H
  H209     1.0000 0.28728  0.13410  0.49601  Biso   1.000  H
  H210     1.0000 0.17761  0.94042  0.53721  Biso   1.000  H
  O106     1.0000 0.63494  0.66520  0.40436  Biso   1.000  O
  H211     1.0000 0.63509  0.63351  0.41580  Biso   1.000  H
  C127     1.0000 0.70082  0.69128  0.40935  Biso   1.000  C
  C128     1.0000 0.74831  0.67938  0.37369  Biso   1.000  C
  H212     1.0000 0.72240  0.67719  0.43470  Biso   1.000  H
  H213     1.0000 0.69459  0.73259  0.41209  Biso   1.000  H
  O107     1.0000 0.76449  0.61959  0.37570  Biso   1.000  O
  C129     1.0000 0.71622  0.69453  0.33286  Biso   1.000  C
  H214     1.0000 0.79179  0.70149  0.37719  Biso   1.000  H
  C130     1.0000 0.80750  0.60014  0.34415  Biso   1.000  C
  O108     1.0000 0.71416  0.75428  0.32838  Biso   1.000  O
  C131     1.0000 0.75939  0.67259  0.29762  Biso   1.000  C
  H215     1.0000 0.66852  0.67871  0.33121  Biso   1.000  H
  O109     1.0000 0.87220  0.62879  0.34415  Biso   1.000  O
  H216     1.0000 0.81569  0.55878  0.34780  Biso   1.000  H
  C132     1.0000 0.77489  0.60988  0.30322  Biso   1.000  C
  C133     1.0000 0.64998  0.78167  0.32899  Biso   1.000  C
  O110     1.0000 0.72287  0.68259  0.26050  Biso   1.000  O
  H217     1.0000 0.80389  0.69381  0.29680  Biso   1.000  H
  C134     1.0000 0.93103  0.59642  0.35528  Biso   1.000  C
  O111     1.0000 0.81734  0.58908  0.27136  Biso   1.000  O
  H218     1.0000 0.73028  0.58891  0.30240  Biso   1.000  H
  O112     1.0000 0.64400  0.81517  0.36475  Biso   1.000  O
  H219     1.0000 0.61232  0.75289  0.32851  Biso   1.000  H
  C135     1.0000 0.64498  0.81923  0.29114  Biso   1.000  C
  H220     1.0000 0.68820  0.66149  0.25940  Biso   1.000  H
  C136     1.0000 0.98460  0.60081  0.32126  Biso   1.000  C
  H221     1.0000 0.91712  0.55608  0.35869  Biso   1.000  H
  C137     1.0000 0.96039  0.61798  0.39484  Biso   1.000  C
  H222     1.0000 0.80508  0.60351  0.24921  Biso   1.000  H
  C138     1.0000 0.69598  0.85754  0.36928  Biso   1.000  C
  O113     1.0000 0.64956  0.78741  0.25511  Biso   1.000  O
  H223     1.0000 0.59929  0.83880  0.29150  Biso   1.000  H
  C139     1.0000 0.70200  0.86412  0.29296  Biso   1.000  C
  O114     1.0000 0.95750  0.57781  0.28454  Biso   1.000  O
  H224     1.0000 0.99778  0.64111  0.31700  Biso   1.000  H
  C140     1.0000 0.04682  0.56701  0.33517  Biso   1.000  C
  H225     1.0000 0.97187  0.65892  0.39189  Biso   1.000  H
  C141     1.0000 0.91150  0.61060  0.42974  Biso   1.000  C
  O115     1.0000 0.02261  0.58688  0.40503  Biso   1.000  O
  C142     1.0000 0.69500  0.89742  0.33225  Biso   1.000  C
  H226     1.0000 0.74198  0.83859  0.37050  Biso   1.000  H
  C143     1.0000 0.68341  0.88691  0.40865  Biso   1.000  C
  H227     1.0000 0.67398  0.75871  0.25919  Biso   1.000  H
  O116     1.0000 0.69407  0.90054  0.25834  Biso   1.000  O
  H228     1.0000 0.74811  0.84539  0.29199  Biso   1.000  H
  H229     1.0000 0.93520  0.60279  0.27209  Biso   1.000  H
  O117     1.0000 0.10040  0.56815  0.30486  Biso   1.000  O
  C144     1.0000 0.07418  0.58798  0.37558  Biso   1.000  C
  H230     1.0000 0.03189  0.52688  0.33879  Biso   1.000  H
  O118     1.0000 0.88348  0.55380  0.43044  Biso   1.000  O
  H231     1.0000 0.93602  0.61811  0.45560  Biso   1.000  H
  H232     1.0000 0.87349  0.63811  0.42731  Biso   1.000  H
  O119     1.0000 0.75331  0.93459  0.33523  Biso   1.000  O
  H233     1.0000 0.65132  0.91978  0.33200  Biso   1.000  H
  O120     1.0000 0.62041  0.91691  0.40929  Biso   1.000  O
  H234     1.0000 0.68320  0.85860  0.43081  Biso   1.000  H
  H235     1.0000 0.72168  0.91349  0.41389  Biso   1.000  H
  H236     1.0000 0.72802  0.92240  0.25679  Biso   1.000  H
  H237     1.0000 0.10009  0.53768  0.29181  Biso   1.000  H
  O121     1.0000 0.09962  0.64368  0.36955  Biso   1.000  O
  H238     1.0000 0.11302  0.56309  0.38449  Biso   1.000  H
  H239     1.0000 0.91542  0.53059  0.43470  Biso   1.000  H
  C145     1.0000 0.74023  0.99291  0.33885  Biso   1.000  C
  H240     1.0000 0.58940  0.89721  0.39849  Biso   1.000  H
  C146     1.0000 0.17231  0.65322  0.37874  Biso   1.000  C
  H241     1.0000 0.68949  0.99928  0.33620  Biso   1.000  H
  O122     1.0000 0.76212  0.01397  0.37722  Biso   1.000  O
  C147     1.0000 0.77670  0.02469  0.30492  Biso   1.000  C
  C148     1.0000 0.20172  0.68529  0.34290  Biso   1.000  C
  H242     1.0000 0.19652  0.61621  0.38169  Biso   1.000  H
  C149     1.0000 0.17859  0.68694  0.41833  Biso   1.000  C
  C150     1.0000 0.83532  0.00857  0.38428  Biso   1.000  C
  O123     1.0000 0.75182  0.00477  0.26643  Biso   1.000  O
  H243     1.0000 0.76660  0.06591  0.30751  Biso   1.000  H
  C151     1.0000 0.85309  0.01544  0.30870  Biso   1.000  C
  O124     1.0000 0.20306  0.65204  0.30690  Biso   1.000  O
  C152     1.0000 0.27590  0.70217  0.35337  Biso   1.000  C
  H244     1.0000 0.17360  0.72002  0.33800  Biso   1.000  H
  O125     1.0000 0.24726  0.70652  0.42466  Biso   1.000  O
  H245     1.0000 0.14691  0.72019  0.41699  Biso   1.000  H
  C153     1.0000 0.16051  0.65178  0.45494  Biso   1.000  C
  H246     1.0000 0.84758  0.96759  0.38559  Biso   1.000  H
  C154     1.0000 0.87668  0.03680  0.34962  Biso   1.000  C
  C155     1.0000 0.84979  0.03566  0.42527  Biso   1.000  C
  H247     1.0000 0.78128  0.00768  0.24741  Biso   1.000  H
  H248     1.0000 0.86370  0.97430  0.30620  Biso   1.000  H
  O126     1.0000 0.88740  0.04574  0.27729  Biso   1.000  O
  H249     1.0000 0.16978  0.62942  0.30711  Biso   1.000  H
  O127     1.0000 0.30747  0.73264  0.32126  Biso   1.000  O
  C156     1.0000 0.27512  0.73770  0.39201  Biso   1.000  C
  H250     1.0000 0.30320  0.66719  0.35860  Biso   1.000  H
  O128     1.0000 0.20368  0.60343  0.45807  Biso   1.000  O
  H251     1.0000 0.16540  0.67499  0.47980  Biso   1.000  H
  H252     1.0000 0.11178  0.63959  0.45299  Biso   1.000  H
  O129     1.0000 0.94772  0.02308  0.35507  Biso   1.000  O
  H253     1.0000 0.87050  0.07870  0.35090  Biso   1.000  H
  O130     1.0000 0.83630  0.09419  0.42551  Biso   1.000  O
  H254     1.0000 0.82110  0.01709  0.44629  Biso   1.000  H
  H255     1.0000 0.89868  0.02929  0.43251  Biso   1.000  H
  H256     1.0000 0.88029  0.02979  0.25490  Biso   1.000  H
  H257     1.0000 0.31669  0.71048  0.30209  Biso   1.000  H
  O131     1.0000 0.23361  0.78602  0.38352  Biso   1.000  O
  H258     1.0000 0.32298  0.74989  0.39880  Biso   1.000  H
  H259     1.0000 0.18168  0.57469  0.45061  Biso   1.000  H
  C157     1.0000 0.99402  0.06891  0.36329  Biso   1.000  C
  H260     1.0000 0.79421  0.09971  0.42119  Biso   1.000  H
  C158     1.0000 0.26132  0.84108  0.39024  Biso   1.000  C
  H261     1.0000 0.96781  0.10520  0.36259  Biso   1.000  H
  O132     1.0000 0.02467  0.06233  0.40205  Biso   1.000  O
  C159     1.0000 0.04899  0.06979  0.33045  Biso   1.000  C
  C160     1.0000 0.25751  0.87320  0.35069  Biso   1.000  C
  H262     1.0000 0.31010  0.83851  0.39980  Biso   1.000  H
  C161     1.0000 0.21609  0.87033  0.42265  Biso   1.000  C
  C162     1.0000 0.06928  0.01342  0.40643  Biso   1.000  C
  O133     1.0000 0.01865  0.07777  0.29166  Biso   1.000  O
  H263     1.0000 0.08072  0.10220  0.33590  Biso   1.000  H
  C163     1.0000 0.09082  0.01557  0.33185  Biso   1.000  C
  O134     1.0000 0.30330  0.84931  0.32123  Biso   1.000  O
  C164     1.0000 0.27590  0.93556  0.35857  Biso   1.000  C
  H264     1.0000 0.20929  0.87109  0.34001  Biso   1.000  H
  O135     1.0000 0.23376  0.92826  0.42706  Biso   1.000  O
  H265     1.0000 0.16690  0.86771  0.41401  Biso   1.000  H
  C165     1.0000 0.22341  0.84319  0.46455  Biso   1.000  C
  H266     1.0000 0.04080  0.97839  0.40430  Biso   1.000  H
  C166     1.0000 0.12409  0.01215  0.37381  Biso   1.000  C
  C167     1.0000 0.09798  0.01789  0.44952  Biso   1.000  C
  H267     1.0000 0.03652  0.10592  0.28031  Biso   1.000  H
  H268     1.0000 0.06011  0.98232  0.32741  Biso   1.000  H
  O136     1.0000 0.14428  0.01633  0.30179  Biso   1.000  O
  H269     1.0000 0.34369  0.86011  0.32601  Biso   1.000  H
  O137     1.0000 0.27167  0.96772  0.32175  Biso   1.000  O
  C168     1.0000 0.22928  0.96004  0.39107  Biso   1.000  C
  H270     1.0000 0.32452  0.93729  0.36870  Biso   1.000  H
  O138     1.0000 0.29032  0.85028  0.48116  Biso   1.000  O
  H271     1.0000 0.18920  0.86011  0.48329  Biso   1.000  H
  H272     1.0000 0.21321  0.80239  0.46239  Biso   1.000  H
  O139     1.0000 0.16010  0.95932  0.37576  Biso   1.000  O
  H273     1.0000 0.15701  0.04418  0.37771  Biso   1.000  H
  H274     1.0000 0.12693  0.98439  0.45551  Biso   1.000  H
  O140     1.0000 0.13841  0.06811  0.45390  Biso   1.000  O
  H275     1.0000 0.05950  0.01848  0.46930  Biso   1.000  H
  H276     1.0000 0.17349  0.01321  0.28280  Biso   1.000  H
  H277     1.0000 0.27018  0.94569  0.30170  Biso   1.000  H
  H278     1.0000 0.24329  0.99979  0.39679  Biso   1.000  H
  H279     1.0000 0.28728  0.86590  0.50399  Biso   1.000  H
  H280     1.0000 0.17761  0.05958  0.46279  Biso   1.000  H
  O141     1.0000 0.61258  0.45426  0.77729  Biso   1.000  O
  C169     1.0000 0.64689  0.48456  0.80870  Biso   1.000  C
  H281     1.0000 0.61969  0.47021  0.75490  Biso   1.000  H
  C170     1.0000 0.62329  0.46320  0.84962  Biso   1.000  C
  C171     1.0000 0.72328  0.47531  0.80492  Biso   1.000  C
  H282     1.0000 0.63627  0.52570  0.80620  Biso   1.000  H
  O142     1.0000 0.55231  0.47692  0.85507  Biso   1.000  O
  H283     1.0000 0.62948  0.42130  0.85090  Biso   1.000  H
  C172     1.0000 0.66471  0.49143  0.88428  Biso   1.000  C
  O143     1.0000 0.74816  0.49523  0.76643  Biso   1.000  O
  C173     1.0000 0.75980  0.50709  0.83885  Biso   1.000  C
  H284     1.0000 0.73337  0.43409  0.80751  Biso   1.000  H
  C174     1.0000 0.50600  0.43109  0.86329  Biso   1.000  C
  O144     1.0000 0.73786  0.48603  0.87722  Biso   1.000  O
  H285     1.0000 0.65240  0.53241  0.88559  Biso   1.000  H
  C175     1.0000 0.65018  0.46434  0.92527  Biso   1.000  C
  H286     1.0000 0.71869  0.49232  0.74741  Biso   1.000  H
  O145     1.0000 0.74666  0.56541  0.83523  Biso   1.000  O
  H287     1.0000 0.81049  0.50072  0.83620  Biso   1.000  H
  C176     1.0000 0.45099  0.43021  0.83045  Biso   1.000  C
  O146     1.0000 0.47535  0.43767  0.90205  Biso   1.000  O
  H288     1.0000 0.53222  0.39480  0.86259  Biso   1.000  H
  O147     1.0000 0.66373  0.40581  0.92551  Biso   1.000  O
  H289     1.0000 0.67887  0.48291  0.94629  Biso   1.000  H
  H290     1.0000 0.60130  0.47071  0.93251  Biso   1.000  H
  C177     1.0000 0.80498  0.60258  0.83225  Biso   1.000  C
  O148     1.0000 0.48138  0.42223  0.79166  Biso   1.000  O
  H291     1.0000 0.41931  0.39780  0.83590  Biso   1.000  H
  C178     1.0000 0.40921  0.48443  0.83185  Biso   1.000  C
  C179     1.0000 0.43069  0.48658  0.90643  Biso   1.000  C
  H292     1.0000 0.70582  0.40029  0.92119  Biso   1.000  H
  C180     1.0000 0.79802  0.63588  0.79296  Biso   1.000  C
  H293     1.0000 0.84871  0.58022  0.83200  Biso   1.000  H
  C181     1.0000 0.80400  0.64246  0.86928  Biso   1.000  C
  H294     1.0000 0.46350  0.39408  0.78031  Biso   1.000  H
  O149     1.0000 0.35574  0.48367  0.80179  Biso   1.000  O
  H295     1.0000 0.43991  0.51768  0.82741  Biso   1.000  H
  C182     1.0000 0.37588  0.48785  0.87381  Biso   1.000  C
  H296     1.0000 0.45918  0.52161  0.90430  Biso   1.000  H
  C183     1.0000 0.40200  0.48211  0.94952  Biso   1.000  C
  O150     1.0000 0.80590  0.59946  0.75834  Biso   1.000  O
  C184     1.0000 0.85499  0.68077  0.79114  Biso   1.000  C
  H297     1.0000 0.75192  0.65461  0.79199  Biso   1.000  H
  O151     1.0000 0.85602  0.68483  0.86475  Biso   1.000  O
  H298     1.0000 0.75800  0.66141  0.87050  Biso   1.000  H
  C185     1.0000 0.81662  0.61309  0.90865  Biso   1.000  C
  H299     1.0000 0.32648  0.48679  0.78280  Biso   1.000  H
  O152     1.0000 0.33993  0.54068  0.87576  Biso   1.000  O
  H300     1.0000 0.34302  0.45582  0.87771  Biso   1.000  H
  O153     1.0000 0.36156  0.43189  0.95390  Biso   1.000  O
  H301     1.0000 0.44048  0.48152  0.96930  Biso   1.000  H
  H302     1.0000 0.37310  0.51561  0.95551  Biso   1.000  H
  H303     1.0000 0.77201  0.57760  0.75679  Biso   1.000  H
  O154     1.0000 0.85046  0.71259  0.75511  Biso   1.000  O
  C186     1.0000 0.85000  0.71833  0.82899  Biso   1.000  C
  H304     1.0000 0.90069  0.66120  0.79150  Biso   1.000  H
  O155     1.0000 0.87962  0.58309  0.90929  Biso   1.000  O
  H305     1.0000 0.81682  0.64140  0.93081  Biso   1.000  H
  H306     1.0000 0.77829  0.58651  0.91389  Biso   1.000  H
  C187     1.0000 0.27069  0.53996  0.89107  Biso   1.000  C
  H307     1.0000 0.32241  0.44042  0.96279  Biso   1.000  H
  H308     1.0000 0.82599  0.74129  0.75919  Biso   1.000  H
  O156     1.0000 0.78581  0.74572  0.82838  Biso   1.000  O
  H309     1.0000 0.88770  0.74711  0.82851  Biso   1.000  H
  H310     1.0000 0.91058  0.60279  0.89849  Biso   1.000  H
  O157     1.0000 0.26626  0.57174  0.92706  Biso   1.000  O
  H311     1.0000 0.25668  0.50021  0.89679  Biso   1.000  H
  C188     1.0000 0.22408  0.56444  0.85857  Biso   1.000  C
  C189     1.0000 0.78380  0.80547  0.83286  Biso   1.000  C
  C190     1.0000 0.28388  0.62967  0.92265  Biso   1.000  C
  O158     1.0000 0.22830  0.53228  0.82175  Biso   1.000  O
  H312     1.0000 0.17550  0.56271  0.86870  Biso   1.000  H
  C191     1.0000 0.24252  0.62680  0.85069  Biso   1.000  C
  C192     1.0000 0.74059  0.82741  0.79762  Biso   1.000  C
  H313     1.0000 0.83150  0.82129  0.83121  Biso   1.000  H
  C193     1.0000 0.75171  0.82062  0.87369  Biso   1.000  C
  C194     1.0000 0.23871  0.65892  0.89024  Biso   1.000  C
  H314     1.0000 0.33308  0.63229  0.91401  Biso   1.000  H
  C195     1.0000 0.27662  0.65681  0.96455  Biso   1.000  C
  H315     1.0000 0.22979  0.55431  0.80170  Biso   1.000  H
  O159     1.0000 0.19672  0.65069  0.82123  Biso   1.000  O
  H316     1.0000 0.29068  0.62891  0.84001  Biso   1.000  H
  O160     1.0000 0.77716  0.81741  0.76050  Biso   1.000  O
  C196     1.0000 0.72508  0.89012  0.80322  Biso   1.000  C
  H317     1.0000 0.69608  0.80619  0.79680  Biso   1.000  H
  O161     1.0000 0.73554  0.88041  0.87570  Biso   1.000  O
  H318     1.0000 0.70819  0.79851  0.87719  Biso   1.000  H
  C197     1.0000 0.79921  0.80872  0.90935  Biso   1.000  C
  O162     1.0000 0.26642  0.71398  0.88352  Biso   1.000  O
  H319     1.0000 0.18992  0.66149  0.89980  Biso   1.000  H
  O163     1.0000 0.20965  0.64972  0.98116  Biso   1.000  O
  H320     1.0000 0.31082  0.63989  0.98329  Biso   1.000  H
  H321     1.0000 0.28682  0.69761  0.96239  Biso   1.000  H
  H322     1.0000 0.15629  0.63989  0.82601  Biso   1.000  H
  H323     1.0000 0.81178  0.83851  0.75940  Biso   1.000  H
  O164     1.0000 0.68264  0.91092  0.77136  Biso   1.000  O
  C198     1.0000 0.69253  0.89986  0.84415  Biso   1.000  C
  H324     1.0000 0.76969  0.91109  0.80240  Biso   1.000  H
  O165     1.0000 0.86504  0.83480  0.90436  Biso   1.000  O
  H325     1.0000 0.77762  0.82281  0.93470  Biso   1.000  H
  H326     1.0000 0.80539  0.76741  0.91209  Biso   1.000  H
  C199     1.0000 0.22490  0.76230  0.89201  Biso   1.000  C
  H327     1.0000 0.21269  0.63410  0.00399  Biso   1.000  H
  H328     1.0000 0.69490  0.89649  0.74921  Biso   1.000  H
  O166     1.0000 0.62778  0.87121  0.84415  Biso   1.000  O
  H329     1.0000 0.68428  0.94122  0.84780  Biso   1.000  H
  H330     1.0000 0.86488  0.86649  0.91580  Biso   1.000  H
  O167     1.0000 0.25277  0.79348  0.92466  Biso   1.000  O
  H331     1.0000 0.17699  0.75011  0.89880  Biso   1.000  H
  C200     1.0000 0.22408  0.79783  0.85337  Biso   1.000  C
  C201     1.0000 0.56900  0.90358  0.85528  Biso   1.000  C
  C202     1.0000 0.32138  0.81306  0.91833  Biso   1.000  C
  O168     1.0000 0.19255  0.76736  0.82126  Biso   1.000  O
  H332     1.0000 0.19678  0.83281  0.85860  Biso   1.000  H
  C203     1.0000 0.29831  0.81471  0.84290  Biso   1.000  C
  C204     1.0000 0.53959  0.88202  0.89484  Biso   1.000  C
  C205     1.0000 0.51538  0.89919  0.82126  Biso   1.000  C
  H333     1.0000 0.58291  0.94392  0.85869  Biso   1.000  H
  C206     1.0000 0.32772  0.84678  0.87874  Biso   1.000  C
  H334     1.0000 0.35311  0.77981  0.91699  Biso   1.000  H
  C207     1.0000 0.33951  0.84822  0.95494  Biso   1.000  C
  H335     1.0000 0.18328  0.78952  0.80209  Biso   1.000  H
  O169     1.0000 0.29697  0.84796  0.80690  Biso   1.000  O
  H336     1.0000 0.32638  0.77998  0.83800  Biso   1.000  H
  O170     1.0000 0.47741  0.91312  0.90503  Biso   1.000  O
  H337     1.0000 0.52810  0.84108  0.89189  Biso   1.000  H
  C208     1.0000 0.58852  0.88940  0.92974  Biso   1.000  C
  C209     1.0000 0.45320  0.93299  0.83517  Biso   1.000  C
  O171     1.0000 0.54252  0.92219  0.78454  Biso   1.000  O
  H338     1.0000 0.50219  0.85889  0.81700  Biso   1.000  H
  O172     1.0000 0.40035  0.85632  0.86955  Biso   1.000  O
  H339     1.0000 0.30351  0.88379  0.88169  Biso   1.000  H
  O173     1.0000 0.29635  0.89657  0.95807  Biso   1.000  O
  H340     1.0000 0.33462  0.82501  0.97980  Biso   1.000  H
  H341     1.0000 0.38819  0.86041  0.95299  Biso   1.000  H
  H342     1.0000 0.33019  0.87058  0.80711  Biso   1.000  H
  C210     1.0000 0.42580  0.91202  0.87558  Biso   1.000  C
  O174     1.0000 0.61649  0.94620  0.93044  Biso   1.000  O
  H343     1.0000 0.56400  0.88189  0.95560  Biso   1.000  H
  H344     1.0000 0.62649  0.86189  0.92731  Biso   1.000  H
  O175     1.0000 0.39958  0.93185  0.80486  Biso   1.000  O
  H345     1.0000 0.46809  0.97312  0.83879  Biso   1.000  H
  H346     1.0000 0.56478  0.89721  0.77209  Biso   1.000  H
  H347     1.0000 0.31829  0.92531  0.95061  Biso   1.000  H
  H348     1.0000 0.38701  0.93691  0.88449  Biso   1.000  H
  H349     1.0000 0.58461  0.96941  0.93470  Biso   1.000  H
  H350     1.0000 0.39989  0.96232  0.79181  Biso   1.000  H
  O176     1.0000 0.61258  0.54574  0.22271  Biso   1.000  O
  C211     1.0000 0.64689  0.51544  0.19130  Biso   1.000  C
  H351     1.0000 0.61969  0.52979  0.24510  Biso   1.000  H
  C212     1.0000 0.62329  0.53680  0.15038  Biso   1.000  C
  C213     1.0000 0.72328  0.52469  0.19508  Biso   1.000  C
  H352     1.0000 0.63627  0.47430  0.19380  Biso   1.000  H
  O177     1.0000 0.55231  0.52308  0.14493  Biso   1.000  O
  H353     1.0000 0.62948  0.57870  0.14910  Biso   1.000  H
  C214     1.0000 0.66471  0.50857  0.11572  Biso   1.000  C
  O178     1.0000 0.74816  0.50477  0.23357  Biso   1.000  O
  C215     1.0000 0.75980  0.49291  0.16115  Biso   1.000  C
  H354     1.0000 0.73337  0.56591  0.19249  Biso   1.000  H
  C216     1.0000 0.50600  0.56891  0.13671  Biso   1.000  C
  O179     1.0000 0.73786  0.51397  0.12278  Biso   1.000  O
  H355     1.0000 0.65240  0.46759  0.11441  Biso   1.000  H
  C217     1.0000 0.65018  0.53566  0.07473  Biso   1.000  C
  H356     1.0000 0.71869  0.50768  0.25259  Biso   1.000  H
  O180     1.0000 0.74666  0.43459  0.16477  Biso   1.000  O
  H357     1.0000 0.81049  0.49928  0.16380  Biso   1.000  H
  C218     1.0000 0.45099  0.56979  0.16955  Biso   1.000  C
  O181     1.0000 0.47535  0.56233  0.09795  Biso   1.000  O
  H358     1.0000 0.53222  0.60520  0.13741  Biso   1.000  H
  O182     1.0000 0.66373  0.59419  0.07449  Biso   1.000  O
  H359     1.0000 0.67887  0.51709  0.05371  Biso   1.000  H
  H360     1.0000 0.60130  0.52929  0.06749  Biso   1.000  H
  C219     1.0000 0.80498  0.39742  0.16775  Biso   1.000  C
  C220     1.0000 0.40921  0.51557  0.16815  Biso   1.000  C
  O183     1.0000 0.48138  0.57777  0.20834  Biso   1.000  O
  H361     1.0000 0.41931  0.60220  0.16410  Biso   1.000  H
  C221     1.0000 0.43069  0.51342  0.09357  Biso   1.000  C
  H362     1.0000 0.70582  0.59971  0.07881  Biso   1.000  H
  C222     1.0000 0.80400  0.35754  0.13072  Biso   1.000  C
  C223     1.0000 0.79802  0.36412  0.20704  Biso   1.000  C
  H363     1.0000 0.84871  0.41978  0.16800  Biso   1.000  H
  C224     1.0000 0.37588  0.51215  0.12619  Biso   1.000  C
  O184     1.0000 0.35574  0.51633  0.19821  Biso   1.000  O
  H364     1.0000 0.43991  0.48232  0.17259  Biso   1.000  H
  H365     1.0000 0.46350  0.60592  0.21969  Biso   1.000  H
  H366     1.0000 0.45918  0.47839  0.09570  Biso   1.000  H
  C225     1.0000 0.40200  0.51789  0.05048  Biso   1.000  C
  O185     1.0000 0.85602  0.31517  0.13525  Biso   1.000  O
  H367     1.0000 0.75800  0.33859  0.12950  Biso   1.000  H
  C226     1.0000 0.81662  0.38691  0.09135  Biso   1.000  C
  C227     1.0000 0.85499  0.31923  0.20886  Biso   1.000  C
  O186     1.0000 0.80590  0.40054  0.24166  Biso   1.000  O
  H368     1.0000 0.75192  0.34539  0.20801  Biso   1.000  H
  O187     1.0000 0.33993  0.45932  0.12424  Biso   1.000  O
  H369     1.0000 0.34302  0.54418  0.12229  Biso   1.000  H
  H370     1.0000 0.32648  0.51321  0.21720  Biso   1.000  H
  O188     1.0000 0.36156  0.56811  0.04610  Biso   1.000  O
  H371     1.0000 0.44048  0.51848  0.03070  Biso   1.000  H
  H372     1.0000 0.37310  0.48439  0.04449  Biso   1.000  H
  C228     1.0000 0.85000  0.28167  0.17101  Biso   1.000  C
  O189     1.0000 0.87962  0.41691  0.09071  Biso   1.000  O
  H373     1.0000 0.81682  0.35860  0.06919  Biso   1.000  H
  H374     1.0000 0.77829  0.41349  0.08611  Biso   1.000  H
  O190     1.0000 0.85046  0.28741  0.24489  Biso   1.000  O
  H375     1.0000 0.90069  0.33880  0.20850  Biso   1.000  H
  H376     1.0000 0.77201  0.42240  0.24321  Biso   1.000  H
  C229     1.0000 0.27069  0.46004  0.10893  Biso   1.000  C
  H377     1.0000 0.32241  0.55958  0.03721  Biso   1.000  H
  O191     1.0000 0.78581  0.25428  0.17162  Biso   1.000  O
  H378     1.0000 0.88770  0.25289  0.17149  Biso   1.000  H
  H379     1.0000 0.91058  0.39721  0.10151  Biso   1.000  H
  H380     1.0000 0.82599  0.25871  0.24081  Biso   1.000  H
  C230     1.0000 0.22408  0.43556  0.14143  Biso   1.000  C
  O192     1.0000 0.26626  0.42826  0.07294  Biso   1.000  O
  H381     1.0000 0.25668  0.49979  0.10321  Biso   1.000  H
  C231     1.0000 0.78380  0.19453  0.16714  Biso   1.000  C
  C232     1.0000 0.24252  0.37320  0.14931  Biso   1.000  C
  O193     1.0000 0.22830  0.46772  0.17825  Biso   1.000  O
  H382     1.0000 0.17550  0.43729  0.13130  Biso   1.000  H
  C233     1.0000 0.28388  0.37033  0.07735  Biso   1.000  C
  C234     1.0000 0.75171  0.17938  0.12631  Biso   1.000  C
  C235     1.0000 0.74059  0.17259  0.20238  Biso   1.000  C
  H383     1.0000 0.83150  0.17871  0.16879  Biso   1.000  H
  C236     1.0000 0.23871  0.34108  0.10976  Biso   1.000  C
  O194     1.0000 0.19672  0.34931  0.17877  Biso   1.000  O
  H384     1.0000 0.29068  0.37109  0.15999  Biso   1.000  H
  H385     1.0000 0.22979  0.44569  0.19830  Biso   1.000  H
  H386     1.0000 0.33308  0.36771  0.08599  Biso   1.000  H
  C237     1.0000 0.27662  0.34319  0.03545  Biso   1.000  C
  O195     1.0000 0.73554  0.11959  0.12430  Biso   1.000  O
  H387     1.0000 0.70819  0.20149  0.12281  Biso   1.000  H
  C238     1.0000 0.79921  0.19128  0.09065  Biso   1.000  C
  C239     1.0000 0.72508  0.10988  0.19678  Biso   1.000  C
  O196     1.0000 0.77716  0.18259  0.23950  Biso   1.000  O
  H388     1.0000 0.69608  0.19381  0.20320  Biso   1.000  H
  O197     1.0000 0.26642  0.28602  0.11648  Biso   1.000  O
  H389     1.0000 0.18992  0.33851  0.10020  Biso   1.000  H
  H390     1.0000 0.15629  0.36011  0.17399  Biso   1.000  H
  O198     1.0000 0.20965  0.35028  0.01884  Biso   1.000  O
  H391     1.0000 0.31082  0.36011  0.01671  Biso   1.000  H
  H392     1.0000 0.28682  0.30239  0.03761  Biso   1.000  H
  C240     1.0000 0.69253  0.10014  0.15585  Biso   1.000  C
  O199     1.0000 0.86504  0.16520  0.09564  Biso   1.000  O
  H393     1.0000 0.77762  0.17719  0.06530  Biso   1.000  H
  H394     1.0000 0.80539  0.23259  0.08791  Biso   1.000  H
  O200     1.0000 0.68264  0.08908  0.22864  Biso   1.000  O
  H395     1.0000 0.76969  0.08891  0.19760  Biso   1.000  H
  H396     1.0000 0.81178  0.16149  0.24060  Biso   1.000  H
  C241     1.0000 0.22490  0.23770  0.10799  Biso   1.000  C
  H397     1.0000 0.21269  0.36590  0.99601  Biso   1.000  H
  O201     1.0000 0.62778  0.12879  0.15585  Biso   1.000  O
  H398     1.0000 0.68428  0.05878  0.15220  Biso   1.000  H
  H399     1.0000 0.86488  0.13351  0.08420  Biso   1.000  H
  H400     1.0000 0.69490  0.10351  0.25079  Biso   1.000  H
  C242     1.0000 0.22408  0.20217  0.14663  Biso   1.000  C
  O202     1.0000 0.25277  0.20652  0.07534  Biso   1.000  O
  H401     1.0000 0.17699  0.24989  0.10120  Biso   1.000  H
  C243     1.0000 0.56900  0.09642  0.14472  Biso   1.000  C
  O203     1.0000 0.19255  0.23264  0.17874  Biso   1.000  O
  H402     1.0000 0.19678  0.16719  0.14140  Biso   1.000  H
  C244     1.0000 0.29831  0.18529  0.15710  Biso   1.000  C
  C245     1.0000 0.32138  0.18694  0.08167  Biso   1.000  C
  C246     1.0000 0.53959  0.11798  0.10516  Biso   1.000  C
  C247     1.0000 0.51538  0.10081  0.17874  Biso   1.000  C
  H403     1.0000 0.58291  0.05608  0.14131  Biso   1.000  H
  H404     1.0000 0.18328  0.21048  0.19791  Biso   1.000  H
  O204     1.0000 0.29697  0.15204  0.19310  Biso   1.000  O
  H405     1.0000 0.32638  0.22002  0.16200  Biso   1.000  H
  C248     1.0000 0.32772  0.15322  0.12126  Biso   1.000  C
  H406     1.0000 0.35311  0.22019  0.08301  Biso   1.000  H
  C249     1.0000 0.33951  0.15178  0.04506  Biso   1.000  C
  O205     1.0000 0.47741  0.08688  0.09497  Biso   1.000  O
  H407     1.0000 0.52810  0.15892  0.10811  Biso   1.000  H
  C250     1.0000 0.58852  0.11060  0.07026  Biso   1.000  C
  C251     1.0000 0.45320  0.06701  0.16483  Biso   1.000  C
  O206     1.0000 0.54252  0.07781  0.21546  Biso   1.000  O
  H408     1.0000 0.50219  0.14111  0.18300  Biso   1.000  H
  H409     1.0000 0.33019  0.12942  0.19289  Biso   1.000  H
  O207     1.0000 0.40035  0.14368  0.13045  Biso   1.000  O
  H410     1.0000 0.30351  0.11621  0.11831  Biso   1.000  H
  O208     1.0000 0.29635  0.10343  0.04193  Biso   1.000  O
  H411     1.0000 0.33462  0.17499  0.02020  Biso   1.000  H
  H412     1.0000 0.38819  0.13959  0.04701  Biso   1.000  H
  C252     1.0000 0.42580  0.08798  0.12442  Biso   1.000  C
  O209     1.0000 0.61649  0.05380  0.06956  Biso   1.000  O
  H413     1.0000 0.56400  0.11811  0.04440  Biso   1.000  H
  H414     1.0000 0.62649  0.13811  0.07269  Biso   1.000  H
  O210     1.0000 0.39958  0.06815  0.19514  Biso   1.000  O
  H415     1.0000 0.46809  0.02688  0.16121  Biso   1.000  H
  H416     1.0000 0.56478  0.10279  0.22791  Biso   1.000  H
  H417     1.0000 0.31829  0.07469  0.04939  Biso   1.000  H
  H418     1.0000 0.38701  0.06309  0.11551  Biso   1.000  H
  H419     1.0000 0.58461  0.03059  0.06530  Biso   1.000  H
  H420     1.0000 0.39989  0.03768  0.20819  Biso   1.000  H
  O211     1.0000 0.27713  0.31741  0.76050  Biso   1.000  O
  C253     1.0000 0.24061  0.32741  0.79762  Biso   1.000  C
  H421     1.0000 0.31180  0.33851  0.75940  Biso   1.000  H
  C254     1.0000 0.28378  0.30547  0.83286  Biso   1.000  C
  C255     1.0000 0.22511  0.39012  0.80322  Biso   1.000  C
  H422     1.0000 0.19611  0.30619  0.79680  Biso   1.000  H
  O212     1.0000 0.28584  0.24572  0.82838  Biso   1.000  O
  H423     1.0000 0.33148  0.32129  0.83121  Biso   1.000  H
  C256     1.0000 0.25169  0.32062  0.87369  Biso   1.000  C
  O213     1.0000 0.18266  0.41092  0.77136  Biso   1.000  O
  C257     1.0000 0.19250  0.39986  0.84415  Biso   1.000  C
  H424     1.0000 0.26972  0.41109  0.80240  Biso   1.000  H
  C258     1.0000 0.35002  0.21833  0.82899  Biso   1.000  C
  O214     1.0000 0.23551  0.38041  0.87570  Biso   1.000  O
  H425     1.0000 0.20821  0.29851  0.87719  Biso   1.000  H
  C259     1.0000 0.29918  0.30872  0.90935  Biso   1.000  C
  H426     1.0000 0.19492  0.39649  0.74921  Biso   1.000  H
  O215     1.0000 0.12780  0.37121  0.84415  Biso   1.000  O
  H427     1.0000 0.18431  0.44122  0.84780  Biso   1.000  H
  C260     1.0000 0.35502  0.18077  0.79114  Biso   1.000  C
  O216     1.0000 0.35600  0.18483  0.86475  Biso   1.000  O
  H428     1.0000 0.38768  0.24711  0.82851  Biso   1.000  H
  O217     1.0000 0.36506  0.33480  0.90436  Biso   1.000  O
  H429     1.0000 0.27760  0.32281  0.93470  Biso   1.000  H
  H430     1.0000 0.30541  0.26741  0.91209  Biso   1.000  H
  C261     1.0000 0.06897  0.40358  0.85528  Biso   1.000  C
  O218     1.0000 0.35044  0.21259  0.75511  Biso   1.000  O
  H431     1.0000 0.40071  0.16120  0.79150  Biso   1.000  H
  C262     1.0000 0.29800  0.13588  0.79296  Biso   1.000  C
  C263     1.0000 0.30402  0.14246  0.86928  Biso   1.000  C
  H432     1.0000 0.36491  0.36649  0.91580  Biso   1.000  H
  C264     1.0000 0.01540  0.39919  0.82126  Biso   1.000  C
  H433     1.0000 0.08288  0.44392  0.85869  Biso   1.000  H
  C265     1.0000 0.03961  0.38202  0.89484  Biso   1.000  C
  H434     1.0000 0.32602  0.24129  0.75919  Biso   1.000  H
  O219     1.0000 0.30593  0.09946  0.75834  Biso   1.000  O
  H435     1.0000 0.25189  0.15461  0.79199  Biso   1.000  H
  C266     1.0000 0.30500  0.10258  0.83225  Biso   1.000  C
  H436     1.0000 0.25802  0.16141  0.87050  Biso   1.000  H
  C267     1.0000 0.31659  0.11309  0.90865  Biso   1.000  C
  O220     1.0000 0.04250  0.42219  0.78454  Biso   1.000  O
  H437     1.0000 0.00222  0.35889  0.81700  Biso   1.000  H
  C268     1.0000 0.95318  0.43299  0.83517  Biso   1.000  C
  H438     1.0000 0.02813  0.34108  0.89189  Biso   1.000  H
  C269     1.0000 0.08850  0.38940  0.92974  Biso   1.000  C
  O221     1.0000 0.97739  0.41312  0.90503  Biso   1.000  O
  H439     1.0000 0.27198  0.07760  0.75679  Biso   1.000  H
  O222     1.0000 0.24669  0.06541  0.83523  Biso   1.000  O
  H440     1.0000 0.34868  0.08022  0.83200  Biso   1.000  H
  O223     1.0000 0.37959  0.08309  0.90929  Biso   1.000  O
  H441     1.0000 0.31680  0.14140  0.93081  Biso   1.000  H
  H442     1.0000 0.27832  0.08651  0.91389  Biso   1.000  H
  H443     1.0000 0.06480  0.39721  0.77209  Biso   1.000  H
  O224     1.0000 0.89960  0.43185  0.80486  Biso   1.000  O
  C270     1.0000 0.92582  0.41202  0.87558  Biso   1.000  C
  H444     1.0000 0.96811  0.47312  0.83879  Biso   1.000  H
  O225     1.0000 0.11652  0.44620  0.93044  Biso   1.000  O
  H445     1.0000 0.06398  0.38189  0.95560  Biso   1.000  H
  H446     1.0000 0.12651  0.36189  0.92731  Biso   1.000  H
  C271     1.0000 0.25977  0.00709  0.83885  Biso   1.000  C
  H447     1.0000 0.41060  0.10279  0.89849  Biso   1.000  H
  H448     1.0000 0.89991  0.46232  0.79181  Biso   1.000  H
  O226     1.0000 0.90038  0.35632  0.86955  Biso   1.000  O
  H449     1.0000 0.88698  0.43691  0.88449  Biso   1.000  H
  H450     1.0000 0.08458  0.46941  0.93470  Biso   1.000  H
  H451     1.0000 0.31051  0.00072  0.83620  Biso   1.000  H
  O227     1.0000 0.23788  0.98603  0.87722  Biso   1.000  O
  C272     1.0000 0.22330  0.97531  0.80492  Biso   1.000  C
  C273     1.0000 0.82769  0.34678  0.87874  Biso   1.000  C
  C274     1.0000 0.16468  0.99143  0.88428  Biso   1.000  C
  O228     1.0000 0.24818  0.99523  0.76643  Biso   1.000  O
  H452     1.0000 0.23340  0.93409  0.80751  Biso   1.000  H
  C275     1.0000 0.14691  0.98456  0.80870  Biso   1.000  C
  C276     1.0000 0.79828  0.31471  0.84290  Biso   1.000  C
  H453     1.0000 0.80348  0.38379  0.88169  Biso   1.000  H
  C277     1.0000 0.82141  0.31306  0.91833  Biso   1.000  C
  H454     1.0000 0.15242  0.03241  0.88559  Biso   1.000  H
  C278     1.0000 0.12332  0.96320  0.84962  Biso   1.000  C
  C279     1.0000 0.15021  0.96434  0.92527  Biso   1.000  C
  H455     1.0000 0.21872  0.99232  0.74741  Biso   1.000  H
  H456     1.0000 0.13630  0.02570  0.80620  Biso   1.000  H
  O229     1.0000 0.11260  0.95426  0.77729  Biso   1.000  O
  O230     1.0000 0.79694  0.34796  0.80690  Biso   1.000  O
  C280     1.0000 0.72410  0.29783  0.85337  Biso   1.000  C
  H457     1.0000 0.82640  0.27998  0.83800  Biso   1.000  H
  O231     1.0000 0.75274  0.29348  0.92466  Biso   1.000  O
  H458     1.0000 0.85309  0.27981  0.91699  Biso   1.000  H
  C281     1.0000 0.83949  0.34822  0.95494  Biso   1.000  C
  O232     1.0000 0.05228  0.97692  0.85507  Biso   1.000  O
  H459     1.0000 0.12950  0.92130  0.85090  Biso   1.000  H
  O233     1.0000 0.16370  0.90581  0.92551  Biso   1.000  O
  H460     1.0000 0.17890  0.98291  0.94629  Biso   1.000  H
  H461     1.0000 0.10132  0.97071  0.93251  Biso   1.000  H
  H462     1.0000 0.11971  0.97021  0.75490  Biso   1.000  H
  H463     1.0000 0.83022  0.37058  0.80711  Biso   1.000  H
  O234     1.0000 0.69253  0.26736  0.82126  Biso   1.000  O
  C282     1.0000 0.72488  0.26230  0.89201  Biso   1.000  C
  H464     1.0000 0.69680  0.33281  0.85860  Biso   1.000  H
  O235     1.0000 0.79632  0.39657  0.95807  Biso   1.000  O
  H465     1.0000 0.83460  0.32501  0.97980  Biso   1.000  H
  H466     1.0000 0.88822  0.36041  0.95299  Biso   1.000  H
  C283     1.0000 0.00598  0.93109  0.86329  Biso   1.000  C
  H467     1.0000 0.20579  0.90029  0.92119  Biso   1.000  H
  H468     1.0000 0.68331  0.28952  0.80209  Biso   1.000  H
  O236     1.0000 0.76639  0.21398  0.88352  Biso   1.000  O
  H469     1.0000 0.67702  0.25011  0.89880  Biso   1.000  H
  H470     1.0000 0.81832  0.42531  0.95061  Biso   1.000  H
  O237     1.0000 0.97533  0.93767  0.90205  Biso   1.000  O
  C284     1.0000 0.95101  0.93021  0.83045  Biso   1.000  C
  H471     1.0000 0.03219  0.89480  0.86259  Biso   1.000  H
  C285     1.0000 0.73868  0.15892  0.89024  Biso   1.000  C
  C286     1.0000 0.93072  0.98658  0.90643  Biso   1.000  C
  O238     1.0000 0.98135  0.92223  0.79166  Biso   1.000  O
  H472     1.0000 0.91928  0.89780  0.83590  Biso   1.000  H
  C287     1.0000 0.90918  0.98443  0.83185  Biso   1.000  C
  C288     1.0000 0.78391  0.12967  0.92265  Biso   1.000  C
  C289     1.0000 0.74249  0.12680  0.85069  Biso   1.000  C
  H473     1.0000 0.68990  0.16149  0.89980  Biso   1.000  H
  C290     1.0000 0.87591  0.98785  0.87381  Biso   1.000  C
  C291     1.0000 0.90202  0.98211  0.94952  Biso   1.000  C
  H474     1.0000 0.95920  0.02161  0.90430  Biso   1.000  H
  H475     1.0000 0.96348  0.89408  0.78031  Biso   1.000  H
  O239     1.0000 0.85572  0.98367  0.80179  Biso   1.000  O
  H476     1.0000 0.93989  0.01768  0.82741  Biso   1.000  H
  O240     1.0000 0.76624  0.07174  0.92706  Biso   1.000  O
  H477     1.0000 0.83310  0.13229  0.91401  Biso   1.000  H
  C292     1.0000 0.77659  0.15681  0.96455  Biso   1.000  C
  C293     1.0000 0.72410  0.06444  0.85857  Biso   1.000  C
  O241     1.0000 0.69670  0.15069  0.82123  Biso   1.000  O
  H478     1.0000 0.79071  0.12891  0.84001  Biso   1.000  H
  H479     1.0000 0.84299  0.95582  0.87771  Biso   1.000  H
  O242     1.0000 0.83990  0.04068  0.87576  Biso   1.000  O
  O243     1.0000 0.86159  0.93189  0.95390  Biso   1.000  O
  H480     1.0000 0.94050  0.98152  0.96930  Biso   1.000  H
  H481     1.0000 0.87307  0.01561  0.95551  Biso   1.000  H
  H482     1.0000 0.82651  0.98679  0.78280  Biso   1.000  H
  C294     1.0000 0.77072  0.03996  0.89107  Biso   1.000  C
  O244     1.0000 0.70968  0.14972  0.98116  Biso   1.000  O
  H483     1.0000 0.81080  0.13989  0.98329  Biso   1.000  H
  H484     1.0000 0.78679  0.19761  0.96239  Biso   1.000  H
  O245     1.0000 0.72833  0.03228  0.82175  Biso   1.000  O
  H485     1.0000 0.67548  0.06271  0.86870  Biso   1.000  H
  H486     1.0000 0.65631  0.13989  0.82601  Biso   1.000  H
  H487     1.0000 0.82239  0.94042  0.96279  Biso   1.000  H
  H488     1.0000 0.75671  0.00021  0.89679  Biso   1.000  H
  H489     1.0000 0.71272  0.13410  0.00399  Biso   1.000  H
  H490     1.0000 0.72982  0.05431  0.80170  Biso   1.000  H
  O246     1.0000 0.27713  0.68259  0.23950  Biso   1.000  O
  C295     1.0000 0.24061  0.67259  0.20238  Biso   1.000  C
  H491     1.0000 0.31180  0.66149  0.24060  Biso   1.000  H
  C296     1.0000 0.22511  0.60988  0.19678  Biso   1.000  C
  H492     1.0000 0.19611  0.69381  0.20320  Biso   1.000  H
  C297     1.0000 0.28378  0.69453  0.16714  Biso   1.000  C
  O247     1.0000 0.18266  0.58908  0.22864  Biso   1.000  O
  C298     1.0000 0.19250  0.60014  0.15585  Biso   1.000  C
  H493     1.0000 0.26972  0.58891  0.19760  Biso   1.000  H
  C299     1.0000 0.25169  0.67938  0.12631  Biso   1.000  C
  O248     1.0000 0.28584  0.75428  0.17162  Biso   1.000  O
  H494     1.0000 0.33148  0.67871  0.16879  Biso   1.000  H
  H495     1.0000 0.19492  0.60351  0.25079  Biso   1.000  H
  O249     1.0000 0.12780  0.62879  0.15585  Biso   1.000  O
  O250     1.0000 0.23551  0.61959  0.12430  Biso   1.000  O
  H496     1.0000 0.18431  0.55878  0.15220  Biso   1.000  H
  H497     1.0000 0.20821  0.70149  0.12281  Biso   1.000  H
  C300     1.0000 0.29918  0.69128  0.09065  Biso   1.000  C
  C301     1.0000 0.35002  0.78167  0.17101  Biso   1.000  C
  C302     1.0000 0.06897  0.59642  0.14472  Biso   1.000  C
  O251     1.0000 0.36506  0.66520  0.09564  Biso   1.000  O
  H498     1.0000 0.27760  0.67719  0.06530  Biso   1.000  H
  H499     1.0000 0.30541  0.73259  0.08791  Biso   1.000  H
  O252     1.0000 0.35600  0.81517  0.13525  Biso   1.000  O
  H500     1.0000 0.38768  0.75289  0.17149  Biso   1.000  H
  C303     1.0000 0.35502  0.81923  0.20886  Biso   1.000  C
  C304     1.0000 0.01540  0.60081  0.17874  Biso   1.000  C
  H501     1.0000 0.08288  0.55608  0.14131  Biso   1.000  H
  C305     1.0000 0.03961  0.61798  0.10516  Biso   1.000  C
  H502     1.0000 0.36491  0.63351  0.08420  Biso   1.000  H
  C306     1.0000 0.30402  0.85754  0.13072  Biso   1.000  C
  O253     1.0000 0.35044  0.78741  0.24489  Biso   1.000  O
  H503     1.0000 0.40071  0.83880  0.20850  Biso   1.000  H
  C307     1.0000 0.29800  0.86412  0.20704  Biso   1.000  C
  O254     1.0000 0.04250  0.57781  0.21546  Biso   1.000  O
  H504     1.0000 0.00222  0.64111  0.18300  Biso   1.000  H
  C308     1.0000 0.95318  0.56701  0.16483  Biso   1.000  C
  H505     1.0000 0.02813  0.65892  0.10811  Biso   1.000  H
  C309     1.0000 0.08850  0.61060  0.07026  Biso   1.000  C
  O255     1.0000 0.97739  0.58688  0.09497  Biso   1.000  O
  C310     1.0000 0.30500  0.89742  0.16775  Biso   1.000  C
  H506     1.0000 0.25802  0.83859  0.12950  Biso   1.000  H
  C311     1.0000 0.31659  0.88691  0.09135  Biso   1.000  C
  H507     1.0000 0.32602  0.75871  0.24081  Biso   1.000  H
  O256     1.0000 0.30593  0.90054  0.24166  Biso   1.000  O
  H508     1.0000 0.25189  0.84539  0.20801  Biso   1.000  H
  H509     1.0000 0.06480  0.60279  0.22791  Biso   1.000  H
  O257     1.0000 0.89960  0.56815  0.19514  Biso   1.000  O
  C312     1.0000 0.92582  0.58798  0.12442  Biso   1.000  C
  H510     1.0000 0.96811  0.52688  0.16121  Biso   1.000  H
  O258     1.0000 0.11652  0.55380  0.06956  Biso   1.000  O
  H511     1.0000 0.06398  0.61811  0.04440  Biso   1.000  H
  H512     1.0000 0.12651  0.63811  0.07269  Biso   1.000  H
  O259     1.0000 0.24669  0.93459  0.16477  Biso   1.000  O
  H513     1.0000 0.34868  0.91978  0.16800  Biso   1.000  H
  O260     1.0000 0.37959  0.91691  0.09071  Biso   1.000  O
  H514     1.0000 0.31680  0.85860  0.06919  Biso   1.000  H
  H515     1.0000 0.27832  0.91349  0.08611  Biso   1.000  H
  H516     1.0000 0.27198  0.92240  0.24321  Biso   1.000  H
  H517     1.0000 0.89991  0.53768  0.20819  Biso   1.000  H
  O261     1.0000 0.90038  0.64368  0.13045  Biso   1.000  O
  H518     1.0000 0.88698  0.56309  0.11551  Biso   1.000  H
  H519     1.0000 0.08458  0.53059  0.06530  Biso   1.000  H
  C313     1.0000 0.25977  0.99291  0.16115  Biso   1.000  C
  H520     1.0000 0.41060  0.89721  0.10151  Biso   1.000  H
  C314     1.0000 0.82769  0.65322  0.12126  Biso   1.000  C
  H521     1.0000 0.31051  0.99928  0.16380  Biso   1.000  H
  O262     1.0000 0.23788  0.01397  0.12278  Biso   1.000  O
  C315     1.0000 0.22330  0.02469  0.19508  Biso   1.000  C
  C316     1.0000 0.79828  0.68529  0.15710  Biso   1.000  C
  H522     1.0000 0.80348  0.61621  0.11831  Biso   1.000  H
  C317     1.0000 0.82141  0.68694  0.08167  Biso   1.000  C
  C318     1.0000 0.16468  0.00857  0.11572  Biso   1.000  C
  O263     1.0000 0.24818  0.00477  0.23357  Biso   1.000  O
  H523     1.0000 0.23340  0.06591  0.19249  Biso   1.000  H
  C319     1.0000 0.14691  0.01544  0.19130  Biso   1.000  C
  O264     1.0000 0.79694  0.65204  0.19310  Biso   1.000  O
  C320     1.0000 0.72410  0.70217  0.14663  Biso   1.000  C
  H524     1.0000 0.82640  0.72002  0.16200  Biso   1.000  H
  O265     1.0000 0.75274  0.70652  0.07534  Biso   1.000  O
  H525     1.0000 0.85309  0.72019  0.08301  Biso   1.000  H
  C321     1.0000 0.83949  0.65178  0.04506  Biso   1.000  C
  H526     1.0000 0.15242  0.96759  0.11441  Biso   1.000  H
  C322     1.0000 0.12332  0.03680  0.15038  Biso   1.000  C
  C323     1.0000 0.15021  0.03566  0.07473  Biso   1.000  C
  H527     1.0000 0.21872  0.00768  0.25259  Biso   1.000  H
  H528     1.0000 0.13630  0.97430  0.19380  Biso   1.000  H
  O266     1.0000 0.11260  0.04574  0.22271  Biso   1.000  O
  H529     1.0000 0.83022  0.62942  0.19289  Biso   1.000  H
  O267     1.0000 0.69253  0.73264  0.17874  Biso   1.000  O
  C324     1.0000 0.72488  0.73770  0.10799  Biso   1.000  C
  H530     1.0000 0.69680  0.66719  0.14140  Biso   1.000  H
  O268     1.0000 0.79632  0.60343  0.04193  Biso   1.000  O
  H531     1.0000 0.83460  0.67499  0.02020  Biso   1.000  H
  H532     1.0000 0.88822  0.63959  0.04701  Biso   1.000  H
  O269     1.0000 0.05228  0.02308  0.14493  Biso   1.000  O
  H533     1.0000 0.12950  0.07870  0.14910  Biso   1.000  H
  O270     1.0000 0.16370  0.09419  0.07449  Biso   1.000  O
  H534     1.0000 0.17890  0.01709  0.05371  Biso   1.000  H
  H535     1.0000 0.10132  0.02929  0.06749  Biso   1.000  H
  H536     1.0000 0.11971  0.02979  0.24510  Biso   1.000  H
  H537     1.0000 0.68331  0.71048  0.19791  Biso   1.000  H
  O271     1.0000 0.76639  0.78602  0.11648  Biso   1.000  O
  H538     1.0000 0.67702  0.74989  0.10120  Biso   1.000  H
  H539     1.0000 0.81832  0.57469  0.04939  Biso   1.000  H
  C325     1.0000 0.00598  0.06891  0.13671  Biso   1.000  C
  H540     1.0000 0.20579  0.09971  0.07881  Biso   1.000  H
  C326     1.0000 0.73868  0.84108  0.10976  Biso   1.000  C
  O272     1.0000 0.97533  0.06233  0.09795  Biso   1.000  O
  C327     1.0000 0.95101  0.06979  0.16955  Biso   1.000  C
  H541     1.0000 0.03219  0.10520  0.13741  Biso   1.000  H
  C328     1.0000 0.74249  0.87320  0.14931  Biso   1.000  C
  H542     1.0000 0.68990  0.83851  0.10020  Biso   1.000  H
  C329     1.0000 0.78391  0.87033  0.07735  Biso   1.000  C
  C330     1.0000 0.93072  0.01342  0.09357  Biso   1.000  C
  O273     1.0000 0.98135  0.07777  0.20834  Biso   1.000  O
  H543     1.0000 0.91928  0.10220  0.16410  Biso   1.000  H
  C331     1.0000 0.90918  0.01557  0.16815  Biso   1.000  C
  O274     1.0000 0.69670  0.84931  0.17877  Biso   1.000  O
  C332     1.0000 0.72410  0.93556  0.14143  Biso   1.000  C
  H544     1.0000 0.79071  0.87109  0.15999  Biso   1.000  H
  O275     1.0000 0.76624  0.92826  0.07294  Biso   1.000  O
  H545     1.0000 0.83310  0.86771  0.08599  Biso   1.000  H
  C333     1.0000 0.77659  0.84319  0.03545  Biso   1.000  C
  H546     1.0000 0.95920  0.97839  0.09570  Biso   1.000  H
  C334     1.0000 0.87591  0.01215  0.12619  Biso   1.000  C
  C335     1.0000 0.90202  0.01789  0.05048  Biso   1.000  C
  H547     1.0000 0.96348  0.10592  0.21969  Biso   1.000  H
  H548     1.0000 0.93989  0.98232  0.17259  Biso   1.000  H
  O276     1.0000 0.85572  0.01633  0.19821  Biso   1.000  O
  H549     1.0000 0.65631  0.86011  0.17399  Biso   1.000  H
  O277     1.0000 0.72833  0.96772  0.17825  Biso   1.000  O
  C336     1.0000 0.77072  0.96004  0.10893  Biso   1.000  C
  H550     1.0000 0.67548  0.93729  0.13130  Biso   1.000  H
  O278     1.0000 0.70968  0.85028  0.01884  Biso   1.000  O
  H551     1.0000 0.81080  0.86011  0.01671  Biso   1.000  H
  H552     1.0000 0.78679  0.80239  0.03761  Biso   1.000  H
  O279     1.0000 0.83990  0.95932  0.12424  Biso   1.000  O
  H553     1.0000 0.84299  0.04418  0.12229  Biso   1.000  H
  H554     1.0000 0.87307  0.98439  0.04449  Biso   1.000  H
  O280     1.0000 0.86159  0.06811  0.04610  Biso   1.000  O
  H555     1.0000 0.94050  0.01848  0.03070  Biso   1.000  H
  H556     1.0000 0.82651  0.01321  0.21720  Biso   1.000  H
  H557     1.0000 0.72982  0.94569  0.19830  Biso   1.000  H
  H558     1.0000 0.75671  0.99979  0.10321  Biso   1.000  H
  H559     1.0000 0.71272  0.86590  0.99601  Biso   1.000  H
  H560     1.0000 0.82239  0.05958  0.03721  Biso   1.000  H
  Ne1      1.0000 0.46751  0.31876  0.35993  Biso   1.000  Ne
  He1      1.0000 0.45676  0.32616  0.39380  Biso   1.000  He
  He2      1.0000 0.46695  0.31893  0.33184  Biso   1.000  He
  Ar1      1.0000 0.46187  0.32565  0.34693  Biso   1.000  Ar
  Ne2      1.0000 0.53249  0.31876  0.14007  Biso   1.000  Ne
  He3      1.0000 0.53263  0.31877  0.16947  Biso   1.000  He
  He4      1.0000 0.54316  0.32617  0.10649  Biso   1.000  He
  Ar2      1.0000 0.53814  0.32566  0.15304  Biso   1.000  Ar
  Ne3      1.0000 0.03249  0.81876  0.14007  Biso   1.000  Ne
  He5      1.0000 0.02670  0.81918  0.18873  Biso   1.000  He
  He6      1.0000 0.04106  0.82644  0.11421  Biso   1.000  He
  Ar3      1.0000 0.03296  0.81875  0.16856  Biso   1.000  Ar
  Ne4      1.0000 0.46751  0.68124  0.64007  Biso   1.000  Ne
  He7      1.0000 0.46900  0.68112  0.67478  Biso   1.000  He
  He8      1.0000 0.45657  0.67387  0.60547  Biso   1.000  He
  Ar4      1.0000 0.46191  0.67433  0.65321  Biso   1.000  Ar
  Ne5      1.0000 0.96751  0.81876  0.35993  Biso   1.000  Ne
  He9      1.0000 0.95942  0.82650  0.38406  Biso   1.000  He
  He10     1.0000 0.97288  0.81915  0.31264  Biso   1.000  He
  Ar5      1.0000 0.96706  0.81875  0.33143  Biso   1.000  Ar
  Ne6      1.0000 0.96751  0.18124  0.64007  Biso   1.000  Ne
  He11     1.0000 0.97382  0.18079  0.69043  Biso   1.000  He
  He12     1.0000 0.95862  0.17360  0.61305  Biso   1.000  He
  Ar6      1.0000 0.96705  0.18125  0.66857  Biso   1.000  Ar
  Ne7      1.0000 0.03249  0.18124  0.85993  Biso   1.000  Ne
  He13     1.0000 0.04615  0.17421  0.90431  Biso   1.000  He
  He14     1.0000 0.02754  0.18088  0.81400  Biso   1.000  He
  Ar7      1.0000 0.03294  0.18125  0.83142  Biso   1.000  Ar
  Ne8      1.0000 0.53249  0.68124  0.85993  Biso   1.000  Ne
  He15     1.0000 0.54259  0.67376  0.89144  Biso   1.000  He
  He16     1.0000 0.52038  0.68040  0.79077  Biso   1.000  He
  Ar8      1.0000 0.53814  0.67434  0.84697  Biso   1.000  Ar
