data_image0
_cell_length_a       14.163
_cell_length_b       20.828
_cell_length_c       29.261
_cell_angle_alpha    90
_cell_angle_beta     90
_cell_angle_gamma    90

_symmetry_space_group_name_H-M    "P 1"
_symmetry_int_tables_number       1

loop_
  _symmetry_equiv_pos_as_xyz
  'x, y, z'

loop_
  _atom_site_label
  _atom_site_occupancy
  _atom_site_fract_x
  _atom_site_fract_y
  _atom_site_fract_z
  _atom_site_thermal_displace_type
  _atom_site_B_iso_or_equiv
  _atom_site_type_symbol
  O1       1.0000 0.54360  0.41915  0.52538  Biso   1.000  O
  C1       1.0000 0.52178  0.39308  0.48139  Biso   1.000  C
  C2       1.0000 0.56944  0.37728  0.56181  Biso   1.000  C
  C3       1.0000 0.43458  0.42861  0.46581  Biso   1.000  C
  C4       1.0000 0.60129  0.40210  0.44841  Biso   1.000  C
  H1       1.0000 0.50999  0.34698  0.48399  Biso   1.000  H
  H2       1.0000 0.55998  0.32701  0.55480  Biso   1.000  H
  C5       1.0000 0.50879  0.39428  0.60220  Biso   1.000  C
  O2       1.0000 0.66412  0.38439  0.57206  Biso   1.000  O
  C6       1.0000 0.41093  0.41161  0.41731  Biso   1.000  C
  H3       1.0000 0.45202  0.47998  0.46571  Biso   1.000  H
  O3       1.0000 0.35670  0.41420  0.49492  Biso   1.000  O
  O4       1.0000 0.57283  0.38352  0.40392  Biso   1.000  O
  H4       1.0000 0.62000  0.44699  0.44592  Biso   1.000  H
  C7       1.0000 0.68813  0.36268  0.46010  Biso   1.000  C
  H5       1.0000 0.51402  0.36801  0.62500  Biso   1.000  H
  C8       1.0000 0.53068  0.46231  0.61902  Biso   1.000  C
  O5       1.0000 0.40987  0.39101  0.59109  Biso   1.000  O
  C9       1.0000 0.69138  0.44891  0.58399  Biso   1.000  C
  O6       1.0000 0.33658  0.45170  0.39975  Biso   1.000  O
  C10      1.0000 0.49622  0.41910  0.38649  Biso   1.000  C
  H6       1.0000 0.39003  0.36681  0.41629  Biso   1.000  H
  H7       1.0000 0.37012  0.42361  0.52141  Biso   1.000  H
  H8       1.0000 0.70924  0.37248  0.49079  Biso   1.000  H
  H9       1.0000 0.67330  0.31731  0.45860  Biso   1.000  H
  O7       1.0000 0.76050  0.37790  0.42801  Biso   1.000  O
  H10      1.0000 0.50943  0.49318  0.59591  Biso   1.000  H
  C11      1.0000 0.63553  0.46942  0.62551  Biso   1.000  C
  O8       1.0000 0.48351  0.47470  0.66030  Biso   1.000  O
  C12      1.0000 0.36751  0.33388  0.60329  Biso   1.000  C
  H11      1.0000 0.67203  0.47998  0.55801  Biso   1.000  H
  C13      1.0000 0.79863  0.44771  0.59130  Biso   1.000  C
  C14      1.0000 0.24331  0.42328  0.39859  Biso   1.000  C
  O9       1.0000 0.51952  0.48483  0.38286  Biso   1.000  O
  H12      1.0000 0.48034  0.40268  0.35611  Biso   1.000  H
  C15      1.0000 0.84834  0.35049  0.43980  Biso   1.000  C
  H13      1.0000 0.66003  0.44901  0.65299  Biso   1.000  H
  O10      1.0000 0.64894  0.53630  0.63494  Biso   1.000  O
  H14      1.0000 0.42639  0.47071  0.65651  Biso   1.000  H
  H15      1.0000 0.30262  0.33441  0.59379  Biso   1.000  H
  H16      1.0000 0.37068  0.32869  0.63580  Biso   1.000  H
  H17      1.0000 0.39963  0.29888  0.58870  Biso   1.000  H
  H18      1.0000 0.82991  0.43168  0.56399  Biso   1.000  H
  H19      1.0000 0.82172  0.49059  0.59752  Biso   1.000  H
  O11      1.0000 0.81762  0.40690  0.62869  Biso   1.000  O
  H20      1.0000 0.19918  0.45348  0.38601  Biso   1.000  H
  H21      1.0000 0.22432  0.41199  0.42900  Biso   1.000  H
  H22      1.0000 0.24451  0.38539  0.37979  Biso   1.000  H
  C16      1.0000 0.54318  0.50960  0.33919  Biso   1.000  C
  H23      1.0000 0.89494  0.36240  0.41752  Biso   1.000  H
  H24      1.0000 0.84248  0.30459  0.44069  Biso   1.000  H
  H25      1.0000 0.86733  0.36590  0.46940  Biso   1.000  H
  C17      1.0000 0.71143  0.55329  0.67110  Biso   1.000  C
  C18      1.0000 0.91640  0.40441  0.63720  Biso   1.000  C
  C19      1.0000 0.46593  0.55867  0.32651  Biso   1.000  C
  H26      1.0000 0.54904  0.47599  0.31602  Biso   1.000  H
  C20      1.0000 0.63864  0.54182  0.33902  Biso   1.000  C
  H27      1.0000 0.73000  0.51099  0.68402  Biso   1.000  H
  C21      1.0000 0.65968  0.60011  0.70172  Biso   1.000  C
  O12      1.0000 0.79369  0.57951  0.65374  Biso   1.000  O
  H28      1.0000 0.92840  0.37762  0.66320  Biso   1.000  H
  H29      1.0000 0.93949  0.44690  0.64311  Biso   1.000  H
  H30      1.0000 0.94803  0.38708  0.61092  Biso   1.000  H
  C22      1.0000 0.48853  0.59161  0.28229  Biso   1.000  C
  H31      1.0000 0.46219  0.59108  0.35071  Biso   1.000  H
  O13      1.0000 0.37647  0.52751  0.32275  Biso   1.000  O
  H32      1.0000 0.63800  0.57999  0.36181  Biso   1.000  H
  C23      1.0000 0.72005  0.49731  0.34712  Biso   1.000  C
  O14      1.0000 0.65410  0.56919  0.29404  Biso   1.000  O
  H33      1.0000 0.69103  0.60601  0.73501  Biso   1.000  H
  C24      1.0000 0.64704  0.66468  0.67800  Biso   1.000  C
  O15      1.0000 0.57050  0.57317  0.71382  Biso   1.000  O
  C25      1.0000 0.77759  0.63669  0.62660  Biso   1.000  C
  C26      1.0000 0.58900  0.61758  0.28270  Biso   1.000  C
  H34      1.0000 0.48281  0.56030  0.25741  Biso   1.000  H
  O16      1.0000 0.42378  0.64221  0.27426  Biso   1.000  O
  H35      1.0000 0.36362  0.50989  0.34701  Biso   1.000  H
  H36      1.0000 0.70614  0.46999  0.37309  Biso   1.000  H
  H37      1.0000 0.72831  0.46999  0.32049  Biso   1.000  H
  O17      1.0000 0.80619  0.53207  0.35559  Biso   1.000  O
  H38      1.0000 0.60051  0.65969  0.65340  Biso   1.000  H
  C27      1.0000 0.73770  0.68811  0.65780  Biso   1.000  C
  O18      1.0000 0.61188  0.71087  0.71009  Biso   1.000  O
  C28      1.0000 0.55998  0.55800  0.75941  Biso   1.000  C
  H39      1.0000 0.73600  0.62598  0.60299  Biso   1.000  H
  C29      1.0000 0.87383  0.65350  0.60651  Biso   1.000  C
  O19      1.0000 0.59394  0.66843  0.31455  Biso   1.000  O
  H40      1.0000 0.60418  0.63429  0.25221  Biso   1.000  H
  C30      1.0000 0.37513  0.64039  0.23342  Biso   1.000  C
  C31      1.0000 0.82504  0.55901  0.40040  Biso   1.000  C
  H41      1.0000 0.78599  0.69800  0.68521  Biso   1.000  H
  O20      1.0000 0.71934  0.74549  0.63272  Biso   1.000  O
  C32      1.0000 0.51783  0.71850  0.71149  Biso   1.000  C
  H42      1.0000 0.49502  0.54657  0.76511  Biso   1.000  H
  H43      1.0000 0.57629  0.59449  0.77779  Biso   1.000  H
  H44      1.0000 0.59980  0.52252  0.76699  Biso   1.000  H
  H45      1.0000 0.86818  0.69311  0.58932  Biso   1.000  H
  H46      1.0000 0.91781  0.66099  0.63132  Biso   1.000  H
  O21      1.0000 0.90948  0.60697  0.57852  Biso   1.000  O
  C33      1.0000 0.63094  0.72839  0.30050  Biso   1.000  C
  H47      1.0000 0.33460  0.67721  0.23120  Biso   1.000  H
  H48      1.0000 0.33771  0.60198  0.23212  Biso   1.000  H
  H49      1.0000 0.41919  0.64068  0.20850  Biso   1.000  H
  H50      1.0000 0.88823  0.57620  0.40101  Biso   1.000  H
  H51      1.0000 0.81911  0.52631  0.42319  Biso   1.000  H
  H52      1.0000 0.78091  0.59300  0.40651  Biso   1.000  H
  C34      1.0000 0.76573  0.80161  0.64690  Biso   1.000  C
  H53      1.0000 0.50194  0.75019  0.73401  Biso   1.000  H
  H54      1.0000 0.48853  0.67841  0.71932  Biso   1.000  H
  H55      1.0000 0.49573  0.73238  0.68210  Biso   1.000  H
  C35      1.0000 0.87729  0.61648  0.53351  Biso   1.000  C
  C36      1.0000 0.56069  0.77890  0.31581  Biso   1.000  C
  H56      1.0000 0.63299  0.72700  0.27101  Biso   1.000  H
  C37      1.0000 0.72809  0.73939  0.32019  Biso   1.000  C
  H57      1.0000 0.78903  0.79897  0.67749  Biso   1.000  H
  C38      1.0000 0.69872  0.85851  0.64352  Biso   1.000  C
  O22      1.0000 0.84742  0.81290  0.62069  Biso   1.000  O
  H58      1.0000 0.90348  0.58397  0.51399  Biso   1.000  H
  H59      1.0000 0.89691  0.65810  0.52302  Biso   1.000  H
  H60      1.0000 0.80972  0.61379  0.53289  Biso   1.000  H
  C39      1.0000 0.60121  0.84497  0.30471  Biso   1.000  C
  H61      1.0000 0.54600  0.77501  0.35139  Biso   1.000  H
  O23      1.0000 0.47349  0.77108  0.29251  Biso   1.000  O
  H62      1.0000 0.72499  0.72638  0.35320  Biso   1.000  H
  C40      1.0000 0.80273  0.69599  0.29972  Biso   1.000  C
  O24      1.0000 0.75973  0.80421  0.31113  Biso   1.000  O
  H63      1.0000 0.72972  0.89668  0.65620  Biso   1.000  H
  C41      1.0000 0.67429  0.87070  0.59321  Biso   1.000  C
  O25      1.0000 0.61583  0.84521  0.66918  Biso   1.000  O
  C42      1.0000 0.83132  0.82317  0.57312  Biso   1.000  C
  C43      1.0000 0.69660  0.85260  0.32689  Biso   1.000  C
  H64      1.0000 0.61103  0.84799  0.26992  Biso   1.000  H
  O26      1.0000 0.53774  0.89317  0.32053  Biso   1.000  O
  H65      1.0000 0.47702  0.74030  0.27521  Biso   1.000  H
  H66      1.0000 0.86422  0.70621  0.31229  Biso   1.000  H
  H67      1.0000 0.78853  0.65148  0.30652  Biso   1.000  H
  O27      1.0000 0.80244  0.70640  0.25173  Biso   1.000  O
  H68      1.0000 0.63998  0.83700  0.58170  Biso   1.000  H
  C44      1.0000 0.76559  0.87949  0.56639  Biso   1.000  C
  O28      1.0000 0.61618  0.92659  0.59099  Biso   1.000  O
  C45      1.0000 0.59380  0.88578  0.70251  Biso   1.000  C
  H69      1.0000 0.79990  0.78490  0.56092  Biso   1.000  H
  C46      1.0000 0.92283  0.82960  0.54981  Biso   1.000  C
  O29      1.0000 0.68700  0.84953  0.37477  Biso   1.000  O
  H70      1.0000 0.73099  0.89601  0.31759  Biso   1.000  H
  C47      1.0000 0.51649  0.94157  0.29220  Biso   1.000  C
  C48      1.0000 0.85293  0.65839  0.22689  Biso   1.000  C
  O30      1.0000 0.73713  0.88463  0.51950  Biso   1.000  O
  H71      1.0000 0.79002  0.92601  0.57701  Biso   1.000  H
  H72      1.0000 0.64231  0.95410  0.57541  Biso   1.000  H
  H73      1.0000 0.53753  0.87128  0.71761  Biso   1.000  H
  H74      1.0000 0.58314  0.92769  0.68979  Biso   1.000  H
  H75      1.0000 0.64471  0.88780  0.72410  Biso   1.000  H
  H76      1.0000 0.91125  0.83661  0.51751  Biso   1.000  H
  H77      1.0000 0.95425  0.86758  0.56160  Biso   1.000  H
  O31      1.0000 0.98418  0.77742  0.55439  Biso   1.000  O
  H78      1.0000 0.96350  0.79441  0.55900  Biso   1.000  H
  H79      1.0000 0.91322  0.82668  0.51710  Biso   1.000  H
  O32      1.0000 0.96738  0.88780  0.55999  Biso   1.000  O
  C49      1.0000 0.72831  0.89917  0.40241  Biso   1.000  C
  H80      1.0000 0.47448  0.97090  0.30720  Biso   1.000  H
  H81      1.0000 0.48648  0.92481  0.26530  Biso   1.000  H
  H82      1.0000 0.57340  0.96370  0.28369  Biso   1.000  H
  H83      1.0000 0.85060  0.66819  0.19490  Biso   1.000  H
  H84      1.0000 0.82454  0.61720  0.23219  Biso   1.000  H
  H85      1.0000 0.91739  0.65767  0.23690  Biso   1.000  H
  C50      1.0000 0.77081  0.93768  0.49369  Biso   1.000  C
  C51      1.0000 0.08014  0.78980  0.54691  Biso   1.000  C
  C52      1.0000 0.04999  0.89418  0.53409  Biso   1.000  C
  C53      1.0000 0.65050  0.92491  0.43331  Biso   1.000  C
  H86      1.0000 0.75598  0.93201  0.38239  Biso   1.000  H
  C54      1.0000 0.80993  0.87190  0.43040  Biso   1.000  C
  C55      1.0000 0.68961  0.96879  0.46970  Biso   1.000  C
  O33      1.0000 0.84184  0.91838  0.46283  Biso   1.000  O
  H87      1.0000 0.79799  0.95799  0.51000  Biso   1.000  H
  H88      1.0000 0.11579  0.75110  0.55131  Biso   1.000  H
  H89      1.0000 0.10153  0.82197  0.56799  Biso   1.000  H
  H90      1.0000 0.08889  0.80488  0.51622  Biso   1.000  H
  H91      1.0000 0.08049  0.93398  0.54161  Biso   1.000  H
  H92      1.0000 0.03431  0.89389  0.50220  Biso   1.000  H
  H93      1.0000 0.09179  0.85918  0.54069  Biso   1.000  H
  H94      1.0000 0.61703  0.89000  0.44899  Biso   1.000  H
  O34      1.0000 0.58222  0.95957  0.40703  Biso   1.000  O
  H95      1.0000 0.78599  0.83200  0.44780  Biso   1.000  H
  C56      1.0000 0.89480  0.85601  0.40122  Biso   1.000  C
  O35      1.0000 0.62120  0.98507  0.50306  Biso   1.000  O
  H96      1.0000 0.71200  0.00831  0.45511  Biso   1.000  H
  H97      1.0000 0.59811  0.95981  0.38010  Biso   1.000  H
  H98      1.0000 0.87439  0.82999  0.37559  Biso   1.000  H
  H99      1.0000 0.92064  0.89557  0.38902  Biso   1.000  H
  O36      1.0000 0.96639  0.82317  0.42459  Biso   1.000  O
  C57      1.0000 0.57269  0.04528  0.49619  Biso   1.000  C
  C58      1.0000 0.95693  0.75797  0.42282  Biso   1.000  C
  H100     1.0000 0.52764  0.05171  0.52021  Biso   1.000  H
  H101     1.0000 0.54070  0.04460  0.46731  Biso   1.000  H
  H102     1.0000 0.61774  0.07980  0.49639  Biso   1.000  H
  H103     1.0000 0.95870  0.74409  0.39161  Biso   1.000  H
  H104     1.0000 0.89762  0.74577  0.43621  Biso   1.000  H
  H105     1.0000 0.00748  0.73819  0.43949  Biso   1.000  H
  C59      1.0000 0.55002  0.60577  0.46591  Biso   1.000  C
  O37      1.0000 0.46742  0.61220  0.44001  Biso   1.000  O
  H106     1.0000 0.58053  0.56602  0.45839  Biso   1.000  H
  H107     1.0000 0.53428  0.60611  0.49780  Biso   1.000  H
  H108     1.0000 0.59182  0.64077  0.45931  Biso   1.000  H
  C60      1.0000 0.42279  0.67040  0.45019  Biso   1.000  C
  C61      1.0000 0.33129  0.67678  0.42692  Biso   1.000  C
  H109     1.0000 0.41121  0.66339  0.48249  Biso   1.000  H
  H110     1.0000 0.45421  0.63242  0.43840  Biso   1.000  H
  O38      1.0000 0.48422  0.72258  0.44561  Biso   1.000  O
  H111     1.0000 0.46353  0.70559  0.44100  Biso   1.000  H
  H112     1.0000 0.41319  0.67328  0.48290  Biso   1.000  H
  O39      1.0000 0.34738  0.68710  0.37931  Biso   1.000  O
  C62      1.0000 0.26562  0.62051  0.43361  Biso   1.000  C
  H113     1.0000 0.29994  0.71510  0.43912  Biso   1.000  H
  C63      1.0000 0.58010  0.71020  0.45309  Biso   1.000  C
  C64      1.0000 0.26569  0.69839  0.35310  Biso   1.000  C
  C65      1.0000 0.17433  0.62930  0.40679  Biso   1.000  C
  H114     1.0000 0.28998  0.57399  0.42299  Biso   1.000  H
  O40      1.0000 0.23710  0.61537  0.48050  Biso   1.000  O
  H115     1.0000 0.61583  0.74890  0.44869  Biso   1.000  H
  H116     1.0000 0.60150  0.67798  0.43201  Biso   1.000  H
  H117     1.0000 0.58893  0.69507  0.48382  Biso   1.000  H
  C66      1.0000 0.19869  0.64149  0.35652  Biso   1.000  C
  O41      1.0000 0.21930  0.75451  0.36728  Biso   1.000  O
  H118     1.0000 0.28899  0.70098  0.32251  Biso   1.000  H
  H119     1.0000 0.14001  0.66300  0.41830  Biso   1.000  H
  O42      1.0000 0.11622  0.57341  0.40901  Biso   1.000  O
  C67      1.0000 0.27078  0.56227  0.50631  Biso   1.000  C
  O43      1.0000 0.11579  0.65479  0.33082  Biso   1.000  O
  H120     1.0000 0.22968  0.60327  0.34380  Biso   1.000  H
  C68      1.0000 0.23773  0.81189  0.34220  Biso   1.000  C
  H121     1.0000 0.14227  0.54590  0.42459  Biso   1.000  H
  H122     1.0000 0.29803  0.54201  0.49000  Biso   1.000  H
  C69      1.0000 0.18958  0.53121  0.53030  Biso   1.000  C
  O44      1.0000 0.34181  0.58157  0.53717  Biso   1.000  O
  C70      1.0000 0.09384  0.61417  0.29749  Biso   1.000  C
  C71      1.0000 0.14700  0.83527  0.32200  Biso   1.000  C
  H123     1.0000 0.28603  0.80200  0.31479  Biso   1.000  H
  C72      1.0000 0.27762  0.86331  0.37340  Biso   1.000  C
  H124     1.0000 0.21203  0.49169  0.54489  Biso   1.000  H
  C73      1.0000 0.15053  0.57509  0.56669  Biso   1.000  C
  O45      1.0000 0.12123  0.51488  0.49694  Biso   1.000  O
  C74      1.0000 0.30989  0.62810  0.56960  Biso   1.000  C
  H125     1.0000 0.03749  0.62867  0.28239  Biso   1.000  H
  H126     1.0000 0.08310  0.57231  0.31021  Biso   1.000  H
  H127     1.0000 0.14467  0.61220  0.27590  Biso   1.000  H
  C75      1.0000 0.15971  0.89989  0.29832  Biso   1.000  C
  H128     1.0000 0.10047  0.84031  0.34660  Biso   1.000  H
  O46      1.0000 0.11191  0.78908  0.28991  Biso   1.000  O
  H129     1.0000 0.23604  0.87397  0.39701  Biso   1.000  H
  C76      1.0000 0.37379  0.84650  0.39349  Biso   1.000  C
  O47      1.0000 0.29372  0.92049  0.34626  Biso   1.000  O
  H130     1.0000 0.11699  0.61000  0.55101  Biso   1.000  H
  C77      1.0000 0.22827  0.60078  0.59759  Biso   1.000  C
  O48      1.0000 0.08219  0.54038  0.59297  Biso   1.000  O
  C78      1.0000 0.07272  0.45468  0.50381  Biso   1.000  C
  H131     1.0000 0.28603  0.66800  0.55220  Biso   1.000  H
  C79      1.0000 0.39483  0.64399  0.59882  Biso   1.000  C
  C80      1.0000 0.21140  0.94671  0.32890  Biso   1.000  C
  H132     1.0000 0.19099  0.89399  0.26499  Biso   1.000  H
  O49      1.0000 0.07054  0.92678  0.28622  Biso   1.000  O
  C81      1.0000 0.01779  0.78150  0.28851  Biso   1.000  C
  H133     1.0000 0.36821  0.80689  0.41072  Biso   1.000  H
  H134     1.0000 0.41778  0.83901  0.36872  Biso   1.000  H
  O50      1.0000 0.40952  0.89298  0.42152  Biso   1.000  O
  H135     1.0000 0.25602  0.56799  0.61761  Biso   1.000  H
  O51      1.0000 0.18704  0.65047  0.62523  Biso   1.000  O
  H136     1.0000 0.09807  0.54019  0.61990  Biso   1.000  H
  H137     1.0000 0.02761  0.44829  0.47979  Biso   1.000  H
  H138     1.0000 0.04067  0.45540  0.53269  Biso   1.000  H
  H139     1.0000 0.11770  0.42020  0.50361  Biso   1.000  H
  H140     1.0000 0.37443  0.67001  0.62441  Biso   1.000  H
  H141     1.0000 0.42060  0.60438  0.61102  Biso   1.000  H
  O52      1.0000 0.46643  0.67678  0.57541  Biso   1.000  O
  O53      1.0000 0.14891  0.96370  0.36506  Biso   1.000  O
  H142     1.0000 0.23004  0.98901  0.31602  Biso   1.000  H
  C82      1.0000 0.06002  0.94200  0.24059  Biso   1.000  C
  H143     1.0000 0.00191  0.74981  0.26599  Biso   1.000  H
  H144     1.0000 0.98849  0.82159  0.28071  Biso   1.000  H
  H145     1.0000 0.99569  0.76757  0.31790  Biso   1.000  H
  C83      1.0000 0.37732  0.88347  0.46649  Biso   1.000  C
  C84      1.0000 0.19657  0.64740  0.67311  Biso   1.000  C
  C85      1.0000 0.45689  0.74198  0.57722  Biso   1.000  C
  C86      1.0000 0.13549  0.03058  0.37449  Biso   1.000  C
  H146     1.0000 0.07633  0.90551  0.22221  Biso   1.000  H
  H147     1.0000 0.09977  0.97748  0.23301  Biso   1.000  H
  H148     1.0000 0.99499  0.95338  0.23489  Biso   1.000  H
  H149     1.0000 0.40352  0.91598  0.48601  Biso   1.000  H
  H150     1.0000 0.39688  0.84190  0.47702  Biso   1.000  H
  H151     1.0000 0.30968  0.88621  0.46711  Biso   1.000  H
  H152     1.0000 0.23102  0.60399  0.68241  Biso   1.000  H
  C87      1.0000 0.10118  0.65498  0.69529  Biso   1.000  C
  O54      1.0000 0.25969  0.69579  0.68887  Biso   1.000  O
  H153     1.0000 0.50752  0.76181  0.56051  Biso   1.000  H
  H154     1.0000 0.45873  0.75591  0.60839  Biso   1.000  H
  H155     1.0000 0.39759  0.75418  0.56379  Biso   1.000  H
  C88      1.0000 0.03071  0.03769  0.38098  Biso   1.000  C
  H156     1.0000 0.15999  0.05099  0.34701  Biso   1.000  H
  C89      1.0000 0.19141  0.05109  0.41601  Biso   1.000  C
  H157     1.0000 0.11099  0.65201  0.73012  Biso   1.000  H
  C90      1.0000 0.06072  0.72110  0.68419  Biso   1.000  C
  O55      1.0000 0.03770  0.60678  0.67947  Biso   1.000  O
  C91      1.0000 0.22813  0.76061  0.67981  Biso   1.000  C
  O56      1.0000 0.98348  0.02530  0.33970  Biso   1.000  O
  C92      1.0000 0.00883  0.10568  0.39780  Biso   1.000  C
  H158     1.0000 0.00939  0.00677  0.40409  Biso   1.000  H
  H159     1.0000 0.17200  0.01997  0.44199  Biso   1.000  H
  C93      1.0000 0.29859  0.05229  0.40870  Biso   1.000  C
  O57      1.0000 0.16409  0.11557  0.42794  Biso   1.000  O
  H160     1.0000 0.04604  0.72499  0.64861  Biso   1.000  H
  C94      1.0000 0.13090  0.77161  0.69950  Biso   1.000  C
  O58      1.0000 0.97352  0.72887  0.70749  Biso   1.000  O
  C95      1.0000 0.01652  0.55838  0.70780  Biso   1.000  C
  H161     1.0000 0.22502  0.77357  0.64680  Biso   1.000  H
  C96      1.0000 0.30269  0.80401  0.70032  Biso   1.000  C
  H162     1.0000 0.92643  0.02929  0.34349  Biso   1.000  H
  O59      1.0000 0.90991  0.10899  0.40891  Biso   1.000  O
  C97      1.0000 0.06941  0.12267  0.43819  Biso   1.000  C
  H163     1.0000 0.01398  0.13199  0.37500  Biso   1.000  H
  H164     1.0000 0.32987  0.06827  0.43601  Biso   1.000  H
  H165     1.0000 0.32168  0.00941  0.40252  Biso   1.000  H
  O60      1.0000 0.31759  0.09310  0.37131  Biso   1.000  O
  H166     1.0000 0.13302  0.77300  0.72899  Biso   1.000  H
  O61      1.0000 0.09391  0.83157  0.68545  Biso   1.000  O
  H167     1.0000 0.97698  0.75970  0.72479  Biso   1.000  H
  H168     1.0000 0.07343  0.53630  0.71631  Biso   1.000  H
  H169     1.0000 0.97451  0.52910  0.69280  Biso   1.000  H
  H170     1.0000 0.98651  0.57519  0.73470  Biso   1.000  H
  H171     1.0000 0.36419  0.79379  0.68771  Biso   1.000  H
  H172     1.0000 0.28850  0.84847  0.69352  Biso   1.000  H
  O62      1.0000 0.30241  0.79360  0.74827  Biso   1.000  O
  C98      1.0000 0.86747  0.16607  0.39671  Biso   1.000  C
  H173     1.0000 0.06002  0.17299  0.44520  Biso   1.000  H
  O63      1.0000 0.04363  0.08085  0.47462  Biso   1.000  O
  C99      1.0000 0.41644  0.09559  0.36280  Biso   1.000  C
  C100     1.0000 0.08903  0.88237  0.71730  Biso   1.000  C
  C101     1.0000 0.35289  0.84161  0.77311  Biso   1.000  C
  H174     1.0000 0.80258  0.16559  0.40621  Biso   1.000  H
  H175     1.0000 0.87072  0.17131  0.36420  Biso   1.000  H
  H176     1.0000 0.89960  0.20108  0.41130  Biso   1.000  H
  C102     1.0000 0.02182  0.10688  0.51861  Biso   1.000  C
  H177     1.0000 0.42844  0.12238  0.33680  Biso   1.000  H
  H178     1.0000 0.43953  0.05310  0.35689  Biso   1.000  H
  H179     1.0000 0.44800  0.11288  0.38908  Biso   1.000  H
  H180     1.0000 0.10422  0.86571  0.74779  Biso   1.000  H
  O64      1.0000 0.15413  0.93081  0.70596  Biso   1.000  O
  C103     1.0000 0.98849  0.90839  0.71771  Biso   1.000  C
  H181     1.0000 0.35063  0.83181  0.80510  Biso   1.000  H
  H182     1.0000 0.32451  0.88280  0.76781  Biso   1.000  H
  H183     1.0000 0.41743  0.84228  0.76310  Biso   1.000  H
  C104     1.0000 0.93462  0.07139  0.53419  Biso   1.000  C
  H184     1.0000 0.01003  0.15297  0.51601  Biso   1.000  H
  C105     1.0000 0.10132  0.09790  0.55159  Biso   1.000  C
  C106     1.0000 0.13860  0.95818  0.66102  Biso   1.000  C
  H185     1.0000 0.98277  0.93970  0.74259  Biso   1.000  H
  C107     1.0000 0.96590  0.94128  0.67349  Biso   1.000  C
  O65      1.0000 0.92382  0.85779  0.72574  Biso   1.000  O
  C108     1.0000 0.91089  0.08839  0.58269  Biso   1.000  C
  H186     1.0000 0.95199  0.01997  0.53429  Biso   1.000  H
  O66      1.0000 0.85667  0.08580  0.50508  Biso   1.000  O
  H187     1.0000 0.12003  0.05301  0.55412  Biso   1.000  H
  C109     1.0000 0.18810  0.13727  0.53990  Biso   1.000  C
  O67      1.0000 0.07280  0.11648  0.59612  Biso   1.000  O
  C110     1.0000 0.04321  0.99040  0.66081  Biso   1.000  C
  H188     1.0000 0.13804  0.92001  0.63819  Biso   1.000  H
  C111     1.0000 0.22001  0.00269  0.65292  Biso   1.000  C
  H189     1.0000 0.96223  0.90887  0.64929  Biso   1.000  H
  O68      1.0000 0.87651  0.97249  0.67725  Biso   1.000  O
  C112     1.0000 0.87510  0.85961  0.76662  Biso   1.000  C
  C113     1.0000 0.99619  0.08090  0.61351  Biso   1.000  C
  H190     1.0000 0.89000  0.13319  0.58371  Biso   1.000  H
  O69      1.0000 0.83662  0.04830  0.60025  Biso   1.000  O
  H191     1.0000 0.87008  0.07639  0.47859  Biso   1.000  H
  H192     1.0000 0.20921  0.12747  0.50921  Biso   1.000  H
  H193     1.0000 0.17327  0.18269  0.54140  Biso   1.000  H
  O70      1.0000 0.26054  0.12210  0.57199  Biso   1.000  O
  O71      1.0000 0.01949  0.01517  0.61714  Biso   1.000  O
  H194     1.0000 0.04900  0.02401  0.68402  Biso   1.000  H
  O72      1.0000 0.30622  0.96788  0.64441  Biso   1.000  O
  H195     1.0000 0.20610  0.03001  0.62691  Biso   1.000  H
  H196     1.0000 0.22827  0.03001  0.67951  Biso   1.000  H
  H197     1.0000 0.86359  0.99011  0.65299  Biso   1.000  H
  H198     1.0000 0.83457  0.82279  0.76880  Biso   1.000  H
  H199     1.0000 0.83768  0.89797  0.76792  Biso   1.000  H
  H200     1.0000 0.91923  0.85928  0.79150  Biso   1.000  H
  H201     1.0000 0.98030  0.09727  0.64389  Biso   1.000  H
  C114     1.0000 0.74327  0.07668  0.60141  Biso   1.000  C
  C115     1.0000 0.34830  0.14951  0.56020  Biso   1.000  C
  C116     1.0000 0.32500  0.94099  0.59960  Biso   1.000  C
  H202     1.0000 0.69922  0.04648  0.61399  Biso   1.000  H
  H203     1.0000 0.72428  0.08801  0.57100  Biso   1.000  H
  H204     1.0000 0.74448  0.11461  0.62021  Biso   1.000  H
  H205     1.0000 0.39490  0.13760  0.58252  Biso   1.000  H
  H206     1.0000 0.34251  0.19541  0.55931  Biso   1.000  H
  H207     1.0000 0.36730  0.13410  0.53060  Biso   1.000  H
  H208     1.0000 0.38819  0.92380  0.59899  Biso   1.000  H
  H209     1.0000 0.31907  0.97369  0.57681  Biso   1.000  H
  H210     1.0000 0.28087  0.90700  0.59349  Biso   1.000  H
  C117     1.0000 0.64711  0.34161  0.72691  Biso   1.000  C
  H211     1.0000 0.64944  0.33181  0.69492  Biso   1.000  H
  H212     1.0000 0.67549  0.38280  0.73220  Biso   1.000  H
  H213     1.0000 0.58257  0.34228  0.73692  Biso   1.000  H
  O73      1.0000 0.69759  0.29360  0.75172  Biso   1.000  O
  C118     1.0000 0.69731  0.30401  0.79970  Biso   1.000  C
  C119     1.0000 0.77194  0.26061  0.82020  Biso   1.000  C
  H214     1.0000 0.63581  0.29379  0.81231  Biso   1.000  H
  H215     1.0000 0.71150  0.34847  0.80650  Biso   1.000  H
  C120     1.0000 0.86910  0.27161  0.80052  Biso   1.000  C
  H216     1.0000 0.77498  0.27357  0.85322  Biso   1.000  H
  O74      1.0000 0.74031  0.19579  0.81111  Biso   1.000  O
  C121     1.0000 0.93928  0.22110  0.81580  Biso   1.000  C
  H217     1.0000 0.86698  0.27300  0.77099  Biso   1.000  H
  O75      1.0000 0.90609  0.33157  0.81457  Biso   1.000  O
  C122     1.0000 0.80343  0.14740  0.82690  Biso   1.000  C
  C123     1.0000 0.89882  0.15498  0.80469  Biso   1.000  C
  H218     1.0000 0.95404  0.22499  0.85141  Biso   1.000  H
  O76      1.0000 0.02655  0.22887  0.79252  Biso   1.000  O
  C124     1.0000 0.91104  0.38242  0.78271  Biso   1.000  C
  O77      1.0000 0.81303  0.15047  0.87478  Biso   1.000  O
  H219     1.0000 0.76905  0.10399  0.81761  Biso   1.000  H
  H220     1.0000 0.88901  0.15201  0.76990  Biso   1.000  H
  O78      1.0000 0.96230  0.10678  0.82051  Biso   1.000  O
  H221     1.0000 0.02302  0.25970  0.77520  Biso   1.000  H
  H222     1.0000 0.89578  0.36571  0.75220  Biso   1.000  H
  O79      1.0000 0.84594  0.43081  0.79406  Biso   1.000  O
  C125     1.0000 0.01151  0.40839  0.78230  Biso   1.000  C
  C126     1.0000 0.77173  0.10078  0.90240  Biso   1.000  C
  C127     1.0000 0.98355  0.05838  0.79221  Biso   1.000  C
  C128     1.0000 0.86140  0.45818  0.83900  Biso   1.000  C
  H223     1.0000 0.01723  0.43970  0.75739  Biso   1.000  H
  C129     1.0000 0.03410  0.44128  0.82649  Biso   1.000  C
  O80      1.0000 0.07618  0.35779  0.77427  Biso   1.000  O
  C130     1.0000 0.84954  0.07509  0.93329  Biso   1.000  C
  H224     1.0000 0.74398  0.06799  0.88240  Biso   1.000  H
  C131     1.0000 0.69011  0.12810  0.93042  Biso   1.000  C
  H225     1.0000 0.92664  0.03630  0.78371  Biso   1.000  H
  H226     1.0000 0.02549  0.02910  0.80722  Biso   1.000  H
  H227     1.0000 0.01349  0.07519  0.76532  Biso   1.000  H
  C132     1.0000 0.95679  0.49040  0.83921  Biso   1.000  C
  H228     1.0000 0.86203  0.42001  0.86180  Biso   1.000  H
  C133     1.0000 0.77999  0.50269  0.84710  Biso   1.000  C
  H229     1.0000 0.03785  0.40887  0.85069  Biso   1.000  H
  O81      1.0000 0.12349  0.47249  0.82273  Biso   1.000  O
  C134     1.0000 0.12490  0.35961  0.73340  Biso   1.000  C
  C135     1.0000 0.81042  0.03121  0.96969  Biso   1.000  C
  H230     1.0000 0.88301  0.11000  0.94901  Biso   1.000  H
  O82      1.0000 0.91781  0.04038  0.90701  Biso   1.000  O
  H231     1.0000 0.71404  0.16800  0.94781  Biso   1.000  H
  C136     1.0000 0.60524  0.14399  0.90120  Biso   1.000  C
  O83      1.0000 0.65819  0.08162  0.96285  Biso   1.000  O
  H232     1.0000 0.95100  0.52401  0.81600  Biso   1.000  H
  O84      1.0000 0.98051  0.51517  0.88285  Biso   1.000  O
  H233     1.0000 0.79390  0.53001  0.87311  Biso   1.000  H
  H234     1.0000 0.77173  0.53001  0.82051  Biso   1.000  H
  O85      1.0000 0.69378  0.46788  0.85561  Biso   1.000  O
  H235     1.0000 0.13641  0.49011  0.84700  Biso   1.000  H
  H236     1.0000 0.16543  0.32279  0.73121  Biso   1.000  H
  H237     1.0000 0.16232  0.39797  0.73210  Biso   1.000  H
  H238     1.0000 0.08084  0.35928  0.70849  Biso   1.000  H
  C137     1.0000 0.72922  0.06232  0.99371  Biso   1.000  C
  H239     1.0000 0.78804  0.99169  0.95509  Biso   1.000  H
  O86      1.0000 0.87884  0.01488  0.00304  Biso   1.000  O
  H240     1.0000 0.90193  0.04019  0.88011  Biso   1.000  H
  H241     1.0000 0.62557  0.17001  0.87560  Biso   1.000  H
  H242     1.0000 0.57940  0.10438  0.88900  Biso   1.000  H
  O87      1.0000 0.53357  0.17678  0.92461  Biso   1.000  O
  C138     1.0000 0.00381  0.58090  0.88650  Biso   1.000  C
  C139     1.0000 0.67500  0.44099  0.90041  Biso   1.000  C
  O88      1.0000 0.76290  0.11537  0.01951  Biso   1.000  O
  H243     1.0000 0.70204  0.04201  0.01001  Biso   1.000  H
  C140     1.0000 0.92735  0.95472  0.99621  Biso   1.000  C
  C141     1.0000 0.54311  0.24198  0.92280  Biso   1.000  C
  O89      1.0000 0.92720  0.61648  0.90390  Biso   1.000  O
  H244     1.0000 0.01970  0.59727  0.85609  Biso   1.000  H
  C142     1.0000 0.08911  0.58839  0.91730  Biso   1.000  C
  H245     1.0000 0.61181  0.42380  0.90099  Biso   1.000  H
  H246     1.0000 0.68093  0.47369  0.92321  Biso   1.000  H
  H247     1.0000 0.71913  0.40700  0.90650  Biso   1.000  H
  C143     1.0000 0.73438  0.12051  0.06640  Biso   1.000  C
  H248     1.0000 0.95933  0.95540  0.96729  Biso   1.000  H
  H249     1.0000 0.88230  0.92020  0.99641  Biso   1.000  H
  H250     1.0000 0.97239  0.94829  0.02020  Biso   1.000  H
  H251     1.0000 0.49248  0.26181  0.93951  Biso   1.000  H
  H252     1.0000 0.54134  0.25591  0.89160  Biso   1.000  H
  H253     1.0000 0.60241  0.25418  0.93619  Biso   1.000  H
  C144     1.0000 0.89868  0.59790  0.94840  Biso   1.000  C
  H254     1.0000 0.11000  0.63319  0.91630  Biso   1.000  H
  C145     1.0000 0.06538  0.57139  0.96579  Biso   1.000  C
  O90      1.0000 0.16338  0.54830  0.89976  Biso   1.000  O
  C146     1.0000 0.82574  0.12930  0.09320  Biso   1.000  C
  H255     1.0000 0.71002  0.07399  0.07700  Biso   1.000  H
  C147     1.0000 0.66871  0.17678  0.07310  Biso   1.000  C
  C148     1.0000 0.97818  0.60688  0.98141  Biso   1.000  C
  H256     1.0000 0.88004  0.55301  0.94590  Biso   1.000  H
  C149     1.0000 0.81190  0.63732  0.96012  Biso   1.000  C
  H257     1.0000 0.04801  0.51997  0.96569  Biso   1.000  H
  O91      1.0000 0.14333  0.58580  0.99494  Biso   1.000  O
  C150     1.0000 0.25673  0.57668  0.89860  Biso   1.000  C
  C151     1.0000 0.80131  0.14149  0.14350  Biso   1.000  C
  H258     1.0000 0.85999  0.16300  0.08171  Biso   1.000  H
  O92      1.0000 0.88378  0.07341  0.09101  Biso   1.000  O
  H259     1.0000 0.70013  0.21510  0.06090  Biso   1.000  H
  C152     1.0000 0.57721  0.17040  0.04979  Biso   1.000  C
  O93      1.0000 0.65262  0.18710  0.12067  Biso   1.000  O
  H260     1.0000 0.99004  0.65302  0.98401  Biso   1.000  H
  O94      1.0000 0.95644  0.58085  0.02539  Biso   1.000  O
  H261     1.0000 0.79079  0.62747  0.99081  Biso   1.000  H
  H262     1.0000 0.82673  0.68269  0.95861  Biso   1.000  H
  O95      1.0000 0.73953  0.62210  0.92799  Biso   1.000  O
  H263     1.0000 0.12992  0.57639  0.02139  Biso   1.000  H
  H264     1.0000 0.30078  0.54648  0.88599  Biso   1.000  H
  H265     1.0000 0.27572  0.58801  0.92902  Biso   1.000  H
  H266     1.0000 0.25552  0.61461  0.87981  Biso   1.000  H
  C153     1.0000 0.73431  0.19839  0.14692  Biso   1.000  C
  H267     1.0000 0.77032  0.10332  0.15621  Biso   1.000  H
  O96      1.0000 0.88421  0.15479  0.16920  Biso   1.000  O
  H268     1.0000 0.85773  0.04590  0.07539  Biso   1.000  H
  H269     1.0000 0.58879  0.16339  0.01750  Biso   1.000  H
  H270     1.0000 0.54579  0.13242  0.06162  Biso   1.000  H
  O97      1.0000 0.51578  0.22258  0.05441  Biso   1.000  O
  H271     1.0000 0.53654  0.20559  0.05899  Biso   1.000  H
  H272     1.0000 0.58681  0.17328  0.01709  Biso   1.000  H
  O98      1.0000 0.53258  0.11220  0.06001  Biso   1.000  O
  C154     1.0000 0.93059  0.62267  0.06179  Biso   1.000  C
  C155     1.0000 0.65170  0.64951  0.93982  Biso   1.000  C
  O99      1.0000 0.78070  0.25451  0.13270  Biso   1.000  O
  H273     1.0000 0.71101  0.20098  0.17751  Biso   1.000  H
  C156     1.0000 0.90623  0.11422  0.20249  Biso   1.000  C
  C157     1.0000 0.41990  0.21020  0.04689  Biso   1.000  C
  C158     1.0000 0.44998  0.10582  0.03411  Biso   1.000  C
  H274     1.0000 0.93998  0.67299  0.05482  Biso   1.000  H
  C159     1.0000 0.99124  0.60568  0.10222  Biso   1.000  C
  O100     1.0000 0.83591  0.61557  0.07208  Biso   1.000  O
  H275     1.0000 0.60510  0.63760  0.91750  Biso   1.000  H
  H276     1.0000 0.65749  0.69541  0.94071  Biso   1.000  H
  H277     1.0000 0.63270  0.63410  0.96941  Biso   1.000  H
  C160     1.0000 0.76234  0.31189  0.15782  Biso   1.000  C
  H278     1.0000 0.96251  0.12872  0.21759  Biso   1.000  H
  H279     1.0000 0.91690  0.07231  0.18981  Biso   1.000  H
  H280     1.0000 0.85533  0.11220  0.22412  Biso   1.000  H
  H281     1.0000 0.38424  0.24890  0.05130  Biso   1.000  H
  H282     1.0000 0.39850  0.17798  0.06801  Biso   1.000  H
  H283     1.0000 0.41107  0.19512  0.01620  Biso   1.000  H
  H284     1.0000 0.41947  0.06602  0.04159  Biso   1.000  H
  H285     1.0000 0.46572  0.10611  0.00219  Biso   1.000  H
  H286     1.0000 0.40818  0.14082  0.04070  Biso   1.000  H
  H287     1.0000 0.98602  0.63199  0.12501  Biso   1.000  H
  C161     1.0000 0.96929  0.53769  0.11900  Biso   1.000  C
  O101     1.0000 0.09009  0.60899  0.09111  Biso   1.000  O
  C162     1.0000 0.80859  0.55109  0.08400  Biso   1.000  C
  C163     1.0000 0.85300  0.33532  0.17802  Biso   1.000  C
  H288     1.0000 0.71404  0.30200  0.18520  Biso   1.000  H
  C164     1.0000 0.72238  0.36331  0.12662  Biso   1.000  C
  H289     1.0000 0.99061  0.50682  0.09590  Biso   1.000  H
  C165     1.0000 0.86451  0.53058  0.12549  Biso   1.000  C
  O102     1.0000 0.01652  0.52530  0.16032  Biso   1.000  O
  C166     1.0000 0.13253  0.66607  0.10331  Biso   1.000  C
  H290     1.0000 0.82800  0.51997  0.05800  Biso   1.000  H
  C167     1.0000 0.70141  0.55229  0.09132  Biso   1.000  C
  C168     1.0000 0.84029  0.39989  0.20170  Biso   1.000  C
  H291     1.0000 0.89953  0.34031  0.15341  Biso   1.000  H
  O103     1.0000 0.88809  0.28908  0.21011  Biso   1.000  O
  H292     1.0000 0.76403  0.37402  0.10300  Biso   1.000  H
  C169     1.0000 0.62621  0.34650  0.10649  Biso   1.000  C
  O104     1.0000 0.70628  0.42049  0.15375  Biso   1.000  O
  H293     1.0000 0.84001  0.55099  0.15300  Biso   1.000  H
  O105     1.0000 0.85109  0.46370  0.13496  Biso   1.000  O
  H294     1.0000 0.07364  0.52929  0.15649  Biso   1.000  H
  H295     1.0000 0.19742  0.66559  0.09381  Biso   1.000  H
  H296     1.0000 0.12935  0.67131  0.13581  Biso   1.000  H
  H297     1.0000 0.10040  0.70108  0.08872  Biso   1.000  H
  H298     1.0000 0.67013  0.56827  0.06401  Biso   1.000  H
  H299     1.0000 0.67832  0.50941  0.09750  Biso   1.000  H
  O106     1.0000 0.68241  0.59310  0.12870  Biso   1.000  O
  C170     1.0000 0.78860  0.44671  0.17112  Biso   1.000  C
  H300     1.0000 0.80901  0.39399  0.23499  Biso   1.000  H
  O107     1.0000 0.92953  0.42678  0.21380  Biso   1.000  O
  C171     1.0000 0.98221  0.28150  0.21151  Biso   1.000  C
  H301     1.0000 0.63179  0.30689  0.08930  Biso   1.000  H
  H302     1.0000 0.58222  0.33901  0.13130  Biso   1.000  H
  O108     1.0000 0.59048  0.39298  0.07850  Biso   1.000  O
  C172     1.0000 0.58363  0.59559  0.13721  Biso   1.000  C
  H303     1.0000 0.77003  0.48901  0.18400  Biso   1.000  H
  C173     1.0000 0.93998  0.44200  0.25939  Biso   1.000  C
  H304     1.0000 0.99809  0.24981  0.23400  Biso   1.000  H
  H305     1.0000 0.01151  0.32159  0.21930  Biso   1.000  H
  H306     1.0000 0.00431  0.26762  0.18209  Biso   1.000  H
  C174     1.0000 0.62268  0.38347  0.03349  Biso   1.000  C
  H307     1.0000 0.57163  0.62238  0.16322  Biso   1.000  H
  H308     1.0000 0.56047  0.55310  0.14309  Biso   1.000  H
  H309     1.0000 0.55200  0.61288  0.11090  Biso   1.000  H
  H310     1.0000 0.92374  0.40551  0.27781  Biso   1.000  H
  H311     1.0000 0.90023  0.47748  0.26701  Biso   1.000  H
  H312     1.0000 0.00501  0.45338  0.26510  Biso   1.000  H
  H313     1.0000 0.59648  0.41598  0.01401  Biso   1.000  H
  H314     1.0000 0.60312  0.34190  0.02300  Biso   1.000  H
  H315     1.0000 0.69032  0.38621  0.03291  Biso   1.000  H
  C175     1.0000 0.48351  0.44162  0.20779  Biso   1.000  C
  O109     1.0000 0.46233  0.39317  0.17949  Biso   1.000  O
  H316     1.0000 0.52552  0.47090  0.19282  Biso   1.000  H
  H317     1.0000 0.51352  0.42481  0.23472  Biso   1.000  H
  H318     1.0000 0.42660  0.46370  0.21629  Biso   1.000  H
  C176     1.0000 0.39879  0.34502  0.19531  Biso   1.000  C
  C177     1.0000 0.43931  0.27890  0.18420  Biso   1.000  C
  C178     1.0000 0.30340  0.35260  0.17310  Biso   1.000  C
  H319     1.0000 0.38897  0.34799  0.23010  Biso   1.000  H
  C179     1.0000 0.36913  0.22839  0.19951  Biso   1.000  C
  H320     1.0000 0.45400  0.27501  0.14859  Biso   1.000  H
  O110     1.0000 0.52651  0.27108  0.20748  Biso   1.000  O
  O111     1.0000 0.24027  0.30421  0.18889  Biso   1.000  O
  O112     1.0000 0.31300  0.34953  0.12522  Biso   1.000  O
  H321     1.0000 0.26901  0.39601  0.18239  Biso   1.000  H
  C180     1.0000 0.27191  0.23939  0.17980  Biso   1.000  C
  H322     1.0000 0.36701  0.22700  0.22901  Biso   1.000  H
  O113     1.0000 0.40613  0.16843  0.18543  Biso   1.000  O
  H323     1.0000 0.52298  0.24030  0.22480  Biso   1.000  H
  C181     1.0000 0.27169  0.39917  0.09760  Biso   1.000  C
  C182     1.0000 0.19727  0.19599  0.20030  Biso   1.000  C
  H324     1.0000 0.27501  0.22638  0.14682  Biso   1.000  H
  C183     1.0000 0.41100  0.11758  0.21729  Biso   1.000  C
  C184     1.0000 0.34950  0.42491  0.06671  Biso   1.000  C
  H325     1.0000 0.24402  0.43201  0.11760  Biso   1.000  H
  C185     1.0000 0.19007  0.37190  0.06961  Biso   1.000  C
  O114     1.0000 0.19763  0.20640  0.24828  Biso   1.000  O
  H326     1.0000 0.13578  0.20621  0.18769  Biso   1.000  H
  H327     1.0000 0.21154  0.15148  0.19350  Biso   1.000  H
  H328     1.0000 0.39582  0.13429  0.24780  Biso   1.000  H
  C186     1.0000 0.51147  0.09161  0.21770  Biso   1.000  C
  O115     1.0000 0.34590  0.06919  0.20594  Biso   1.000  O
  C187     1.0000 0.31039  0.46879  0.03031  Biso   1.000  C
  H329     1.0000 0.38304  0.39000  0.05099  Biso   1.000  H
  O116     1.0000 0.41778  0.45957  0.09299  Biso   1.000  O
  H330     1.0000 0.21401  0.33200  0.05219  Biso   1.000  H
  C188     1.0000 0.10520  0.35601  0.09880  Biso   1.000  C
  O117     1.0000 0.15823  0.41838  0.03715  Biso   1.000  O
  C189     1.0000 0.14707  0.15839  0.27309  Biso   1.000  C
  H331     1.0000 0.51719  0.06030  0.24261  Biso   1.000  H
  C190     1.0000 0.53414  0.05872  0.17351  Biso   1.000  C
  O118     1.0000 0.57622  0.14221  0.22573  Biso   1.000  O
  C191     1.0000 0.36143  0.04182  0.16100  Biso   1.000  C
  C192     1.0000 0.22919  0.43768  0.00629  Biso   1.000  C
  H332     1.0000 0.28800  0.50831  0.04491  Biso   1.000  H
  O119     1.0000 0.37880  0.48512  0.99696  Biso   1.000  O
  H333     1.0000 0.40189  0.45981  0.11989  Biso   1.000  H
  H334     1.0000 0.12561  0.32999  0.12440  Biso   1.000  H
  H335     1.0000 0.07943  0.39557  0.11100  Biso   1.000  H
  O120     1.0000 0.03361  0.32322  0.07539  Biso   1.000  O
  H336     1.0000 0.14940  0.16819  0.30512  Biso   1.000  H
  H337     1.0000 0.17553  0.11720  0.26780  Biso   1.000  H
  H338     1.0000 0.08261  0.15772  0.26311  Biso   1.000  H
  H339     1.0000 0.53781  0.09108  0.14931  Biso   1.000  H
  C193     1.0000 0.45682  0.00960  0.16079  Biso   1.000  C
  O121     1.0000 0.62353  0.02751  0.17727  Biso   1.000  O
  C194     1.0000 0.62494  0.14039  0.26660  Biso   1.000  C
  H340     1.0000 0.36200  0.07999  0.13820  Biso   1.000  H
  C195     1.0000 0.28003  0.99731  0.15290  Biso   1.000  C
  O122     1.0000 0.26294  0.38463  0.98049  Biso   1.000  O
  H341     1.0000 0.20201  0.45799  0.98999  Biso   1.000  H
  C196     1.0000 0.42731  0.54528  0.00379  Biso   1.000  C
  C197     1.0000 0.04307  0.25802  0.07720  Biso   1.000  C
  H342     1.0000 0.45103  0.97599  0.18400  Biso   1.000  H
  O123     1.0000 0.48048  0.98483  0.11715  Biso   1.000  O
  H343     1.0000 0.63638  0.00989  0.15300  Biso   1.000  H
  H344     1.0000 0.66540  0.17721  0.26879  Biso   1.000  H
  H345     1.0000 0.66229  0.10198  0.26790  Biso   1.000  H
  H346     1.0000 0.58081  0.14068  0.29151  Biso   1.000  H
  O124     1.0000 0.19381  0.03212  0.14439  Biso   1.000  O
  H347     1.0000 0.29393  0.96999  0.12689  Biso   1.000  H
  H348     1.0000 0.27169  0.96999  0.17949  Biso   1.000  H
  C198     1.0000 0.23441  0.37949  0.93360  Biso   1.000  C
  H349     1.0000 0.45930  0.54460  0.03271  Biso   1.000  H
  H350     1.0000 0.38233  0.57980  0.00359  Biso   1.000  H
  H351     1.0000 0.47243  0.55171  0.97980  Biso   1.000  H
  H352     1.0000 0.04130  0.24409  0.10840  Biso   1.000  H
  H353     1.0000 0.10238  0.24577  0.06381  Biso   1.000  H
  H354     1.0000 0.99252  0.23819  0.06049  Biso   1.000  H
  C199     1.0000 0.50378  0.91910  0.11350  Biso   1.000  C
  C200     1.0000 0.17503  0.05901  0.09959  Biso   1.000  C
  C201     1.0000 0.32571  0.37070  0.90680  Biso   1.000  C
  H355     1.0000 0.20998  0.42601  0.92300  Biso   1.000  H
  C202     1.0000 0.16868  0.32322  0.92690  Biso   1.000  C
  H356     1.0000 0.51973  0.90268  0.14391  Biso   1.000  H
  C203     1.0000 0.58914  0.91161  0.08270  Biso   1.000  C
  O125     1.0000 0.42724  0.88352  0.09610  Biso   1.000  O
  H357     1.0000 0.11177  0.07620  0.09901  Biso   1.000  H
  H358     1.0000 0.18089  0.02631  0.07679  Biso   1.000  H
  H359     1.0000 0.21909  0.09300  0.09350  Biso   1.000  H
  C204     1.0000 0.30128  0.35851  0.85650  Biso   1.000  C
  H360     1.0000 0.36002  0.33700  0.91829  Biso   1.000  H
  O126     1.0000 0.38382  0.42659  0.90903  Biso   1.000  O
  H361     1.0000 0.20010  0.28490  0.93910  Biso   1.000  H
  C205     1.0000 0.07717  0.32960  0.95021  Biso   1.000  C
  O127     1.0000 0.15258  0.31290  0.87933  Biso   1.000  O
  H362     1.0000 0.61004  0.86681  0.08370  Biso   1.000  H
  C206     1.0000 0.56542  0.92861  0.03421  Biso   1.000  C
  O128     1.0000 0.66342  0.95170  0.10024  Biso   1.000  O
  C207     1.0000 0.39871  0.90210  0.05160  Biso   1.000  C
  C208     1.0000 0.23427  0.30161  0.85312  Biso   1.000  C
  H363     1.0000 0.27028  0.39668  0.84379  Biso   1.000  H
  O129     1.0000 0.38424  0.34521  0.83080  Biso   1.000  O
  H364     1.0000 0.35769  0.45410  0.92461  Biso   1.000  H
  H365     1.0000 0.08882  0.33661  0.98250  Biso   1.000  H
  H366     1.0000 0.04582  0.36758  0.93842  Biso   1.000  H
  O130     1.0000 0.01582  0.27742  0.94559  Biso   1.000  O
  H367     1.0000 0.03650  0.29441  0.94101  Biso   1.000  H
  H368     1.0000 0.08678  0.32668  0.98291  Biso   1.000  H
  O131     1.0000 0.03262  0.38780  0.93999  Biso   1.000  O
  H369     1.0000 0.54798  0.97998  0.03431  Biso   1.000  H
  C209     1.0000 0.47822  0.89312  0.01859  Biso   1.000  C
  O132     1.0000 0.64330  0.91420  0.00506  Biso   1.000  O
  C210     1.0000 0.75669  0.92332  0.10140  Biso   1.000  C
  H370     1.0000 0.38000  0.94699  0.05410  Biso   1.000  H
  C211     1.0000 0.31194  0.86268  0.03992  Biso   1.000  C
  O133     1.0000 0.28073  0.24549  0.86730  Biso   1.000  O
  H371     1.0000 0.21097  0.29902  0.82249  Biso   1.000  H
  C212     1.0000 0.40620  0.38578  0.79751  Biso   1.000  C
  C213     1.0000 0.91993  0.28980  0.95311  Biso   1.000  C
  C214     1.0000 0.95001  0.39418  0.96589  Biso   1.000  C
  O134     1.0000 0.45640  0.91915  0.97461  Biso   1.000  O
  H372     1.0000 0.49001  0.84698  0.01599  Biso   1.000  H
  H373     1.0000 0.62988  0.92361  0.97861  Biso   1.000  H
  H374     1.0000 0.80082  0.95352  0.11401  Biso   1.000  H
  H375     1.0000 0.77568  0.91199  0.07102  Biso   1.000  H
  H376     1.0000 0.75549  0.88539  0.12019  Biso   1.000  H
  H377     1.0000 0.29083  0.87248  0.00919  Biso   1.000  H
  H378     1.0000 0.32670  0.81731  0.04139  Biso   1.000  H
  O135     1.0000 0.23950  0.87790  0.07201  Biso   1.000  O
  C215     1.0000 0.26230  0.18811  0.84221  Biso   1.000  C
  H379     1.0000 0.46247  0.37128  0.78241  Biso   1.000  H
  H380     1.0000 0.41693  0.42769  0.81019  Biso   1.000  H
  H381     1.0000 0.35529  0.38780  0.77591  Biso   1.000  H
  H382     1.0000 0.88421  0.25110  0.94870  Biso   1.000  H
  H383     1.0000 0.89847  0.32202  0.93199  Biso   1.000  H
  H384     1.0000 0.91111  0.30488  0.98380  Biso   1.000  H
  H385     1.0000 0.91951  0.43398  0.95841  Biso   1.000  H
  H386     1.0000 0.96569  0.39389  0.99781  Biso   1.000  H
  H387     1.0000 0.90821  0.35918  0.95930  Biso   1.000  H
  C216     1.0000 0.43063  0.87728  0.93821  Biso   1.000  C
  C217     1.0000 0.15173  0.85049  0.06022  Biso   1.000  C
  C218     1.0000 0.35303  0.16468  0.82202  Biso   1.000  C
  H388     1.0000 0.21401  0.19800  0.81480  Biso   1.000  H
  C219     1.0000 0.22241  0.13669  0.87342  Biso   1.000  C
  H389     1.0000 0.44002  0.82701  0.94518  Biso   1.000  H
  C220     1.0000 0.49121  0.89432  0.89782  Biso   1.000  C
  O136     1.0000 0.33588  0.88443  0.92792  Biso   1.000  O
  H390     1.0000 0.10513  0.86240  0.08250  Biso   1.000  H
  H391     1.0000 0.15752  0.80459  0.05929  Biso   1.000  H
  H392     1.0000 0.13267  0.86590  0.03059  Biso   1.000  H
  C221     1.0000 0.34032  0.10011  0.79830  Biso   1.000  C
  H393     1.0000 0.39949  0.15969  0.84659  Biso   1.000  H
  O137     1.0000 0.38812  0.21092  0.78989  Biso   1.000  O
  H394     1.0000 0.26400  0.12598  0.89700  Biso   1.000  H
  C222     1.0000 0.12617  0.15350  0.89351  Biso   1.000  C
  O138     1.0000 0.20631  0.07951  0.84625  Biso   1.000  O
  H395     1.0000 0.48598  0.86801  0.87499  Biso   1.000  H
  C223     1.0000 0.46932  0.96231  0.88100  Biso   1.000  C
  O139     1.0000 0.59013  0.89101  0.90889  Biso   1.000  O
  C224     1.0000 0.30862  0.94891  0.91600  Biso   1.000  C
  C225     1.0000 0.28857  0.05329  0.82888  Biso   1.000  C
  H396     1.0000 0.30897  0.10601  0.76501  Biso   1.000  H
  O140     1.0000 0.42950  0.07322  0.78620  Biso   1.000  O
  C226     1.0000 0.48217  0.21850  0.78849  Biso   1.000  C
  H397     1.0000 0.13182  0.19311  0.91070  Biso   1.000  H
  H398     1.0000 0.08219  0.16099  0.86870  Biso   1.000  H
  O141     1.0000 0.09052  0.10702  0.92150  Biso   1.000  O
  H399     1.0000 0.49057  0.99318  0.90410  Biso   1.000  H
  C227     1.0000 0.36447  0.96942  0.87451  Biso   1.000  C
  O142     1.0000 0.51649  0.97470  0.83968  Biso   1.000  O
  C228     1.0000 0.63249  0.83393  0.89669  Biso   1.000  C
  H400     1.0000 0.32804  0.97998  0.94200  Biso   1.000  H
  C229     1.0000 0.20137  0.94771  0.90868  Biso   1.000  C
  O143     1.0000 0.35113  0.03630  0.86504  Biso   1.000  O
  H401     1.0000 0.27000  0.01099  0.81600  Biso   1.000  H
  C230     1.0000 0.44002  0.05800  0.74061  Biso   1.000  C
  H402     1.0000 0.49813  0.25019  0.76600  Biso   1.000  H
  H403     1.0000 0.51147  0.17841  0.78070  Biso   1.000  H
  H404     1.0000 0.50434  0.23238  0.81791  Biso   1.000  H
  C231     1.0000 0.12271  0.11648  0.96651  Biso   1.000  C
  H405     1.0000 0.33997  0.94901  0.84700  Biso   1.000  H
  H406     1.0000 0.57361  0.97071  0.84351  Biso   1.000  H
  H407     1.0000 0.69738  0.83441  0.90619  Biso   1.000  H
  H408     1.0000 0.62932  0.82869  0.86419  Biso   1.000  H
  H409     1.0000 0.60044  0.79892  0.91132  Biso   1.000  H
  H410     1.0000 0.17009  0.93168  0.93599  Biso   1.000  H
  H411     1.0000 0.17828  0.99059  0.90250  Biso   1.000  H
  O144     1.0000 0.18238  0.90690  0.87130  Biso   1.000  O
  H412     1.0000 0.50498  0.04662  0.73490  Biso   1.000  H
  H413     1.0000 0.42371  0.09449  0.72219  Biso   1.000  H
  H414     1.0000 0.40020  0.02252  0.73299  Biso   1.000  H
  H415     1.0000 0.09652  0.08402  0.98599  Biso   1.000  H
  H416     1.0000 0.10309  0.15810  0.97700  Biso   1.000  H
  H417     1.0000 0.19028  0.11379  0.96709  Biso   1.000  H
  C232     1.0000 0.08360  0.90441  0.86279  Biso   1.000  C
  H418     1.0000 0.07160  0.87762  0.83681  Biso   1.000  H
  H419     1.0000 0.06051  0.94690  0.85691  Biso   1.000  H
  H420     1.0000 0.05197  0.88712  0.88910  Biso   1.000  H
