data_image0
_cell_length_a       15.251
_cell_length_b       23.286
_cell_length_c       28.731
_cell_angle_alpha    90
_cell_angle_beta     104.6
_cell_angle_gamma    90

_symmetry_space_group_name_H-M    "P 1"
_symmetry_int_tables_number       1

loop_
  _symmetry_equiv_pos_as_xyz
  'x, y, z'

loop_
  _atom_site_label
  _atom_site_occupancy
  _atom_site_fract_x
  _atom_site_fract_y
  _atom_site_fract_z
  _atom_site_thermal_displace_type
  _atom_site_B_iso_or_equiv
  _atom_site_type_symbol
  C1       1.0000 0.66222  0.33252  0.67722  Biso   1.000  C
  N1       1.0000 0.68297  0.31319  0.63392  Biso   1.000  N
  H1       1.0000 0.60200  0.31749  0.67812  Biso   1.000  H
  H2       1.0000 0.70739  0.31628  0.70510  Biso   1.000  H
  N2       1.0000 0.66179  0.39440  0.68183  Biso   1.000  N
  C2       1.0000 0.62459  0.27978  0.59989  Biso   1.000  C
  C3       1.0000 0.77532  0.30800  0.62831  Biso   1.000  C
  C4       1.0000 0.58658  0.42369  0.68762  Biso   1.000  C
  C5       1.0000 0.74503  0.42579  0.69970  Biso   1.000  C
  N3       1.0000 0.66618  0.25552  0.57040  Biso   1.000  N
  O1       1.0000 0.54202  0.27291  0.59932  Biso   1.000  O
  C6       1.0000 0.76221  0.26900  0.58331  Biso   1.000  C
  H3       1.0000 0.81600  0.28932  0.65723  Biso   1.000  H
  N4       1.0000 0.81269  0.36060  0.61741  Biso   1.000  N
  N5       1.0000 0.61641  0.47788  0.70391  Biso   1.000  N
  O2       1.0000 0.51036  0.40720  0.67970  Biso   1.000  O
  N6       1.0000 0.78933  0.43971  0.66431  Biso   1.000  N
  C7       1.0000 0.71181  0.48428  0.71481  Biso   1.000  C
  H4       1.0000 0.78628  0.40578  0.72761  Biso   1.000  H
  C8       1.0000 0.62551  0.21459  0.53501  Biso   1.000  C
  N7       1.0000 0.78978  0.30838  0.54900  Biso   1.000  N
  H5       1.0000 0.80078  0.23370  0.58982  Biso   1.000  H
  C9       1.0000 0.82327  0.35811  0.57231  Biso   1.000  C
  C10      1.0000 0.85649  0.40222  0.65000  Biso   1.000  C
  C11      1.0000 0.55809  0.51589  0.72222  Biso   1.000  C
  C12      1.0000 0.79536  0.49858  0.65920  Biso   1.000  C
  H6       1.0000 0.73761  0.49188  0.74980  Biso   1.000  H
  N8       1.0000 0.74443  0.52521  0.68560  Biso   1.000  N
  N9       1.0000 0.60309  0.23491  0.48491  Biso   1.000  N
  H7       1.0000 0.56910  0.20072  0.54242  Biso   1.000  H
  H8       1.0000 0.66685  0.18131  0.53771  Biso   1.000  H
  C13      1.0000 0.80587  0.29009  0.50473  Biso   1.000  C
  O3       1.0000 0.86039  0.39530  0.55271  Biso   1.000  O
  H9       1.0000 0.89482  0.38319  0.67891  Biso   1.000  H
  H10      1.0000 0.89623  0.42571  0.63521  Biso   1.000  H
  H11      1.0000 0.49920  0.49661  0.71930  Biso   1.000  H
  H12      1.0000 0.58573  0.52272  0.75682  Biso   1.000  H
  N10      1.0000 0.54148  0.57112  0.69801  Biso   1.000  N
  O4       1.0000 0.84013  0.52242  0.63431  Biso   1.000  O
  C14      1.0000 0.75580  0.58439  0.69672  Biso   1.000  C
  C15      1.0000 0.51549  0.24659  0.45962  Biso   1.000  C
  C16      1.0000 0.66557  0.23688  0.45671  Biso   1.000  C
  N11      1.0000 0.72566  0.28640  0.46451  Biso   1.000  N
  H13      1.0000 0.83508  0.25178  0.50962  Biso   1.000  H
  H14      1.0000 0.84935  0.31701  0.49591  Biso   1.000  H
  C17      1.0000 0.45328  0.59229  0.67881  Biso   1.000  C
  C18      1.0000 0.60382  0.61780  0.70751  Biso   1.000  C
  H15      1.0000 0.78139  0.58872  0.73182  Biso   1.000  H
  H16      1.0000 0.80039  0.60040  0.68042  Biso   1.000  H
  N12      1.0000 0.67213  0.61831  0.68262  Biso   1.000  N
  N13      1.0000 0.51953  0.25801  0.41290  Biso   1.000  N
  O5       1.0000 0.44855  0.24839  0.47581  Biso   1.000  O
  C19      1.0000 0.60677  0.24671  0.40510  Biso   1.000  C
  H17      1.0000 0.70056  0.20021  0.45901  Biso   1.000  H
  C20      1.0000 0.71899  0.31581  0.42312  Biso   1.000  C
  N14      1.0000 0.45729  0.64781  0.67150  Biso   1.000  N
  O6       1.0000 0.38509  0.56081  0.67093  Biso   1.000  O
  C21      1.0000 0.54582  0.67191  0.68740  Biso   1.000  C
  H18      1.0000 0.63079  0.62179  0.74290  Biso   1.000  H
  C22      1.0000 0.66028  0.66078  0.64690  Biso   1.000  C
  C23      1.0000 0.43838  0.25410  0.37470  Biso   1.000  C
  H19      1.0000 0.60594  0.21210  0.38431  Biso   1.000  H
  N15      1.0000 0.65034  0.29550  0.38819  Biso   1.000  N
  O7       1.0000 0.77134  0.35601  0.41751  Biso   1.000  O
  C24      1.0000 0.37311  0.68380  0.65812  Biso   1.000  C
  H20      1.0000 0.54868  0.70171  0.71290  Biso   1.000  H
  N16      1.0000 0.58700  0.69170  0.65000  Biso   1.000  N
  O8       1.0000 0.71100  0.66972  0.62101  Biso   1.000  O
  N17      1.0000 0.41314  0.30830  0.35000  Biso   1.000  N
  H21      1.0000 0.38810  0.24092  0.38812  Biso   1.000  H
  H22      1.0000 0.44717  0.22511  0.35111  Biso   1.000  H
  C25      1.0000 0.62705  0.31620  0.34190  Biso   1.000  C
  N18      1.0000 0.34980  0.70450  0.61180  Biso   1.000  N
  H23      1.0000 0.38091  0.71678  0.68050  Biso   1.000  H
  H24      1.0000 0.32188  0.66061  0.66320  Biso   1.000  H
  C26      1.0000 0.56178  0.74590  0.62532  Biso   1.000  C
  C27      1.0000 0.33987  0.33922  0.35312  Biso   1.000  C
  C28      1.0000 0.45432  0.32809  0.31259  Biso   1.000  C
  N19      1.0000 0.54286  0.35219  0.32852  Biso   1.000  N
  H25      1.0000 0.61923  0.28322  0.31949  Biso   1.000  H
  H26      1.0000 0.67826  0.33939  0.33680  Biso   1.000  H
  C29      1.0000 0.28117  0.68419  0.57691  Biso   1.000  C
  C30      1.0000 0.39337  0.75329  0.59489  Biso   1.000  C
  N20      1.0000 0.48056  0.74199  0.58713  Biso   1.000  N
  H27      1.0000 0.61206  0.75908  0.61191  Biso   1.000  H
  H28      1.0000 0.55299  0.77489  0.64892  Biso   1.000  H
  N21      1.0000 0.32803  0.38169  0.31741  Biso   1.000  N
  O9       1.0000 0.28916  0.33028  0.37902  Biso   1.000  O
  H29      1.0000 0.45146  0.29829  0.28709  Biso   1.000  H
  C31      1.0000 0.39633  0.38220  0.29252  Biso   1.000  C
  C32      1.0000 0.54687  0.40771  0.32122  Biso   1.000  C
  N22      1.0000 0.27449  0.71360  0.53551  Biso   1.000  N
  O10      1.0000 0.22875  0.64399  0.58252  Biso   1.000  O
  C33      1.0000 0.33459  0.76312  0.54332  Biso   1.000  C
  H30      1.0000 0.39421  0.78790  0.61572  Biso   1.000  H
  C34      1.0000 0.48467  0.75341  0.54040  Biso   1.000  C
  C35      1.0000 0.24435  0.41561  0.30331  Biso   1.000  C
  H31      1.0000 0.36935  0.37821  0.25709  Biso   1.000  H
  N23      1.0000 0.45868  0.42888  0.30202  Biso   1.000  N
  O11      1.0000 0.61507  0.43919  0.32910  Biso   1.000  O
  C36      1.0000 0.19429  0.70991  0.49530  Biso   1.000  C
  N24      1.0000 0.39706  0.76509  0.51512  Biso   1.000  N
  H32      1.0000 0.29960  0.79979  0.54102  Biso   1.000  H
  O12      1.0000 0.55160  0.75161  0.52422  Biso   1.000  O
  H33      1.0000 0.21877  0.41132  0.26821  Biso   1.000  H
  H34      1.0000 0.19977  0.39960  0.31960  Biso   1.000  H
  N25      1.0000 0.25573  0.47479  0.31442  Biso   1.000  N
  C37      1.0000 0.44207  0.48411  0.27781  Biso   1.000  C
  N26      1.0000 0.21036  0.69162  0.45099  Biso   1.000  N
  H35      1.0000 0.16508  0.74822  0.49041  Biso   1.000  H
  H36      1.0000 0.15080  0.68299  0.50411  Biso   1.000  H
  C38      1.0000 0.37465  0.78541  0.46502  Biso   1.000  C
  C39      1.0000 0.20473  0.50142  0.34082  Biso   1.000  C
  C40      1.0000 0.28835  0.51572  0.28522  Biso   1.000  C
  H37      1.0000 0.50095  0.50339  0.28072  Biso   1.000  H
  H38      1.0000 0.41442  0.47728  0.24321  Biso   1.000  H
  N27      1.0000 0.38375  0.52212  0.29612  Biso   1.000  N
  C41      1.0000 0.17688  0.64189  0.42772  Biso   1.000  C
  C42      1.0000 0.23795  0.73100  0.41671  Biso   1.000  C
  N28      1.0000 0.33396  0.74452  0.42959  Biso   1.000  N
  H39      1.0000 0.43106  0.79932  0.45761  Biso   1.000  H
  H40      1.0000 0.33330  0.81869  0.46232  Biso   1.000  H
  N29      1.0000 0.21083  0.56029  0.33572  Biso   1.000  N
  O13      1.0000 0.16003  0.47758  0.36571  Biso   1.000  O
  H41      1.0000 0.26255  0.50812  0.25022  Biso   1.000  H
  C43      1.0000 0.25511  0.57421  0.30029  Biso   1.000  C
  C44      1.0000 0.41358  0.57631  0.31241  Biso   1.000  C
  N30      1.0000 0.18746  0.63940  0.38262  Biso   1.000  N
  O14      1.0000 0.13977  0.60470  0.44732  Biso   1.000  O
  C45      1.0000 0.22484  0.69200  0.37172  Biso   1.000  C
  H42      1.0000 0.19938  0.76630  0.41020  Biso   1.000  H
  C46      1.0000 0.37555  0.72022  0.40010  Biso   1.000  C
  C47      1.0000 0.14365  0.59778  0.35000  Biso   1.000  C
  H43      1.0000 0.21381  0.59422  0.27241  Biso   1.000  H
  N31      1.0000 0.33837  0.60560  0.31820  Biso   1.000  N
  O15      1.0000 0.48973  0.59280  0.32032  Biso   1.000  O
  N32      1.0000 0.31712  0.68681  0.36611  Biso   1.000  N
  H44      1.0000 0.18416  0.71068  0.34280  Biso   1.000  H
  O16      1.0000 0.45813  0.72709  0.40071  Biso   1.000  O
  H45      1.0000 0.10534  0.61681  0.32111  Biso   1.000  H
  H46      1.0000 0.10393  0.57429  0.36481  Biso   1.000  H
  C48      1.0000 0.33793  0.66748  0.32280  Biso   1.000  C
  H47      1.0000 0.39816  0.68251  0.32190  Biso   1.000  H
  H48      1.0000 0.29275  0.68372  0.29489  Biso   1.000  H
  N33      1.0000 0.91318  0.19170  0.85001  Biso   1.000  N
  C49      1.0000 0.83990  0.16083  0.85310  Biso   1.000  C
  C50      1.0000 0.83998  0.16083  0.85314  Biso   1.000  C
  C51      1.0000 0.95445  0.17191  0.81264  Biso   1.000  C
  C52      1.0000 0.95443  0.17191  0.81260  Biso   1.000  C
  C53      1.0000 0.93842  0.24590  0.87472  Biso   1.000  C
  N34      1.0000 0.82814  0.11831  0.81742  Biso   1.000  N
  N35      1.0000 0.91325  0.19170  0.85001  Biso   1.000  N
  O17      1.0000 0.78927  0.16972  0.87903  Biso   1.000  O
  O18      1.0000 0.78920  0.16972  0.87903  Biso   1.000  O
  C54      1.0000 0.89645  0.11780  0.79253  Biso   1.000  C
  C55      1.0000 0.89643  0.11780  0.79250  Biso   1.000  C
  H49      1.0000 0.95152  0.20171  0.78714  Biso   1.000  H
  H50      1.0000 0.95150  0.20171  0.78710  Biso   1.000  H
  N36      1.0000 0.04291  0.14781  0.82854  Biso   1.000  N
  N37      1.0000 0.04289  0.14781  0.82850  Biso   1.000  N
  N38      1.0000 0.04298  0.14781  0.82854  Biso   1.000  N
  H51      1.0000 0.94722  0.27489  0.85112  Biso   1.000  H
  H52      1.0000 0.88814  0.25913  0.88813  Biso   1.000  H
  N39      1.0000 0.01964  0.24199  0.91291  Biso   1.000  N
  C56      1.0000 0.74446  0.08439  0.80332  Biso   1.000  C
  N40      1.0000 0.95872  0.07112  0.80203  Biso   1.000  N
  H53      1.0000 0.86939  0.12179  0.75711  Biso   1.000  H
  H54      1.0000 0.86946  0.12179  0.75711  Biso   1.000  H
  C57      1.0000 0.04690  0.09229  0.82120  Biso   1.000  C
  C58      1.0000 0.04698  0.09229  0.82123  Biso   1.000  C
  C59      1.0000 0.12710  0.18380  0.84192  Biso   1.000  C
  C60      1.0000 0.10681  0.25329  0.90511  Biso   1.000  C
  C61      1.0000 0.01552  0.25341  0.95960  Biso   1.000  C
  C62      1.0000 0.01560  0.25341  0.95964  Biso   1.000  C
  C63      1.0000 0.10688  0.25329  0.90511  Biso   1.000  C
  H55      1.0000 0.69981  0.10040  0.81962  Biso   1.000  H
  N41      1.0000 0.75582  0.02521  0.81440  Biso   1.000  N
  H56      1.0000 0.71881  0.08872  0.76822  Biso   1.000  H
  C64      1.0000 0.94211  0.01589  0.77782  Biso   1.000  C
  O19      1.0000 0.11511  0.06081  0.82911  Biso   1.000  O
  H57      1.0000 0.11934  0.21678  0.81951  Biso   1.000  H
  N42      1.0000 0.15047  0.20450  0.88824  Biso   1.000  N
  H58      1.0000 0.11934  0.21683  0.81951  Biso   1.000  H
  H59      1.0000 0.17837  0.16061  0.83681  Biso   1.000  H
  N43      1.0000 0.15045  0.20450  0.88821  Biso   1.000  N
  O20      1.0000 0.94867  0.25161  0.97582  Biso   1.000  O
  N44      1.0000 0.10314  0.26509  0.98492  Biso   1.000  N
  H60      1.0000 0.10605  0.28790  0.88432  Biso   1.000  H
  C65      1.0000 0.16561  0.26312  0.95672  Biso   1.000  C
  C66      1.0000 0.70484  0.99858  0.84084  Biso   1.000  C
  C67      1.0000 0.78846  0.98428  0.78523  Biso   1.000  C
  C68      1.0000 0.70482  0.99858  0.84080  Biso   1.000  C
  C69      1.0000 0.78839  0.98428  0.78523  Biso   1.000  C
  C70      1.0000 0.78846  0.98433  0.78523  Biso   1.000  C
  C71      1.0000 0.78839  0.98433  0.78523  Biso   1.000  C
  N45      1.0000 0.88386  0.97788  0.79613  Biso   1.000  N
  N46      1.0000 0.88379  0.97788  0.79613  Biso   1.000  N
  H61      1.0000 0.91453  0.02272  0.74322  Biso   1.000  H
  H62      1.0000 0.00107  0.99661  0.78074  Biso   1.000  H
  H63      1.0000 0.00098  0.99661  0.78070  Biso   1.000  H
  C72      1.0000 0.21903  0.18419  0.92313  Biso   1.000  C
  C73      1.0000 0.12541  0.28541  0.03499  Biso   1.000  C
  H64      1.0000 0.20061  0.29979  0.95902  Biso   1.000  H
  N47      1.0000 0.22571  0.21360  0.96453  Biso   1.000  N
  O21      1.0000 0.66014  0.02242  0.86573  Biso   1.000  O
  N48      1.0000 0.71094  0.93971  0.83573  Biso   1.000  N
  H65      1.0000 0.76260  0.99188  0.75024  Biso   1.000  H
  H66      1.0000 0.76258  0.99188  0.75020  Biso   1.000  H
  C74      1.0000 0.75523  0.92579  0.80030  Biso   1.000  C
  H67      1.0000 0.76266  0.99188  0.75024  Biso   1.000  H
  C75      1.0000 0.91363  0.92369  0.81242  Biso   1.000  C
  O22      1.0000 0.27145  0.14399  0.91752  Biso   1.000  O
  H68      1.0000 0.06900  0.29932  0.04240  Biso   1.000  H
  H69      1.0000 0.16682  0.31869  0.03768  Biso   1.000  H
  N49      1.0000 0.16608  0.24448  0.07038  Biso   1.000  N
  N50      1.0000 0.16608  0.24452  0.07038  Biso   1.000  N
  H70      1.0000 0.06906  0.29932  0.04240  Biso   1.000  H
  C76      1.0000 0.30583  0.20991  0.00470  Biso   1.000  C
  C77      1.0000 0.30582  0.20991  0.00467  Biso   1.000  C
  C78      1.0000 0.64369  0.90222  0.85001  Biso   1.000  C
  N51      1.0000 0.83842  0.89440  0.81821  Biso   1.000  N
  H71      1.0000 0.71393  0.90582  0.77243  Biso   1.000  H
  O23      1.0000 0.98984  0.90720  0.82034  Biso   1.000  O
  O24      1.0000 0.98982  0.90720  0.82030  Biso   1.000  O
  C79      1.0000 0.12450  0.22022  0.09991  Biso   1.000  C
  C80      1.0000 0.26211  0.23100  0.08329  Biso   1.000  C
  C81      1.0000 0.12448  0.22022  0.09987  Biso   1.000  C
  C82      1.0000 0.12457  0.22022  0.09991  Biso   1.000  C
  H72      1.0000 0.34947  0.18299  0.99593  Biso   1.000  H
  N52      1.0000 0.28968  0.19162  0.04898  Biso   1.000  N
  H73      1.0000 0.33497  0.24822  0.00959  Biso   1.000  H
  N53      1.0000 0.28975  0.19162  0.04898  Biso   1.000  N
  H74      1.0000 0.60404  0.92571  0.86483  Biso   1.000  H
  N54      1.0000 0.68751  0.86060  0.88263  Biso   1.000  N
  H75      1.0000 0.60539  0.88319  0.82113  Biso   1.000  H
  N55      1.0000 0.68757  0.86060  0.88263  Biso   1.000  N
  C83      1.0000 0.83804  0.83252  0.82282  Biso   1.000  C
  C84      1.0000 0.83798  0.83252  0.82282  Biso   1.000  C
  N56      1.0000 0.18293  0.18681  0.13390  Biso   1.000  N
  O25      1.0000 0.04192  0.22709  0.09930  Biso   1.000  O
  C85      1.0000 0.27521  0.19200  0.12829  Biso   1.000  C
  H76      1.0000 0.30074  0.26630  0.08980  Biso   1.000  H
  C86      1.0000 0.32317  0.14189  0.07228  Biso   1.000  C
  C87      1.0000 0.67693  0.85811  0.92773  Biso   1.000  C
  C88      1.0000 0.72495  0.80800  0.87173  Biso   1.000  C
  H77      1.0000 0.79279  0.81628  0.79491  Biso   1.000  H
  N57      1.0000 0.81723  0.81319  0.86612  Biso   1.000  N
  H78      1.0000 0.89827  0.81749  0.82192  Biso   1.000  H
  H79      1.0000 0.79286  0.81628  0.79491  Biso   1.000  H
  C89      1.0000 0.16212  0.16753  0.17720  Biso   1.000  C
  H80      1.0000 0.31589  0.21068  0.15720  Biso   1.000  H
  N58      1.0000 0.31259  0.13940  0.11739  Biso   1.000  N
  O26      1.0000 0.36035  0.10470  0.05268  Biso   1.000  O
  N59      1.0000 0.71049  0.80838  0.95104  Biso   1.000  N
  O27      1.0000 0.63988  0.89530  0.94734  Biso   1.000  O
  N60      1.0000 0.71040  0.80838  0.95100  Biso   1.000  N
  O28      1.0000 0.63980  0.89530  0.94730  Biso   1.000  O
  C90      1.0000 0.73806  0.76900  0.91673  Biso   1.000  C
  H81      1.0000 0.68427  0.78932  0.84282  Biso   1.000  H
  C91      1.0000 0.87567  0.77978  0.90011  Biso   1.000  C
  C92      1.0000 0.87560  0.77978  0.90011  Biso   1.000  C
  C93      1.0000 0.87567  0.77982  0.90011  Biso   1.000  C
  C94      1.0000 0.87560  0.77982  0.90011  Biso   1.000  C
  H82      1.0000 0.10190  0.18251  0.17810  Biso   1.000  H
  N61      1.0000 0.16173  0.10560  0.18177  Biso   1.000  N
  H83      1.0000 0.20736  0.18372  0.20507  Biso   1.000  H
  C95      1.0000 0.35639  0.09778  0.14997  Biso   1.000  C
  C96      1.0000 0.35648  0.09778  0.15001  Biso   1.000  C
  C97      1.0000 0.69433  0.79009  0.99532  Biso   1.000  C
  H84      1.0000 0.69943  0.73370  0.91022  Biso   1.000  H
  N62      1.0000 0.83402  0.75552  0.92964  Biso   1.000  N
  N63      1.0000 0.83400  0.75552  0.92960  Biso   1.000  N
  N64      1.0000 0.83409  0.75552  0.92964  Biso   1.000  N
  O29      1.0000 0.95825  0.77291  0.90072  Biso   1.000  O
  C98      1.0000 0.08654  0.07631  0.18759  Biso   1.000  C
  C99      1.0000 0.24492  0.07421  0.19968  Biso   1.000  C
  H85      1.0000 0.39612  0.07429  0.13519  Biso   1.000  H
  N65      1.0000 0.28923  0.06029  0.16429  Biso   1.000  N
  H86      1.0000 0.39478  0.11681  0.17889  Biso   1.000  H
  H87      1.0000 0.66519  0.75178  0.99042  Biso   1.000  H
  H88      1.0000 0.65070  0.81701  0.00409  Biso   1.000  H
  N66      1.0000 0.77439  0.78640  0.03549  Biso   1.000  N
  C100     1.0000 0.87476  0.71459  0.96503  Biso   1.000  C
  N67      1.0000 0.11631  0.02212  0.20389  Biso   1.000  N
  O30      1.0000 0.01033  0.09280  0.17968  Biso   1.000  O
  N68      1.0000 0.11637  0.02212  0.20389  Biso   1.000  N
  H89      1.0000 0.28624  0.09422  0.22759  Biso   1.000  H
  C101     1.0000 0.21177  0.01572  0.21479  Biso   1.000  C
  C102     1.0000 0.29533  0.00142  0.15918  Biso   1.000  C
  C103     1.0000 0.78107  0.81581  0.07689  Biso   1.000  C
  C104     1.0000 0.83455  0.73692  0.04330  Biso   1.000  C
  H90      1.0000 0.83335  0.68131  0.96233  Biso   1.000  H
  H91      1.0000 0.93117  0.70072  0.95762  Biso   1.000  H
  H92      1.0000 0.93111  0.70072  0.95762  Biso   1.000  H
  N69      1.0000 0.89703  0.73491  0.01510  Biso   1.000  N
  C105     1.0000 0.05805  0.98411  0.22220  Biso   1.000  C
  N70      1.0000 0.24433  0.97479  0.18558  Biso   1.000  N
  H93      1.0000 0.23757  0.00812  0.24978  Biso   1.000  H
  H94      1.0000 0.23750  0.00812  0.24978  Biso   1.000  H
  O31      1.0000 0.34003  0.97758  0.13429  Biso   1.000  O
  N71      1.0000 0.84970  0.79550  0.11178  Biso   1.000  N
  O32      1.0000 0.72872  0.85601  0.08250  Biso   1.000  O
  H95      1.0000 0.79949  0.70021  0.04099  Biso   1.000  H
  C106     1.0000 0.89335  0.74671  0.09491  Biso   1.000  C
  C107     1.0000 0.89327  0.74671  0.09487  Biso   1.000  C
  C108     1.0000 0.89334  0.74671  0.09487  Biso   1.000  C
  C109     1.0000 0.98463  0.74659  0.04038  Biso   1.000  C
  C110     1.0000 0.98457  0.74659  0.04038  Biso   1.000  C
  H96      1.0000 0.99910  0.00339  0.21928  Biso   1.000  H
  H97      1.0000 0.99917  0.00339  0.21928  Biso   1.000  H
  H98      1.0000 0.08563  0.97728  0.25680  Biso   1.000  H
  N72      1.0000 0.04145  0.92888  0.19799  Biso   1.000  N
  H99      1.0000 0.08563  0.97733  0.25680  Biso   1.000  H
  C111     1.0000 0.25570  0.91561  0.19669  Biso   1.000  C
  C112     1.0000 0.87301  0.81620  0.15810  Biso   1.000  C
  C113     1.0000 0.87307  0.81620  0.15810  Biso   1.000  C
  H100     1.0000 0.89411  0.71210  0.11570  Biso   1.000  H
  N73      1.0000 0.98053  0.75801  0.08710  Biso   1.000  N
  N74      1.0000 0.98051  0.75801  0.08707  Biso   1.000  N
  O33      1.0000 0.05150  0.74839  0.02420  Biso   1.000  O
  C114     1.0000 0.95325  0.90771  0.17878  Biso   1.000  C
  C115     1.0000 0.95318  0.90771  0.17878  Biso   1.000  C
  C116     1.0000 0.10372  0.88220  0.20748  Biso   1.000  C
  H101     1.0000 0.28135  0.91132  0.23180  Biso   1.000  H
  H102     1.0000 0.30035  0.89960  0.18040  Biso   1.000  H
  N75      1.0000 0.17203  0.88169  0.18260  Biso   1.000  N
  H103     1.0000 0.88083  0.78322  0.18051  Biso   1.000  H
  N76      1.0000 0.95726  0.85219  0.17148  Biso   1.000  N
  H104     1.0000 0.88081  0.78322  0.18047  Biso   1.000  H
  H105     1.0000 0.82178  0.83939  0.16317  Biso   1.000  H
  N77      1.0000 0.95719  0.85219  0.17148  Biso   1.000  N
  H106     1.0000 0.82184  0.83939  0.16317  Biso   1.000  H
  C117     1.0000 0.06174  0.75410  0.12530  Biso   1.000  C
  O34      1.0000 0.88504  0.93919  0.17087  Biso   1.000  O
  C118     1.0000 0.04572  0.82809  0.18738  Biso   1.000  C
  H107     1.0000 0.13077  0.87821  0.24291  Biso   1.000  H
  H108     1.0000 0.13076  0.87821  0.24288  Biso   1.000  H
  C119     1.0000 0.16018  0.83922  0.14688  Biso   1.000  C
  H109     1.0000 0.11203  0.74092  0.11188  Biso   1.000  H
  H110     1.0000 0.05295  0.72511  0.14889  Biso   1.000  H
  N78      1.0000 0.08692  0.80830  0.15001  Biso   1.000  N
  H111     1.0000 0.05288  0.72511  0.14889  Biso   1.000  H
  N79      1.0000 0.08690  0.80830  0.14997  Biso   1.000  N
  H112     1.0000 0.04858  0.79829  0.21288  Biso   1.000  H
  O35      1.0000 0.21096  0.83028  0.12098  Biso   1.000  O
  C120     1.0000 0.10633  0.78081  0.60791  Biso   1.000  C
  N80      1.0000 0.01898  0.76260  0.60292  Biso   1.000  N
  N81      1.0000 0.13790  0.80679  0.65161  Biso   1.000  N
  O36      1.0000 0.15066  0.77502  0.57713  Biso   1.000  O
  C121     1.0000 0.98022  0.71880  0.56810  Biso   1.000  C
  C122     1.0000 0.99453  0.76750  0.64892  Biso   1.000  C
  C123     1.0000 0.07361  0.80400  0.67931  Biso   1.000  C
  C124     1.0000 0.22913  0.82449  0.66920  Biso   1.000  C
  H113     1.0000 0.02491  0.70729  0.55022  Biso   1.000  H
  H114     1.0000 0.96516  0.68462  0.58500  Biso   1.000  H
  N82      1.0000 0.89880  0.74010  0.53472  Biso   1.000  N
  H115     1.0000 0.98888  0.72928  0.66381  Biso   1.000  H
  N83      1.0000 0.91615  0.80400  0.64611  Biso   1.000  N
  H116     1.0000 0.98888  0.72932  0.66381  Biso   1.000  H
  N84      1.0000 0.91622  0.80400  0.64611  Biso   1.000  N
  N85      1.0000 0.03008  0.85901  0.68470  Biso   1.000  N
  H117     1.0000 0.10009  0.78592  0.71132  Biso   1.000  H
  H118     1.0000 0.25169  0.81010  0.70262  Biso   1.000  H
  N86      1.0000 0.24257  0.88560  0.66920  Biso   1.000  N
  H119     1.0000 0.26597  0.80628  0.64942  Biso   1.000  H
  H120     1.0000 0.26597  0.80632  0.64942  Biso   1.000  H
  H121     1.0000 0.26603  0.80628  0.64942  Biso   1.000  H
  H122     1.0000 0.26603  0.80632  0.64942  Biso   1.000  H
  C125     1.0000 0.80989  0.73770  0.54343  Biso   1.000  C
  C126     1.0000 0.89420  0.74371  0.48721  Biso   1.000  C
  C127     1.0000 0.82571  0.78219  0.62673  Biso   1.000  C
  C128     1.0000 0.93532  0.85412  0.66920  Biso   1.000  C
  C129     1.0000 0.07368  0.90320  0.71783  Biso   1.000  C
  C130     1.0000 0.07374  0.90320  0.71783  Biso   1.000  C
  C131     1.0000 0.29067  0.91080  0.64180  Biso   1.000  C
  C132     1.0000 0.22897  0.92369  0.70531  Biso   1.000  C
  C133     1.0000 0.22904  0.92369  0.70531  Biso   1.000  C
  N87      1.0000 0.80673  0.75449  0.46221  Biso   1.000  N
  O37      1.0000 0.95853  0.73830  0.46789  Biso   1.000  O
  N88      1.0000 0.80680  0.75449  0.46221  Biso   1.000  N
  O38      1.0000 0.95860  0.73830  0.46789  Biso   1.000  O
  C134     1.0000 0.74737  0.75440  0.49379  Biso   1.000  C
  H123     1.0000 0.79528  0.69900  0.55450  Biso   1.000  H
  N89      1.0000 0.79450  0.78352  0.57439  Biso   1.000  N
  H124     1.0000 0.82325  0.74212  0.63770  Biso   1.000  H
  H125     1.0000 0.78318  0.80499  0.64032  Biso   1.000  H
  H126     1.0000 0.82331  0.74212  0.63770  Biso   1.000  H
  O39      1.0000 0.88159  0.89109  0.67481  Biso   1.000  O
  N90      1.0000 0.13221  0.93889  0.69941  Biso   1.000  N
  H127     1.0000 0.02651  0.92738  0.72621  Biso   1.000  H
  H128     1.0000 0.10904  0.88482  0.74783  Biso   1.000  H
  H129     1.0000 0.02651  0.92742  0.72621  Biso   1.000  H
  O40      1.0000 0.31857  0.88800  0.60899  Biso   1.000  O
  N91      1.0000 0.30120  0.96882  0.65223  Biso   1.000  N
  H130     1.0000 0.25760  0.90909  0.73840  Biso   1.000  H
  C135     1.0000 0.27070  0.98080  0.69542  Biso   1.000  C
  C136     1.0000 0.77518  0.75560  0.41042  Biso   1.000  C
  H131     1.0000 0.69627  0.72670  0.48311  Biso   1.000  H
  N92      1.0000 0.71437  0.81272  0.50300  Biso   1.000  N
  C137     1.0000 0.73875  0.82651  0.55130  Biso   1.000  C
  C138     1.0000 0.73881  0.82651  0.55130  Biso   1.000  C
  C139     1.0000 0.12063  0.99571  0.69312  Biso   1.000  C
  C140     1.0000 0.37159  0.00339  0.63892  Biso   1.000  C
  N93      1.0000 0.19640  0.02220  0.68740  Biso   1.000  N
  H132     1.0000 0.32220  0.99240  0.72283  Biso   1.000  H
  N94      1.0000 0.75434  0.81371  0.39111  Biso   1.000  N
  H133     1.0000 0.82213  0.73860  0.39632  Biso   1.000  H
  H134     1.0000 0.72008  0.73151  0.40042  Biso   1.000  H
  H135     1.0000 0.82219  0.73860  0.39632  Biso   1.000  H
  C141     1.0000 0.63647  0.83591  0.46930  Biso   1.000  C
  O41      1.0000 0.71255  0.86842  0.56849  Biso   1.000  O
  O42      1.0000 0.04842  0.02109  0.69323  Biso   1.000  O
  H136     1.0000 0.39638  0.98132  0.61572  Biso   1.000  H
  H137     1.0000 0.42161  0.00971  0.66802  Biso   1.000  H
  N95      1.0000 0.34128  0.05759  0.61831  Biso   1.000  N
  C142     1.0000 0.21128  0.08301  0.69290  Biso   1.000  C
  C143     1.0000 0.80776  0.84042  0.36661  Biso   1.000  C
  C144     1.0000 0.66957  0.84209  0.38672  Biso   1.000  C
  H138     1.0000 0.59619  0.80400  0.45462  Biso   1.000  H
  H139     1.0000 0.60256  0.86052  0.48681  Biso   1.000  H
  N96      1.0000 0.65986  0.87022  0.43060  Biso   1.000  N
  C145     1.0000 0.35380  0.06991  0.57411  Biso   1.000  C
  C146     1.0000 0.32681  0.10680  0.64582  Biso   1.000  C
  H140     1.0000 0.15522  0.10109  0.69733  Biso   1.000  H
  N97      1.0000 0.23602  0.11050  0.65402  Biso   1.000  N
  H141     1.0000 0.25961  0.08993  0.72261  Biso   1.000  H
  N98      1.0000 0.76413  0.88950  0.34600  Biso   1.000  N
  O43      1.0000 0.88195  0.82470  0.36089  Biso   1.000  O
  C147     1.0000 0.67335  0.89320  0.35420  Biso   1.000  C
  H142     1.0000 0.61705  0.81641  0.37262  Biso   1.000  H
  C148     1.0000 0.64636  0.93009  0.42592  Biso   1.000  C
  N99      1.0000 0.34028  0.12982  0.56939  Biso   1.000  N
  O44      1.0000 0.37167  0.03951  0.54422  Biso   1.000  O
  H143     1.0000 0.37473  0.10959  0.67672  Biso   1.000  H
  C149     1.0000 0.33058  0.15791  0.61331  Biso   1.000  C
  C150     1.0000 0.19240  0.15958  0.63342  Biso   1.000  C
  C151     1.0000 0.19240  0.15962  0.63342  Biso   1.000  C
  C152     1.0000 0.78882  0.91699  0.30712  Biso   1.000  C
  C153     1.0000 0.78888  0.91699  0.30712  Biso   1.000  C
  H144     1.0000 0.62543  0.89041  0.32331  Biso   1.000  H
  N100     1.0000 0.65887  0.94241  0.38172  Biso   1.000  N
  O45      1.0000 0.62849  0.96049  0.45581  Biso   1.000  O
  C154     1.0000 0.36367  0.16409  0.53069  Biso   1.000  C
  N101     1.0000 0.24582  0.18629  0.60892  Biso   1.000  N
  H145     1.0000 0.38311  0.18359  0.62741  Biso   1.000  H
  O46      1.0000 0.11819  0.17530  0.63910  Biso   1.000  O
  H146     1.0000 0.74055  0.91012  0.27741  Biso   1.000  H
  H147     1.0000 0.84494  0.89891  0.30270  Biso   1.000  H
  N102     1.0000 0.80374  0.97780  0.31259  Biso   1.000  N
  C155     1.0000 0.62856  0.99661  0.36111  Biso   1.000  C
  H148     1.0000 0.40397  0.19600  0.54540  Biso   1.000  H
  H149     1.0000 0.39760  0.13948  0.51321  Biso   1.000  H
  N103     1.0000 0.28577  0.18728  0.49699  Biso   1.000  N
  H150     1.0000 0.39760  0.13953  0.51321  Biso   1.000  H
  N104     1.0000 0.28577  0.18732  0.49699  Biso   1.000  N
  C156     1.0000 0.22497  0.24440  0.58961  Biso   1.000  C
  C157     1.0000 0.87953  0.00429  0.30691  Biso   1.000  C
  C158     1.0000 0.72946  0.01920  0.30460  Biso   1.000  C
  H151     1.0000 0.57855  0.99029  0.33201  Biso   1.000  H
  H152     1.0000 0.60378  0.01868  0.38431  Biso   1.000  H
  N105     1.0000 0.69896  0.03122  0.34780  Biso   1.000  N
  H153     1.0000 0.60378  0.01872  0.38431  Biso   1.000  H
  C159     1.0000 0.26134  0.17349  0.44872  Biso   1.000  C
  C160     1.0000 0.25277  0.24560  0.50620  Biso   1.000  C
  C161     1.0000 0.26141  0.17349  0.44872  Biso   1.000  C
  H154     1.0000 0.17797  0.26140  0.60371  Biso   1.000  H
  H155     1.0000 0.28008  0.26849  0.59961  Biso   1.000  H
  N106     1.0000 0.19336  0.24551  0.53781  Biso   1.000  N
  O47      1.0000 0.95173  0.97891  0.30680  Biso   1.000  O
  N107     1.0000 0.86795  0.06111  0.30061  Biso   1.000  N
  C162     1.0000 0.77112  0.07631  0.29471  Biso   1.000  C
  H156     1.0000 0.67796  0.00760  0.27720  Biso   1.000  H
  C163     1.0000 0.70947  0.08920  0.35820  Biso   1.000  C
  N108     1.0000 0.20564  0.21652  0.42560  Biso   1.000  N
  O48      1.0000 0.28759  0.13162  0.43150  Biso   1.000  O
  H157     1.0000 0.30389  0.27330  0.51692  Biso   1.000  H
  C164     1.0000 0.19027  0.26230  0.45660  Biso   1.000  C
  C165     1.0000 0.10596  0.25629  0.51282  Biso   1.000  C
  C166     1.0000 0.92648  0.09680  0.28220  Biso   1.000  C
  H158     1.0000 0.74254  0.09091  0.26159  Biso   1.000  H
  N109     1.0000 0.75757  0.11440  0.33079  Biso   1.000  N
  O49      1.0000 0.68157  0.11200  0.39100  Biso   1.000  O
  C167     1.0000 0.17445  0.21781  0.37330  Biso   1.000  C
  N110     1.0000 0.10136  0.25990  0.46531  Biso   1.000  N
  H159     1.0000 0.20488  0.30100  0.44552  Biso   1.000  H
  O50      1.0000 0.04154  0.26170  0.53210  Biso   1.000  O
  O51      1.0000 0.04161  0.26170  0.53210  Biso   1.000  O
  H160     1.0000 0.89112  0.11522  0.25220  Biso   1.000  H
  H161     1.0000 0.97364  0.07262  0.27382  Biso   1.000  H
  N111     1.0000 0.97008  0.14099  0.31532  Biso   1.000  N
  C168     1.0000 0.77101  0.17551  0.33079  Biso   1.000  C
  C169     1.0000 0.77107  0.17551  0.33079  Biso   1.000  C
  N112     1.0000 0.08394  0.19600  0.35392  Biso   1.000  N
  H162     1.0000 0.17683  0.25788  0.36230  Biso   1.000  H
  H163     1.0000 0.21697  0.19501  0.35971  Biso   1.000  H
  H164     1.0000 0.17683  0.25792  0.36230  Biso   1.000  H
  C170     1.0000 0.01999  0.28120  0.43189  Biso   1.000  C
  C171     1.0000 0.92654  0.19600  0.32072  Biso   1.000  C
  C172     1.0000 0.06482  0.14588  0.33079  Biso   1.000  C
  C173     1.0000 0.06482  0.14592  0.33079  Biso   1.000  C
  H165     1.0000 0.74847  0.18990  0.29741  Biso   1.000  H
  H166     1.0000 0.73413  0.19372  0.35061  Biso   1.000  H
  N113     1.0000 0.86226  0.19321  0.34841  Biso   1.000  N
  C174     1.0000 0.00569  0.23250  0.35111  Biso   1.000  C
  N114     1.0000 0.98118  0.23740  0.39711  Biso   1.000  N
  H167     1.0000 0.97525  0.29271  0.44980  Biso   1.000  H
  H168     1.0000 0.03499  0.31538  0.41502  Biso   1.000  H
  H169     1.0000 0.03499  0.31543  0.41502  Biso   1.000  H
  H170     1.0000 0.90006  0.21412  0.28871  Biso   1.000  H
  O52      1.0000 0.11857  0.10891  0.32521  Biso   1.000  O
  C175     1.0000 0.89389  0.21919  0.39211  Biso   1.000  C
  H171     1.0000 0.01128  0.27072  0.33622  Biso   1.000  H
  O53      1.0000 0.84943  0.22498  0.42290  Biso   1.000  O
  C176     1.0000 0.62052  0.50429  0.19311  Biso   1.000  C
  N115     1.0000 0.69629  0.47780  0.18739  Biso   1.000  N
  N116     1.0000 0.63210  0.56111  0.19940  Biso   1.000  N
  O54      1.0000 0.54829  0.47891  0.19318  Biso   1.000  O
  C177     1.0000 0.71123  0.41699  0.19289  Biso   1.000  C
  C178     1.0000 0.77065  0.51920  0.19541  Biso   1.000  C
  C179     1.0000 0.72892  0.57631  0.20530  Biso   1.000  C
  C180     1.0000 0.57363  0.59680  0.21782  Biso   1.000  C
  C181     1.0000 0.57362  0.59680  0.21778  Biso   1.000  C
  N117     1.0000 0.73591  0.38950  0.15401  Biso   1.000  N
  H172     1.0000 0.65517  0.39891  0.19732  Biso   1.000  H
  H173     1.0000 0.75950  0.41012  0.22260  Biso   1.000  H
  H174     1.0000 0.65509  0.39891  0.19728  Biso   1.000  H
  H175     1.0000 0.82215  0.50760  0.22282  Biso   1.000  H
  N118     1.0000 0.80115  0.53122  0.15221  Biso   1.000  N
  H176     1.0000 0.82214  0.50760  0.22278  Biso   1.000  H
  N119     1.0000 0.80113  0.53122  0.15218  Biso   1.000  N
  N120     1.0000 0.74253  0.61440  0.16919  Biso   1.000  N
  H177     1.0000 0.75749  0.59091  0.23839  Biso   1.000  H
  H178     1.0000 0.60892  0.61522  0.24781  Biso   1.000  H
  H179     1.0000 0.52640  0.57262  0.22620  Biso   1.000  H
  N121     1.0000 0.53004  0.64099  0.18469  Biso   1.000  N
  C182     1.0000 0.82676  0.39320  0.14581  Biso   1.000  C
  C183     1.0000 0.69229  0.34042  0.13340  Biso   1.000  C
  C184     1.0000 0.82670  0.39320  0.14581  Biso   1.000  C
  C185     1.0000 0.87148  0.49661  0.13890  Biso   1.000  C
  C186     1.0000 0.79062  0.58920  0.14178  Biso   1.000  C
  C187     1.0000 0.72902  0.67551  0.16919  Biso   1.000  C
  C188     1.0000 0.43520  0.64588  0.16919  Biso   1.000  C
  C189     1.0000 0.57350  0.69600  0.17930  Biso   1.000  C
  N122     1.0000 0.74570  0.31371  0.10891  Biso   1.000  N
  O55      1.0000 0.61816  0.32470  0.13912  Biso   1.000  O
  O56      1.0000 0.61808  0.32470  0.13908  Biso   1.000  O
  H180     1.0000 0.87461  0.39041  0.17671  Biso   1.000  H
  C190     1.0000 0.83054  0.34209  0.11330  Biso   1.000  C
  N123     1.0000 0.84124  0.44241  0.11830  Biso   1.000  N
  H181     1.0000 0.89633  0.51872  0.11571  Biso   1.000  H
  H182     1.0000 0.92149  0.49029  0.16800  Biso   1.000  H
  O57      1.0000 0.81854  0.61200  0.10902  Biso   1.000  O
  O58      1.0000 0.81852  0.61200  0.10898  Biso   1.000  O
  H183     1.0000 0.75164  0.68990  0.20260  Biso   1.000  H
  H184     1.0000 0.76592  0.69372  0.14941  Biso   1.000  H
  N124     1.0000 0.63785  0.69321  0.15160  Biso   1.000  N
  N125     1.0000 0.63779  0.69321  0.15160  Biso   1.000  N
  N126     1.0000 0.41611  0.69600  0.14610  Biso   1.000  N
  O59      1.0000 0.38154  0.60891  0.17480  Biso   1.000  O
  O60      1.0000 0.38148  0.60891  0.17480  Biso   1.000  O
  C191     1.0000 0.49442  0.73250  0.14890  Biso   1.000  C
  H185     1.0000 0.60005  0.71412  0.21131  Biso   1.000  H
  C192     1.0000 0.72493  0.25560  0.08959  Biso   1.000  C
  H186     1.0000 0.88300  0.31641  0.12740  Biso   1.000  H
  N127     1.0000 0.84025  0.37022  0.06942  Biso   1.000  N
  N128     1.0000 0.84017  0.37022  0.06938  Biso   1.000  N
  C193     1.0000 0.85369  0.43009  0.07409  Biso   1.000  C
  C194     1.0000 0.60622  0.71919  0.10790  Biso   1.000  C
  C195     1.0000 0.32560  0.71781  0.12671  Biso   1.000  C
  C196     1.0000 0.32558  0.71781  0.12668  Biso   1.000  C
  H187     1.0000 0.48884  0.77072  0.16379  Biso   1.000  H
  N129     1.0000 0.51893  0.73740  0.10290  Biso   1.000  N
  H188     1.0000 0.67792  0.23860  0.10369  Biso   1.000  H
  H189     1.0000 0.78003  0.23151  0.09959  Biso   1.000  H
  N130     1.0000 0.69332  0.25449  0.03780  Biso   1.000  N
  C197     1.0000 0.86365  0.33591  0.03072  Biso   1.000  C
  C198     1.0000 0.86356  0.33591  0.03068  Biso   1.000  C
  O61      1.0000 0.87162  0.46049  0.04420  Biso   1.000  O
  O62      1.0000 0.65061  0.72498  0.07711  Biso   1.000  O
  O63      1.0000 0.65059  0.72498  0.07708  Biso   1.000  O
  H190     1.0000 0.28314  0.69501  0.14031  Biso   1.000  H
  H191     1.0000 0.32322  0.75792  0.13772  Biso   1.000  H
  H192     1.0000 0.32320  0.75792  0.13768  Biso   1.000  H
  N131     1.0000 0.29439  0.71648  0.07438  Biso   1.000  N
  C199     1.0000 0.48011  0.78120  0.06809  Biso   1.000  C
  C200     1.0000 0.60591  0.24371  0.01280  Biso   1.000  C
  C201     1.0000 0.75272  0.25440  0.00619  Biso   1.000  C
  C202     1.0000 0.75266  0.25440  0.00619  Biso   1.000  C
  H193     1.0000 0.90392  0.30400  0.04539  Biso   1.000  H
  H194     1.0000 0.89749  0.36052  0.01320  Biso   1.000  H
  N132     1.0000 0.78589  0.31272  0.99705  Biso   1.000  N
  N133     1.0000 0.78581  0.31272  0.99701  Biso   1.000  N
  C203     1.0000 0.23870  0.67349  0.05129  Biso   1.000  C
  C204     1.0000 0.30984  0.76230  0.04341  Biso   1.000  C
  C205     1.0000 0.30976  0.76230  0.04338  Biso   1.000  C
  H195     1.0000 0.52479  0.79271  0.05021  Biso   1.000  H
  H196     1.0000 0.46512  0.81538  0.08499  Biso   1.000  H
  N134     1.0000 0.39869  0.75990  0.03471  Biso   1.000  N
  N135     1.0000 0.60146  0.24010  0.96533  Biso   1.000  N
  O64      1.0000 0.54151  0.23830  0.03212  Biso   1.000  O
  O65      1.0000 0.54150  0.23830  0.03208  Biso   1.000  O
  C206     1.0000 0.69031  0.23770  0.95662  Biso   1.000  C
  H197     1.0000 0.80384  0.22670  0.01690  Biso   1.000  H
  H198     1.0000 0.80378  0.22670  0.01690  Biso   1.000  H
  C207     1.0000 0.76143  0.32651  0.94871  Biso   1.000  C
  O66      1.0000 0.21252  0.63162  0.06852  Biso   1.000  O
  N136     1.0000 0.21426  0.68732  0.00299  Biso   1.000  N
  O67      1.0000 0.21251  0.63162  0.06848  Biso   1.000  O
  C208     1.0000 0.24749  0.74560  0.99385  Biso   1.000  C
  C209     1.0000 0.24741  0.74560  0.99381  Biso   1.000  C
  H199     1.0000 0.29517  0.80100  0.05449  Biso   1.000  H
  C210     1.0000 0.39424  0.75629  0.98723  Biso   1.000  C
  C211     1.0000 0.52004  0.21880  0.93195  Biso   1.000  C
  C212     1.0000 0.52003  0.21880  0.93191  Biso   1.000  C
  H200     1.0000 0.70498  0.19900  0.94555  Biso   1.000  H
  N137     1.0000 0.70575  0.28352  0.92562  Biso   1.000  N
  H201     1.0000 0.70490  0.19900  0.94551  Biso   1.000  H
  O68      1.0000 0.78762  0.36842  0.93152  Biso   1.000  O
  C213     1.0000 0.13657  0.66409  0.96932  Biso   1.000  C
  C214     1.0000 0.13650  0.66409  0.96932  Biso   1.000  C
  N138     1.0000 0.30683  0.74551  0.96223  Biso   1.000  N
  H202     1.0000 0.19630  0.77330  0.98313  Biso   1.000  H
  O69      1.0000 0.45864  0.76170  0.96792  Biso   1.000  O
  H203     1.0000 0.47535  0.20729  0.94983  Biso   1.000  H
  N139     1.0000 0.48122  0.26260  0.89713  Biso   1.000  N
  H204     1.0000 0.53501  0.18462  0.91501  Biso   1.000  H
  C215     1.0000 0.67449  0.28219  0.87332  Biso   1.000  C
  H205     1.0000 0.09623  0.69600  0.95465  Biso   1.000  H
  H206     1.0000 0.10266  0.63948  0.98684  Biso   1.000  H
  N140     1.0000 0.15996  0.62982  0.93062  Biso   1.000  N
  H207     1.0000 0.09621  0.69600  0.95461  Biso   1.000  H
  N141     1.0000 0.15989  0.62982  0.93062  Biso   1.000  N
  C216     1.0000 0.27522  0.74440  0.91044  Biso   1.000  C
  C217     1.0000 0.39393  0.28081  0.89213  Biso   1.000  C
  C218     1.0000 0.50573  0.26750  0.85113  Biso   1.000  C
  H208     1.0000 0.67693  0.24212  0.86232  Biso   1.000  H
  H209     1.0000 0.71701  0.30499  0.85973  Biso   1.000  H
  N142     1.0000 0.58404  0.30400  0.85394  Biso   1.000  N
  C219     1.0000 0.14646  0.56991  0.92594  Biso   1.000  C
  C220     1.0000 0.16961  0.65791  0.88674  Biso   1.000  C
  C221     1.0000 0.14638  0.56991  0.92591  Biso   1.000  C
  H210     1.0000 0.32223  0.76140  0.89634  Biso   1.000  H
  H211     1.0000 0.22012  0.76849  0.90044  Biso   1.000  H
  N143     1.0000 0.25444  0.68629  0.89113  Biso   1.000  N
  O70      1.0000 0.34954  0.27502  0.92292  Biso   1.000  O
  N144     1.0000 0.36229  0.30679  0.84843  Biso   1.000  N
  H212     1.0000 0.51131  0.22932  0.83624  Biso   1.000  H
  C222     1.0000 0.42665  0.30400  0.82074  Biso   1.000  C
  C223     1.0000 0.56493  0.35412  0.83081  Biso   1.000  C
  N145     1.0000 0.15891  0.55759  0.88174  Biso   1.000  N
  O71      1.0000 0.12852  0.53951  0.95583  Biso   1.000  O
  H213     1.0000 0.11715  0.68359  0.87264  Biso   1.000  H
  C224     1.0000 0.17338  0.60680  0.85423  Biso   1.000  C
  C225     1.0000 0.30779  0.65962  0.86663  Biso   1.000  C
  C226     1.0000 0.27111  0.32449  0.83081  Biso   1.000  C
  H214     1.0000 0.40010  0.28588  0.78873  Biso   1.000  H
  N146     1.0000 0.47010  0.35901  0.81531  Biso   1.000  N
  O72      1.0000 0.61860  0.39109  0.82524  Biso   1.000  O
  C227     1.0000 0.12860  0.50339  0.86113  Biso   1.000  C
  H215     1.0000 0.12553  0.60959  0.82333  Biso   1.000  H
  N147     1.0000 0.26424  0.61050  0.84603  Biso   1.000  N
  O73      1.0000 0.38199  0.67530  0.86092  Biso   1.000  O
  H216     1.0000 0.24851  0.31010  0.79743  Biso   1.000  H
  H217     1.0000 0.23423  0.30632  0.85063  Biso   1.000  H
  N148     1.0000 0.25760  0.38560  0.83081  Biso   1.000  N
  C228     1.0000 0.42652  0.40320  0.78222  Biso   1.000  C
  N149     1.0000 0.19900  0.46882  0.84782  Biso   1.000  N
  H218     1.0000 0.10382  0.48132  0.88433  Biso   1.000  H
  H219     1.0000 0.07859  0.50971  0.83203  Biso   1.000  H
  C229     1.0000 0.28892  0.58301  0.80714  Biso   1.000  C
  C230     1.0000 0.28890  0.58301  0.80711  Biso   1.000  C
  C231     1.0000 0.20951  0.41080  0.85822  Biso   1.000  C
  C232     1.0000 0.27122  0.42369  0.79474  Biso   1.000  C
  H220     1.0000 0.39122  0.38478  0.75222  Biso   1.000  H
  N150     1.0000 0.36805  0.43889  0.80063  Biso   1.000  N
  H221     1.0000 0.47368  0.42738  0.77384  Biso   1.000  H
  N151     1.0000 0.36799  0.43889  0.80063  Biso   1.000  N
  C233     1.0000 0.22950  0.48080  0.80463  Biso   1.000  C
  N152     1.0000 0.30386  0.52220  0.81265  Biso   1.000  N
  N153     1.0000 0.30378  0.52220  0.81261  Biso   1.000  N
  H222     1.0000 0.24065  0.58988  0.77744  Biso   1.000  H
  H223     1.0000 0.24058  0.58988  0.77744  Biso   1.000  H
  H224     1.0000 0.34498  0.60109  0.80272  Biso   1.000  H
  O74      1.0000 0.18161  0.38800  0.89102  Biso   1.000  O
  H225     1.0000 0.24259  0.40909  0.76165  Biso   1.000  H
  H226     1.0000 0.24258  0.40909  0.76161  Biso   1.000  H
  C234     1.0000 0.37963  0.49571  0.80693  Biso   1.000  C
  H227     1.0000 0.17799  0.49240  0.77722  Biso   1.000  H
  O75      1.0000 0.45184  0.52109  0.80682  Biso   1.000  O
  Ne1      1.0000 0.50007  0.50000  0.50001  Biso   1.000  Ne
  He1      1.0000 0.31098  0.44933  0.52905  Biso   1.000  He
  He2      1.0000 0.69197  0.57246  0.47415  Biso   1.000  He
  Ar1      1.0000 0.50007  0.50000  0.50001  Biso   1.000  Ar
  Ne2      1.0000 0.50180  0.50368  0.00651  Biso   1.000  Ne
  He3      1.0000 0.35783  0.41594  0.04800  Biso   1.000  He
  He4      1.0000 0.63875  0.58235  0.95328  Biso   1.000  He
  Ar2      1.0000 0.49770  0.50366  0.00007  Biso   1.000  Ar
  Ne3      1.0000 0.00155  0.99896  0.50155  Biso   1.000  Ne
  He5      1.0000 0.86565  0.08019  0.54517  Biso   1.000  He
  He6      1.0000 0.14371  0.91521  0.45146  Biso   1.000  He
  Ar3      1.0000 0.00057  0.99898  0.49997  Biso   1.000  Ar
  Ne4      1.0000 0.98556  0.99675  0.98632  Biso   1.000  Ne
  He7      1.0000 0.81820  0.04818  0.02795  Biso   1.000  He
  He8      1.0000 0.17014  0.93558  0.97739  Biso   1.000  He
  Ar4      1.0000 0.99645  0.00069  0.99980  Biso   1.000  Ar
