data_image0
_cell_length_a       42.526
_cell_length_b       15.758
_cell_length_c       16.686
_cell_angle_alpha    90
_cell_angle_beta     90
_cell_angle_gamma    90

_symmetry_space_group_name_H-M    "P 1"
_symmetry_int_tables_number       1

loop_
  _symmetry_equiv_pos_as_xyz
  'x, y, z'

loop_
  _atom_site_label
  _atom_site_occupancy
  _atom_site_fract_x
  _atom_site_fract_y
  _atom_site_fract_z
  _atom_site_thermal_displace_type
  _atom_site_B_iso_or_equiv
  _atom_site_type_symbol
  O1       1.0000 0.53598  0.56409  0.48028  Biso   1.000  O
  C1       1.0000 0.53196  0.64837  0.46111  Biso   1.000  C
  C2       1.0000 0.53546  0.54131  0.56341  Biso   1.000  C
  C3       1.0000 0.53292  0.66842  0.37930  Biso   1.000  C
  C4       1.0000 0.52779  0.71183  0.51828  Biso   1.000  C
  H1       1.0000 0.51430  0.55128  0.58630  Biso   1.000  H
  H2       1.0000 0.55091  0.57558  0.59367  Biso   1.000  H
  C5       1.0000 0.54374  0.44872  0.56808  Biso   1.000  C
  C6       1.0000 0.53805  0.60103  0.31679  Biso   1.000  C
  C7       1.0000 0.53024  0.75333  0.35761  Biso   1.000  C
  C8       1.0000 0.52526  0.79731  0.49628  Biso   1.000  C
  H3       1.0000 0.52669  0.69679  0.57329  Biso   1.000  H
  H4       1.0000 0.53111  0.41693  0.52931  Biso   1.000  H
  H5       1.0000 0.53941  0.42772  0.62232  Biso   1.000  H
  H6       1.0000 0.56610  0.44117  0.55580  Biso   1.000  H
  C9       1.0000 0.57268  0.58783  0.30061  Biso   1.000  C
  H7       1.0000 0.52740  0.61778  0.26651  Biso   1.000  H
  H8       1.0000 0.52859  0.54702  0.33531  Biso   1.000  H
  H9       1.0000 0.53019  0.76793  0.30229  Biso   1.000  H
  C10      1.0000 0.52751  0.81730  0.41472  Biso   1.000  C
  C11      1.0000 0.52368  0.86470  0.55981  Biso   1.000  C
  C12      1.0000 0.58870  0.63568  0.24338  Biso   1.000  C
  C13      1.0000 0.58990  0.52887  0.34478  Biso   1.000  C
  O2       1.0000 0.52549  0.90227  0.39518  Biso   1.000  O
  C14      1.0000 0.55622  0.89199  0.58708  Biso   1.000  C
  H10      1.0000 0.51171  0.84268  0.60632  Biso   1.000  H
  H11      1.0000 0.51230  0.91452  0.53842  Biso   1.000  H
  O3       1.0000 0.57047  0.69520  0.20412  Biso   1.000  O
  C15      1.0000 0.62021  0.62318  0.22971  Biso   1.000  C
  H12      1.0000 0.57941  0.49562  0.38409  Biso   1.000  H
  C16      1.0000 0.62185  0.51758  0.33279  Biso   1.000  C
  C17      1.0000 0.53751  0.92683  0.31859  Biso   1.000  C
  C18      1.0000 0.57184  0.95761  0.54818  Biso   1.000  C
  C19      1.0000 0.57184  0.85011  0.64941  Biso   1.000  C
  C20      1.0000 0.58463  0.74419  0.14168  Biso   1.000  C
  C21      1.0000 0.63749  0.56422  0.27388  Biso   1.000  C
  H13      1.0000 0.63039  0.65541  0.18920  Biso   1.000  H
  O4       1.0000 0.63991  0.46167  0.37708  Biso   1.000  O
  H14      1.0000 0.52450  0.90157  0.27550  Biso   1.000  H
  H15      1.0000 0.55940  0.90621  0.31218  Biso   1.000  H
  C22      1.0000 0.53671  0.02132  0.31308  Biso   1.000  C
  H16      1.0000 0.56140  0.98718  0.50641  Biso   1.000  H
  C23      1.0000 0.60210  0.98090  0.56850  Biso   1.000  C
  O5       1.0000 0.55512  0.78601  0.68680  Biso   1.000  O
  C24      1.0000 0.60196  0.87359  0.67032  Biso   1.000  C
  H17      1.0000 0.59359  0.70637  0.10020  Biso   1.000  H
  H18      1.0000 0.60170  0.77992  0.16367  Biso   1.000  H
  C25      1.0000 0.55928  0.79871  0.10662  Biso   1.000  C
  C26      1.0000 0.67222  0.55172  0.25812  Biso   1.000  C
  C27      1.0000 0.62541  0.42252  0.44420  Biso   1.000  C
  H19      1.0000 0.51479  0.04093  0.31631  Biso   1.000  H
  H20      1.0000 0.54590  0.03928  0.26190  Biso   1.000  H
  H21      1.0000 0.54879  0.04582  0.35743  Biso   1.000  H
  C28      1.0000 0.61807  0.93940  0.63101  Biso   1.000  C
  O6       1.0000 0.61790  0.04779  0.53320  Biso   1.000  O
  C29      1.0000 0.56899  0.74680  0.75518  Biso   1.000  C
  H22      1.0000 0.61219  0.84440  0.71281  Biso   1.000  H
  H23      1.0000 0.54200  0.76272  0.08792  Biso   1.000  H
  H24      1.0000 0.56779  0.83101  0.06131  Biso   1.000  H
  H25      1.0000 0.55150  0.83799  0.14749  Biso   1.000  H
  C30      1.0000 0.69285  0.60928  0.30978  Biso   1.000  C
  H26      1.0000 0.67660  0.56340  0.20083  Biso   1.000  H
  H27      1.0000 0.67780  0.49181  0.26873  Biso   1.000  H
  H28      1.0000 0.60951  0.38082  0.42593  Biso   1.000  H
  H29      1.0000 0.61471  0.46580  0.47741  Biso   1.000  H
  C31      1.0000 0.65054  0.37841  0.49281  Biso   1.000  C
  C32      1.0000 0.65118  0.96250  0.65378  Biso   1.000  C
  C33      1.0000 0.60819  0.07190  0.45469  Biso   1.000  C
  H30      1.0000 0.57450  0.79020  0.79570  Biso   1.000  H
  H31      1.0000 0.58839  0.71621  0.73972  Biso   1.000  H
  C34      1.0000 0.54529  0.68600  0.78892  Biso   1.000  C
  C35      1.0000 0.70127  0.68949  0.28281  Biso   1.000  C
  C36      1.0000 0.70270  0.58320  0.38511  Biso   1.000  C
  H32      1.0000 0.66000  0.33297  0.46081  Biso   1.000  H
  H33      1.0000 0.64109  0.35430  0.54129  Biso   1.000  H
  H34      1.0000 0.66679  0.41947  0.50791  Biso   1.000  H
  H35      1.0000 0.65440  0.94968  0.71137  Biso   1.000  H
  C37      1.0000 0.67622  0.91458  0.60422  Biso   1.000  C
  H36      1.0000 0.65409  0.02431  0.64641  Biso   1.000  H
  H37      1.0000 0.58599  0.09113  0.45577  Biso   1.000  H
  H38      1.0000 0.60979  0.02272  0.41802  Biso   1.000  H
  C38      1.0000 0.62884  0.14177  0.42623  Biso   1.000  C
  H39      1.0000 0.52490  0.71462  0.79432  Biso   1.000  H
  H40      1.0000 0.55230  0.66620  0.84160  Biso   1.000  H
  H41      1.0000 0.54310  0.63733  0.75279  Biso   1.000  H
  O7       1.0000 0.69092  0.71240  0.20778  Biso   1.000  O
  C39      1.0000 0.71881  0.74299  0.33237  Biso   1.000  C
  H42      1.0000 0.69750  0.52780  0.40339  Biso   1.000  H
  C40      1.0000 0.72015  0.63701  0.43432  Biso   1.000  C
  C41      1.0000 0.68605  0.94682  0.53152  Biso   1.000  C
  C42      1.0000 0.68918  0.83932  0.63149  Biso   1.000  C
  H43      1.0000 0.62479  0.19298  0.45793  Biso   1.000  H
  H44      1.0000 0.62439  0.15338  0.36959  Biso   1.000  H
  H45      1.0000 0.65090  0.12521  0.43240  Biso   1.000  H
  C43      1.0000 0.69967  0.79433  0.17871  Biso   1.000  C
  C44      1.0000 0.72845  0.71792  0.40819  Biso   1.000  C
  H46      1.0000 0.72431  0.79801  0.31380  Biso   1.000  H
  O8       1.0000 0.73094  0.61378  0.50959  Biso   1.000  O
  C45      1.0000 0.70851  0.90449  0.48502  Biso   1.000  C
  H47      1.0000 0.67740  0.99860  0.51259  Biso   1.000  H
  C46      1.0000 0.71189  0.79782  0.58612  Biso   1.000  C
  O9       1.0000 0.67836  0.80829  0.70382  Biso   1.000  O
  H48      1.0000 0.72280  0.79807  0.17350  Biso   1.000  H
  H49      1.0000 0.69249  0.83881  0.21653  Biso   1.000  H
  C47      1.0000 0.68443  0.80638  0.09871  Biso   1.000  C
  C48      1.0000 0.74519  0.78018  0.46200  Biso   1.000  C
  C49      1.0000 0.72212  0.53243  0.53937  Biso   1.000  C
  C50      1.0000 0.72172  0.82923  0.51259  Biso   1.000  C
  O10      1.0000 0.71909  0.93229  0.41190  Biso   1.000  O
  H50      1.0000 0.72090  0.74680  0.60590  Biso   1.000  H
  C51      1.0000 0.69351  0.73258  0.73349  Biso   1.000  C
  H51      1.0000 0.69099  0.76088  0.06239  Biso   1.000  H
  H52      1.0000 0.69071  0.86140  0.07641  Biso   1.000  H
  H53      1.0000 0.66150  0.80499  0.10488  Biso   1.000  H
  H54      1.0000 0.75761  0.82028  0.42898  Biso   1.000  H
  H55      1.0000 0.75991  0.74927  0.49748  Biso   1.000  H
  H56      1.0000 0.72930  0.48737  0.50228  Biso   1.000  H
  H57      1.0000 0.69901  0.52868  0.54459  Biso   1.000  H
  C52      1.0000 0.73743  0.52139  0.62028  Biso   1.000  C
  C53      1.0000 0.70644  0.01072  0.38152  Biso   1.000  C
  H58      1.0000 0.68951  0.68460  0.69657  Biso   1.000  H
  H59      1.0000 0.71650  0.74172  0.73679  Biso   1.000  H
  C54      1.0000 0.68109  0.71367  0.81152  Biso   1.000  C
  H60      1.0000 0.76031  0.52729  0.61483  Biso   1.000  H
  H61      1.0000 0.73249  0.46497  0.64150  Biso   1.000  H
  H62      1.0000 0.72951  0.56479  0.65720  Biso   1.000  H
  H63      1.0000 0.71180  0.05813  0.41790  Biso   1.000  H
  H64      1.0000 0.68330  0.00692  0.37732  Biso   1.000  H
  C55      1.0000 0.72057  0.02488  0.30097  Biso   1.000  C
  H65      1.0000 0.68539  0.76120  0.84778  Biso   1.000  H
  H66      1.0000 0.69111  0.66220  0.83231  Biso   1.000  H
  H67      1.0000 0.65840  0.70478  0.80768  Biso   1.000  H
  H68      1.0000 0.71521  0.97741  0.26567  Biso   1.000  H
  H69      1.0000 0.74350  0.02919  0.30612  Biso   1.000  H
  H70      1.0000 0.71229  0.07767  0.27820  Biso   1.000  H
  O11      1.0000 0.46402  0.43591  0.51972  Biso   1.000  O
  C56      1.0000 0.46804  0.35163  0.53889  Biso   1.000  C
  C57      1.0000 0.46454  0.45869  0.43659  Biso   1.000  C
  C58      1.0000 0.47221  0.28817  0.48172  Biso   1.000  C
  C59      1.0000 0.46708  0.33158  0.62070  Biso   1.000  C
  H71      1.0000 0.48570  0.44872  0.41370  Biso   1.000  H
  H72      1.0000 0.44909  0.42442  0.40633  Biso   1.000  H
  C60      1.0000 0.45626  0.55128  0.43192  Biso   1.000  C
  C61      1.0000 0.47474  0.20269  0.50372  Biso   1.000  C
  H73      1.0000 0.47331  0.30321  0.42671  Biso   1.000  H
  C62      1.0000 0.46976  0.24667  0.64239  Biso   1.000  C
  C63      1.0000 0.46195  0.39897  0.68321  Biso   1.000  C
  H74      1.0000 0.46889  0.58307  0.47069  Biso   1.000  H
  H75      1.0000 0.46059  0.57228  0.37768  Biso   1.000  H
  H76      1.0000 0.43390  0.55883  0.44420  Biso   1.000  H
  C64      1.0000 0.47632  0.13530  0.44019  Biso   1.000  C
  C65      1.0000 0.47249  0.18270  0.58528  Biso   1.000  C
  H77      1.0000 0.46981  0.23207  0.69771  Biso   1.000  H
  C66      1.0000 0.42732  0.41217  0.69939  Biso   1.000  C
  H78      1.0000 0.47260  0.38222  0.73349  Biso   1.000  H
  H79      1.0000 0.47141  0.45298  0.66469  Biso   1.000  H
  C67      1.0000 0.44378  0.10801  0.41292  Biso   1.000  C
  H80      1.0000 0.48829  0.15732  0.39368  Biso   1.000  H
  H81      1.0000 0.48770  0.08548  0.46158  Biso   1.000  H
  O12      1.0000 0.47451  0.09773  0.60482  Biso   1.000  O
  C68      1.0000 0.41130  0.36432  0.75662  Biso   1.000  C
  C69      1.0000 0.41010  0.47113  0.65522  Biso   1.000  C
  C70      1.0000 0.42816  0.04239  0.45182  Biso   1.000  C
  C71      1.0000 0.42816  0.14989  0.35059  Biso   1.000  C
  C72      1.0000 0.46249  0.07317  0.68141  Biso   1.000  C
  C73      1.0000 0.37979  0.37682  0.77029  Biso   1.000  C
  O13      1.0000 0.42953  0.30480  0.79588  Biso   1.000  O
  C74      1.0000 0.37815  0.48242  0.66721  Biso   1.000  C
  H82      1.0000 0.42059  0.50438  0.61591  Biso   1.000  H
  C75      1.0000 0.39790  0.01910  0.43150  Biso   1.000  C
  H83      1.0000 0.43860  0.01282  0.49359  Biso   1.000  H
  C76      1.0000 0.39804  0.12641  0.32968  Biso   1.000  C
  O14      1.0000 0.44488  0.21399  0.31320  Biso   1.000  O
  H84      1.0000 0.47550  0.09843  0.72450  Biso   1.000  H
  H85      1.0000 0.44060  0.09379  0.68782  Biso   1.000  H
  C77      1.0000 0.46329  0.97868  0.68692  Biso   1.000  C
  C78      1.0000 0.36251  0.43578  0.72612  Biso   1.000  C
  H86      1.0000 0.36961  0.34459  0.81080  Biso   1.000  H
  C79      1.0000 0.41537  0.25581  0.85832  Biso   1.000  C
  O15      1.0000 0.36009  0.53833  0.62292  Biso   1.000  O
  C80      1.0000 0.38193  0.06060  0.36899  Biso   1.000  C
  O16      1.0000 0.38210  0.95221  0.46680  Biso   1.000  O
  H87      1.0000 0.38781  0.15560  0.28719  Biso   1.000  H
  C81      1.0000 0.43101  0.25320  0.24482  Biso   1.000  C
  H88      1.0000 0.48521  0.95907  0.68369  Biso   1.000  H
  H89      1.0000 0.45410  0.96072  0.73810  Biso   1.000  H
  H90      1.0000 0.45121  0.95418  0.64257  Biso   1.000  H
  C82      1.0000 0.32778  0.44828  0.74188  Biso   1.000  C
  H91      1.0000 0.40641  0.29363  0.89980  Biso   1.000  H
  H92      1.0000 0.39830  0.22008  0.83633  Biso   1.000  H
  C83      1.0000 0.44072  0.20129  0.89338  Biso   1.000  C
  C84      1.0000 0.37459  0.57748  0.55580  Biso   1.000  C
  C85      1.0000 0.34882  0.03750  0.34622  Biso   1.000  C
  C86      1.0000 0.39181  0.92810  0.54531  Biso   1.000  C
  H93      1.0000 0.42550  0.20980  0.20430  Biso   1.000  H
  H94      1.0000 0.41161  0.28379  0.26028  Biso   1.000  H
  C87      1.0000 0.45471  0.31400  0.21108  Biso   1.000  C
  C88      1.0000 0.30715  0.39072  0.69022  Biso   1.000  C
  H95      1.0000 0.32340  0.43660  0.79917  Biso   1.000  H
  H96      1.0000 0.32220  0.50819  0.73127  Biso   1.000  H
  H97      1.0000 0.45800  0.23728  0.91208  Biso   1.000  H
  H98      1.0000 0.43221  0.16899  0.93869  Biso   1.000  H
  H99      1.0000 0.44850  0.16201  0.85251  Biso   1.000  H
  H100     1.0000 0.39049  0.61918  0.57407  Biso   1.000  H
  H101     1.0000 0.38529  0.53420  0.52259  Biso   1.000  H
  C89      1.0000 0.34946  0.62159  0.50719  Biso   1.000  C
  C90      1.0000 0.32378  0.08542  0.39578  Biso   1.000  C
  H102     1.0000 0.34560  0.05032  0.28863  Biso   1.000  H
  H103     1.0000 0.34591  0.97569  0.35359  Biso   1.000  H
  H104     1.0000 0.41401  0.90887  0.54423  Biso   1.000  H
  H105     1.0000 0.39021  0.97728  0.58198  Biso   1.000  H
  C91      1.0000 0.37116  0.85823  0.57377  Biso   1.000  C
  H106     1.0000 0.47510  0.28538  0.20568  Biso   1.000  H
  H107     1.0000 0.44770  0.33380  0.15840  Biso   1.000  H
  H108     1.0000 0.45690  0.36267  0.24721  Biso   1.000  H
  C92      1.0000 0.29873  0.31051  0.71719  Biso   1.000  C
  C93      1.0000 0.29730  0.41680  0.61489  Biso   1.000  C
  H109     1.0000 0.34000  0.66703  0.53919  Biso   1.000  H
  H110     1.0000 0.35891  0.64570  0.45871  Biso   1.000  H
  H111     1.0000 0.33321  0.58053  0.49209  Biso   1.000  H
  C94      1.0000 0.31082  0.16068  0.36851  Biso   1.000  C
  C95      1.0000 0.31395  0.05318  0.46848  Biso   1.000  C
  H112     1.0000 0.37521  0.80702  0.54207  Biso   1.000  H
  H113     1.0000 0.37561  0.84662  0.63041  Biso   1.000  H
  H114     1.0000 0.34910  0.87479  0.56760  Biso   1.000  H
  C96      1.0000 0.28119  0.25701  0.66763  Biso   1.000  C
  O17      1.0000 0.30908  0.28760  0.79222  Biso   1.000  O
  C97      1.0000 0.27985  0.36299  0.56568  Biso   1.000  C
  H115     1.0000 0.30250  0.47220  0.59661  Biso   1.000  H
  O18      1.0000 0.32164  0.19171  0.29618  Biso   1.000  O
  C98      1.0000 0.28811  0.20218  0.41388  Biso   1.000  C
  H116     1.0000 0.32260  0.00140  0.48741  Biso   1.000  H
  C99      1.0000 0.29149  0.09551  0.51498  Biso   1.000  C
  C100     1.0000 0.27155  0.28208  0.59181  Biso   1.000  C
  H117     1.0000 0.27569  0.20199  0.68620  Biso   1.000  H
  C101     1.0000 0.30033  0.20567  0.82129  Biso   1.000  C
  O19      1.0000 0.26906  0.38622  0.49041  Biso   1.000  O
  C102     1.0000 0.30649  0.26742  0.26651  Biso   1.000  C
  C103     1.0000 0.27828  0.17077  0.48741  Biso   1.000  C
  H118     1.0000 0.27910  0.25320  0.39410  Biso   1.000  H
  O20      1.0000 0.28091  0.06771  0.58810  Biso   1.000  O
  C104     1.0000 0.25481  0.21982  0.53800  Biso   1.000  C
  H119     1.0000 0.27720  0.20193  0.82650  Biso   1.000  H
  H120     1.0000 0.30751  0.16119  0.78347  Biso   1.000  H
  C105     1.0000 0.31557  0.19362  0.90129  Biso   1.000  C
  C106     1.0000 0.27788  0.46757  0.46063  Biso   1.000  C
  H121     1.0000 0.31049  0.31540  0.30343  Biso   1.000  H
  H122     1.0000 0.28350  0.25828  0.26321  Biso   1.000  H
  C107     1.0000 0.31891  0.28633  0.18848  Biso   1.000  C
  C108     1.0000 0.29356  0.98928  0.61848  Biso   1.000  C
  H123     1.0000 0.24239  0.17972  0.57102  Biso   1.000  H
  H124     1.0000 0.24009  0.25073  0.50252  Biso   1.000  H
  H125     1.0000 0.30901  0.23912  0.93761  Biso   1.000  H
  H126     1.0000 0.30929  0.13860  0.92359  Biso   1.000  H
  H127     1.0000 0.33850  0.19501  0.89512  Biso   1.000  H
  H128     1.0000 0.27070  0.51263  0.49772  Biso   1.000  H
  H129     1.0000 0.30099  0.47132  0.45541  Biso   1.000  H
  C109     1.0000 0.26257  0.47861  0.37972  Biso   1.000  C
  H130     1.0000 0.31461  0.23880  0.15222  Biso   1.000  H
  H131     1.0000 0.30889  0.33780  0.16769  Biso   1.000  H
  H132     1.0000 0.34160  0.29522  0.19232  Biso   1.000  H
  H133     1.0000 0.28820  0.94187  0.58210  Biso   1.000  H
  H134     1.0000 0.31670  0.99308  0.62268  Biso   1.000  H
  C110     1.0000 0.27943  0.97512  0.69903  Biso   1.000  C
  H135     1.0000 0.23969  0.47271  0.38517  Biso   1.000  H
  H136     1.0000 0.26751  0.53503  0.35850  Biso   1.000  H
  H137     1.0000 0.27049  0.43521  0.34280  Biso   1.000  H
  H138     1.0000 0.28479  0.02259  0.73433  Biso   1.000  H
  H139     1.0000 0.25650  0.97081  0.69388  Biso   1.000  H
  H140     1.0000 0.28771  0.92233  0.72180  Biso   1.000  H
  O21      1.0000 0.57047  0.30480  0.70412  Biso   1.000  O
  C111     1.0000 0.58463  0.25581  0.64168  Biso   1.000  C
  C112     1.0000 0.58870  0.36432  0.74338  Biso   1.000  C
  C113     1.0000 0.55928  0.20129  0.60662  Biso   1.000  C
  H141     1.0000 0.59359  0.29363  0.60020  Biso   1.000  H
  H142     1.0000 0.60170  0.22008  0.66367  Biso   1.000  H
  C114     1.0000 0.62021  0.37682  0.72971  Biso   1.000  C
  C115     1.0000 0.57268  0.41217  0.80061  Biso   1.000  C
  H143     1.0000 0.54200  0.23728  0.58792  Biso   1.000  H
  H144     1.0000 0.56779  0.16899  0.56131  Biso   1.000  H
  H145     1.0000 0.55150  0.16201  0.64749  Biso   1.000  H
  C116     1.0000 0.63749  0.43578  0.77388  Biso   1.000  C
  H146     1.0000 0.63039  0.34459  0.68920  Biso   1.000  H
  C117     1.0000 0.58990  0.47113  0.84478  Biso   1.000  C
  C118     1.0000 0.53805  0.39897  0.81679  Biso   1.000  C
  C119     1.0000 0.67222  0.44828  0.75812  Biso   1.000  C
  C120     1.0000 0.62185  0.48242  0.83279  Biso   1.000  C
  H147     1.0000 0.57941  0.50438  0.88409  Biso   1.000  H
  H148     1.0000 0.52740  0.38222  0.76651  Biso   1.000  H
  H149     1.0000 0.52859  0.45298  0.83531  Biso   1.000  H
  C121     1.0000 0.53292  0.33158  0.87930  Biso   1.000  C
  C122     1.0000 0.69285  0.39072  0.80978  Biso   1.000  C
  H150     1.0000 0.67660  0.43660  0.70083  Biso   1.000  H
  H151     1.0000 0.67780  0.50819  0.76873  Biso   1.000  H
  O22      1.0000 0.63991  0.53833  0.87708  Biso   1.000  O
  C123     1.0000 0.53024  0.24667  0.85761  Biso   1.000  C
  C124     1.0000 0.53196  0.35163  0.96111  Biso   1.000  C
  C125     1.0000 0.70127  0.31051  0.78281  Biso   1.000  C
  C126     1.0000 0.70270  0.41680  0.88511  Biso   1.000  C
  C127     1.0000 0.62541  0.57748  0.94420  Biso   1.000  C
  H152     1.0000 0.53019  0.23207  0.80229  Biso   1.000  H
  C128     1.0000 0.52751  0.18270  0.91472  Biso   1.000  C
  O23      1.0000 0.53598  0.43591  0.98028  Biso   1.000  O
  C129     1.0000 0.52779  0.28817  0.01828  Biso   1.000  C
  O24      1.0000 0.69092  0.28760  0.70778  Biso   1.000  O
  C130     1.0000 0.71881  0.25701  0.83237  Biso   1.000  C
  H153     1.0000 0.69750  0.47220  0.90339  Biso   1.000  H
  C131     1.0000 0.72015  0.36299  0.93432  Biso   1.000  C
  H154     1.0000 0.60951  0.61918  0.92593  Biso   1.000  H
  H155     1.0000 0.61471  0.53420  0.97741  Biso   1.000  H
  C132     1.0000 0.65054  0.62159  0.99281  Biso   1.000  C
  O25      1.0000 0.52549  0.09773  0.89518  Biso   1.000  O
  C133     1.0000 0.52526  0.20269  0.99628  Biso   1.000  C
  C134     1.0000 0.53546  0.45869  0.06341  Biso   1.000  C
  H156     1.0000 0.52669  0.30321  0.07329  Biso   1.000  H
  C135     1.0000 0.69967  0.20567  0.67871  Biso   1.000  C
  C136     1.0000 0.72845  0.28208  0.90819  Biso   1.000  C
  H157     1.0000 0.72431  0.20199  0.81380  Biso   1.000  H
  O26      1.0000 0.73094  0.38622  0.00959  Biso   1.000  O
  H158     1.0000 0.66000  0.66703  0.96081  Biso   1.000  H
  H159     1.0000 0.64109  0.64570  0.04129  Biso   1.000  H
  H160     1.0000 0.66679  0.58053  0.00791  Biso   1.000  H
  C137     1.0000 0.53751  0.07317  0.81859  Biso   1.000  C
  C138     1.0000 0.52368  0.13530  0.05981  Biso   1.000  C
  H161     1.0000 0.51430  0.44872  0.08630  Biso   1.000  H
  H162     1.0000 0.55091  0.42442  0.09367  Biso   1.000  H
  C139     1.0000 0.54374  0.55128  0.06808  Biso   1.000  C
  H163     1.0000 0.72280  0.20193  0.67350  Biso   1.000  H
  H164     1.0000 0.69249  0.16119  0.71653  Biso   1.000  H
  C140     1.0000 0.68443  0.19362  0.59871  Biso   1.000  C
  C141     1.0000 0.74519  0.21982  0.96200  Biso   1.000  C
  C142     1.0000 0.72212  0.46757  0.03937  Biso   1.000  C
  H165     1.0000 0.52450  0.09843  0.77550  Biso   1.000  H
  H166     1.0000 0.55940  0.09379  0.81218  Biso   1.000  H
  C143     1.0000 0.53671  0.97868  0.81308  Biso   1.000  C
  C144     1.0000 0.55622  0.10801  0.08708  Biso   1.000  C
  H167     1.0000 0.51171  0.15732  0.10632  Biso   1.000  H
  H168     1.0000 0.51230  0.08548  0.03842  Biso   1.000  H
  H169     1.0000 0.53111  0.58307  0.02931  Biso   1.000  H
  H170     1.0000 0.53941  0.57228  0.12232  Biso   1.000  H
  H171     1.0000 0.56610  0.55883  0.05580  Biso   1.000  H
  H172     1.0000 0.69099  0.23912  0.56239  Biso   1.000  H
  H173     1.0000 0.69071  0.13860  0.57641  Biso   1.000  H
  H174     1.0000 0.66150  0.19501  0.60488  Biso   1.000  H
  H175     1.0000 0.75761  0.17972  0.92898  Biso   1.000  H
  H176     1.0000 0.75991  0.25073  0.99748  Biso   1.000  H
  C145     1.0000 0.72172  0.17077  0.01259  Biso   1.000  C
  H177     1.0000 0.72930  0.51263  0.00228  Biso   1.000  H
  H178     1.0000 0.69901  0.47132  0.04459  Biso   1.000  H
  C146     1.0000 0.73743  0.47861  0.12028  Biso   1.000  C
  H179     1.0000 0.51479  0.95907  0.81631  Biso   1.000  H
  H180     1.0000 0.54590  0.96072  0.76190  Biso   1.000  H
  H181     1.0000 0.54879  0.95418  0.85743  Biso   1.000  H
  C147     1.0000 0.57184  0.04239  0.04818  Biso   1.000  C
  C148     1.0000 0.57184  0.14989  0.14941  Biso   1.000  C
  C149     1.0000 0.70851  0.09551  0.98502  Biso   1.000  C
  C150     1.0000 0.71189  0.20218  0.08612  Biso   1.000  C
  H182     1.0000 0.76031  0.47271  0.11483  Biso   1.000  H
  H183     1.0000 0.73249  0.53503  0.14150  Biso   1.000  H
  H184     1.0000 0.72951  0.43521  0.15720  Biso   1.000  H
  H185     1.0000 0.56140  0.01282  0.00641  Biso   1.000  H
  C151     1.0000 0.60210  0.01910  0.06850  Biso   1.000  C
  O27      1.0000 0.55512  0.21399  0.18680  Biso   1.000  O
  C152     1.0000 0.60196  0.12641  0.17032  Biso   1.000  C
  O28      1.0000 0.71909  0.06771  0.91190  Biso   1.000  O
  C153     1.0000 0.68605  0.05318  0.03152  Biso   1.000  C
  H186     1.0000 0.72090  0.25320  0.10590  Biso   1.000  H
  C154     1.0000 0.68918  0.16068  0.13149  Biso   1.000  C
  O29      1.0000 0.61790  0.95221  0.03320  Biso   1.000  O
  C155     1.0000 0.61807  0.06060  0.13101  Biso   1.000  C
  C156     1.0000 0.56899  0.25320  0.25518  Biso   1.000  C
  H187     1.0000 0.61219  0.15560  0.21281  Biso   1.000  H
  C157     1.0000 0.70644  0.98928  0.88152  Biso   1.000  C
  C158     1.0000 0.67622  0.08542  0.10422  Biso   1.000  C
  H188     1.0000 0.67740  0.00140  0.01259  Biso   1.000  H
  O30      1.0000 0.67836  0.19171  0.20382  Biso   1.000  O
  C159     1.0000 0.60819  0.92810  0.95469  Biso   1.000  C
  C160     1.0000 0.65118  0.03750  0.15378  Biso   1.000  C
  H189     1.0000 0.57450  0.20980  0.29570  Biso   1.000  H
  H190     1.0000 0.58839  0.28379  0.23972  Biso   1.000  H
  C161     1.0000 0.54529  0.31400  0.28892  Biso   1.000  C
  H191     1.0000 0.71180  0.94187  0.91790  Biso   1.000  H
  H192     1.0000 0.68330  0.99308  0.87732  Biso   1.000  H
  C162     1.0000 0.72057  0.97512  0.80097  Biso   1.000  C
  C163     1.0000 0.69351  0.26742  0.23349  Biso   1.000  C
  H193     1.0000 0.58599  0.90887  0.95577  Biso   1.000  H
  H194     1.0000 0.60979  0.97728  0.91802  Biso   1.000  H
  C164     1.0000 0.62884  0.85823  0.92623  Biso   1.000  C
  H195     1.0000 0.65409  0.97569  0.14641  Biso   1.000  H
  H196     1.0000 0.65440  0.05032  0.21137  Biso   1.000  H
  H197     1.0000 0.52490  0.28538  0.29432  Biso   1.000  H
  H198     1.0000 0.55230  0.33380  0.34160  Biso   1.000  H
  H199     1.0000 0.54310  0.36267  0.25279  Biso   1.000  H
  H200     1.0000 0.71521  0.02259  0.76567  Biso   1.000  H
  H201     1.0000 0.74350  0.97081  0.80612  Biso   1.000  H
  H202     1.0000 0.71229  0.92233  0.77820  Biso   1.000  H
  H203     1.0000 0.68951  0.31540  0.19657  Biso   1.000  H
  H204     1.0000 0.71650  0.25828  0.23679  Biso   1.000  H
  C165     1.0000 0.68109  0.28633  0.31152  Biso   1.000  C
  H205     1.0000 0.62479  0.80702  0.95793  Biso   1.000  H
  H206     1.0000 0.62439  0.84662  0.86959  Biso   1.000  H
  H207     1.0000 0.65090  0.87479  0.93240  Biso   1.000  H
  H208     1.0000 0.68539  0.23880  0.34778  Biso   1.000  H
  H209     1.0000 0.69111  0.33780  0.33231  Biso   1.000  H
  H210     1.0000 0.65840  0.29522  0.30768  Biso   1.000  H
  O31      1.0000 0.42953  0.69520  0.29588  Biso   1.000  O
  C166     1.0000 0.41130  0.63568  0.25662  Biso   1.000  C
  C167     1.0000 0.41537  0.74419  0.35832  Biso   1.000  C
  C168     1.0000 0.37979  0.62318  0.27029  Biso   1.000  C
  C169     1.0000 0.42732  0.58783  0.19939  Biso   1.000  C
  H211     1.0000 0.40641  0.70637  0.39980  Biso   1.000  H
  H212     1.0000 0.39830  0.77992  0.33633  Biso   1.000  H
  C170     1.0000 0.44072  0.79871  0.39338  Biso   1.000  C
  C171     1.0000 0.36251  0.56422  0.22612  Biso   1.000  C
  H213     1.0000 0.36961  0.65541  0.31080  Biso   1.000  H
  C172     1.0000 0.41010  0.52887  0.15522  Biso   1.000  C
  C173     1.0000 0.46195  0.60103  0.18321  Biso   1.000  C
  H214     1.0000 0.45800  0.76272  0.41208  Biso   1.000  H
  H215     1.0000 0.43221  0.83101  0.43869  Biso   1.000  H
  H216     1.0000 0.44850  0.83799  0.35251  Biso   1.000  H
  C174     1.0000 0.32778  0.55172  0.24188  Biso   1.000  C
  C175     1.0000 0.37815  0.51758  0.16721  Biso   1.000  C
  H217     1.0000 0.42059  0.49562  0.11591  Biso   1.000  H
  H218     1.0000 0.47260  0.61778  0.23349  Biso   1.000  H
  H219     1.0000 0.47141  0.54702  0.16469  Biso   1.000  H
  C176     1.0000 0.46708  0.66842  0.12070  Biso   1.000  C
  C177     1.0000 0.30715  0.60928  0.19022  Biso   1.000  C
  H220     1.0000 0.32340  0.56340  0.29917  Biso   1.000  H
  H221     1.0000 0.32220  0.49181  0.23127  Biso   1.000  H
  O32      1.0000 0.36009  0.46167  0.12292  Biso   1.000  O
  C178     1.0000 0.46976  0.75333  0.14239  Biso   1.000  C
  C179     1.0000 0.46804  0.64837  0.03889  Biso   1.000  C
  C180     1.0000 0.29873  0.68949  0.21719  Biso   1.000  C
  C181     1.0000 0.29730  0.58320  0.11489  Biso   1.000  C
  C182     1.0000 0.37459  0.42252  0.05580  Biso   1.000  C
  H222     1.0000 0.46981  0.76793  0.19771  Biso   1.000  H
  C183     1.0000 0.47249  0.81730  0.08528  Biso   1.000  C
  O33      1.0000 0.46402  0.56409  0.01972  Biso   1.000  O
  C184     1.0000 0.47221  0.71183  0.98172  Biso   1.000  C
  O34      1.0000 0.30908  0.71240  0.29222  Biso   1.000  O
  C185     1.0000 0.28119  0.74299  0.16763  Biso   1.000  C
  H223     1.0000 0.30250  0.52780  0.09661  Biso   1.000  H
  C186     1.0000 0.27985  0.63701  0.06568  Biso   1.000  C
  H224     1.0000 0.39049  0.38082  0.07407  Biso   1.000  H
  H225     1.0000 0.38529  0.46580  0.02259  Biso   1.000  H
  C187     1.0000 0.34946  0.37841  0.00719  Biso   1.000  C
  O35      1.0000 0.47451  0.90227  0.10482  Biso   1.000  O
  C188     1.0000 0.47474  0.79731  0.00372  Biso   1.000  C
  C189     1.0000 0.46454  0.54131  0.93659  Biso   1.000  C
  H226     1.0000 0.47331  0.69679  0.92671  Biso   1.000  H
  C190     1.0000 0.30033  0.79433  0.32129  Biso   1.000  C
  C191     1.0000 0.27155  0.71792  0.09181  Biso   1.000  C
  H227     1.0000 0.27569  0.79801  0.18620  Biso   1.000  H
  O36      1.0000 0.26906  0.61378  0.99041  Biso   1.000  O
  H228     1.0000 0.34000  0.33297  0.03919  Biso   1.000  H
  H229     1.0000 0.35891  0.35430  0.95871  Biso   1.000  H
  H230     1.0000 0.33321  0.41947  0.99209  Biso   1.000  H
  C192     1.0000 0.46249  0.92683  0.18141  Biso   1.000  C
  C193     1.0000 0.47632  0.86470  0.94019  Biso   1.000  C
  H231     1.0000 0.48570  0.55128  0.91370  Biso   1.000  H
  H232     1.0000 0.44909  0.57558  0.90633  Biso   1.000  H
  C194     1.0000 0.45626  0.44872  0.93192  Biso   1.000  C
  H233     1.0000 0.27720  0.79807  0.32650  Biso   1.000  H
  H234     1.0000 0.30751  0.83881  0.28347  Biso   1.000  H
  C195     1.0000 0.31557  0.80638  0.40129  Biso   1.000  C
  C196     1.0000 0.25481  0.78018  0.03800  Biso   1.000  C
  C197     1.0000 0.27788  0.53243  0.96063  Biso   1.000  C
  H235     1.0000 0.47550  0.90157  0.22450  Biso   1.000  H
  H236     1.0000 0.44060  0.90621  0.18782  Biso   1.000  H
  C198     1.0000 0.46329  0.02132  0.18692  Biso   1.000  C
  C199     1.0000 0.44378  0.89199  0.91292  Biso   1.000  C
  H237     1.0000 0.48829  0.84268  0.89368  Biso   1.000  H
  H238     1.0000 0.48770  0.91452  0.96158  Biso   1.000  H
  H239     1.0000 0.46889  0.41693  0.97069  Biso   1.000  H
  H240     1.0000 0.46059  0.42772  0.87768  Biso   1.000  H
  H241     1.0000 0.43390  0.44117  0.94420  Biso   1.000  H
  H242     1.0000 0.30901  0.76088  0.43761  Biso   1.000  H
  H243     1.0000 0.30929  0.86140  0.42359  Biso   1.000  H
  H244     1.0000 0.33850  0.80499  0.39512  Biso   1.000  H
  H245     1.0000 0.24239  0.82028  0.07102  Biso   1.000  H
  H246     1.0000 0.24009  0.74927  0.00252  Biso   1.000  H
  C200     1.0000 0.27828  0.82923  0.98741  Biso   1.000  C
  H247     1.0000 0.27070  0.48737  0.99772  Biso   1.000  H
  H248     1.0000 0.30099  0.52868  0.95541  Biso   1.000  H
  C201     1.0000 0.26257  0.52139  0.87972  Biso   1.000  C
  H249     1.0000 0.48521  0.04093  0.18369  Biso   1.000  H
  H250     1.0000 0.45410  0.03928  0.23810  Biso   1.000  H
  H251     1.0000 0.45121  0.04582  0.14257  Biso   1.000  H
  C202     1.0000 0.42816  0.95761  0.95182  Biso   1.000  C
  C203     1.0000 0.42816  0.85011  0.85059  Biso   1.000  C
  C204     1.0000 0.29149  0.90449  0.01498  Biso   1.000  C
  C205     1.0000 0.28811  0.79782  0.91388  Biso   1.000  C
  H252     1.0000 0.23969  0.52729  0.88517  Biso   1.000  H
  H253     1.0000 0.26751  0.46497  0.85850  Biso   1.000  H
  H254     1.0000 0.27049  0.56479  0.84280  Biso   1.000  H
  C206     1.0000 0.39790  0.98090  0.93150  Biso   1.000  C
  H255     1.0000 0.43860  0.98718  0.99359  Biso   1.000  H
  C207     1.0000 0.39804  0.87359  0.82968  Biso   1.000  C
  O37      1.0000 0.44488  0.78601  0.81320  Biso   1.000  O
  O38      1.0000 0.28091  0.93229  0.08810  Biso   1.000  O
  C208     1.0000 0.31395  0.94682  0.96848  Biso   1.000  C
  H256     1.0000 0.27910  0.74680  0.89410  Biso   1.000  H
  C209     1.0000 0.31082  0.83932  0.86851  Biso   1.000  C
  C210     1.0000 0.38193  0.93940  0.86899  Biso   1.000  C
  O39      1.0000 0.38210  0.04779  0.96680  Biso   1.000  O
  H257     1.0000 0.38781  0.84440  0.78719  Biso   1.000  H
  C211     1.0000 0.43101  0.74680  0.74482  Biso   1.000  C
  C212     1.0000 0.29356  0.01072  0.11848  Biso   1.000  C
  C213     1.0000 0.32378  0.91458  0.89578  Biso   1.000  C
  H258     1.0000 0.32260  0.99860  0.98741  Biso   1.000  H
  O40      1.0000 0.32164  0.80829  0.79618  Biso   1.000  O
  C214     1.0000 0.34882  0.96250  0.84622  Biso   1.000  C
  C215     1.0000 0.39181  0.07190  0.04531  Biso   1.000  C
  H259     1.0000 0.42550  0.79020  0.70430  Biso   1.000  H
  H260     1.0000 0.41161  0.71621  0.76028  Biso   1.000  H
  C216     1.0000 0.45471  0.68600  0.71108  Biso   1.000  C
  H261     1.0000 0.28820  0.05813  0.08210  Biso   1.000  H
  H262     1.0000 0.31670  0.00692  0.12268  Biso   1.000  H
  C217     1.0000 0.27943  0.02488  0.19903  Biso   1.000  C
  C218     1.0000 0.30649  0.73258  0.76651  Biso   1.000  C
  H263     1.0000 0.34560  0.94968  0.78863  Biso   1.000  H
  H264     1.0000 0.34591  0.02431  0.85359  Biso   1.000  H
  H265     1.0000 0.41401  0.09113  0.04423  Biso   1.000  H
  H266     1.0000 0.39021  0.02272  0.08198  Biso   1.000  H
  C219     1.0000 0.37116  0.14177  0.07377  Biso   1.000  C
  H267     1.0000 0.47510  0.71462  0.70568  Biso   1.000  H
  H268     1.0000 0.44770  0.66620  0.65840  Biso   1.000  H
  H269     1.0000 0.45690  0.63733  0.74721  Biso   1.000  H
  H270     1.0000 0.28479  0.97741  0.23433  Biso   1.000  H
  H271     1.0000 0.25650  0.02919  0.19388  Biso   1.000  H
  H272     1.0000 0.28771  0.07767  0.22180  Biso   1.000  H
  H273     1.0000 0.31049  0.68460  0.80343  Biso   1.000  H
  H274     1.0000 0.28350  0.74172  0.76321  Biso   1.000  H
  C220     1.0000 0.31891  0.71367  0.68848  Biso   1.000  C
  H275     1.0000 0.37521  0.19298  0.04207  Biso   1.000  H
  H276     1.0000 0.37561  0.15338  0.13041  Biso   1.000  H
  H277     1.0000 0.34910  0.12521  0.06760  Biso   1.000  H
  H278     1.0000 0.31461  0.76120  0.65222  Biso   1.000  H
  H279     1.0000 0.30889  0.66220  0.66769  Biso   1.000  H
  H280     1.0000 0.34160  0.70478  0.69232  Biso   1.000  H
  C221     1.0000 0.75481  0.28018  0.46200  Biso   1.000  C
  C222     1.0000 0.77828  0.32923  0.51259  Biso   1.000  C
  H281     1.0000 0.74239  0.32028  0.42898  Biso   1.000  H
  H282     1.0000 0.74009  0.24927  0.49748  Biso   1.000  H
  C223     1.0000 0.77155  0.21792  0.40819  Biso   1.000  C
  C224     1.0000 0.79149  0.40449  0.48502  Biso   1.000  C
  C225     1.0000 0.78811  0.29782  0.58612  Biso   1.000  C
  C226     1.0000 0.78119  0.24299  0.33237  Biso   1.000  C
  C227     1.0000 0.77985  0.13701  0.43432  Biso   1.000  C
  O41      1.0000 0.78091  0.43229  0.41190  Biso   1.000  O
  C228     1.0000 0.81395  0.44682  0.53152  Biso   1.000  C
  H283     1.0000 0.77910  0.24680  0.60590  Biso   1.000  H
  C229     1.0000 0.81082  0.33932  0.63149  Biso   1.000  C
  H284     1.0000 0.77569  0.29801  0.31380  Biso   1.000  H
  C230     1.0000 0.79873  0.18949  0.28281  Biso   1.000  C
  O42      1.0000 0.76906  0.11378  0.50959  Biso   1.000  O
  C231     1.0000 0.79730  0.08320  0.38511  Biso   1.000  C
  C232     1.0000 0.79356  0.51072  0.38152  Biso   1.000  C
  C233     1.0000 0.82378  0.41458  0.60422  Biso   1.000  C
  H285     1.0000 0.82260  0.49860  0.51259  Biso   1.000  H
  O43      1.0000 0.82164  0.30829  0.70382  Biso   1.000  O
  O44      1.0000 0.80908  0.21240  0.20778  Biso   1.000  O
  C234     1.0000 0.80715  0.10928  0.30978  Biso   1.000  C
  C235     1.0000 0.77788  0.03243  0.53937  Biso   1.000  C
  H286     1.0000 0.80250  0.02780  0.40339  Biso   1.000  H
  H287     1.0000 0.78820  0.55813  0.41790  Biso   1.000  H
  H288     1.0000 0.81670  0.50692  0.37732  Biso   1.000  H
  C236     1.0000 0.77943  0.52488  0.30097  Biso   1.000  C
  C237     1.0000 0.84882  0.46250  0.65378  Biso   1.000  C
  C238     1.0000 0.80649  0.23258  0.73349  Biso   1.000  C
  C239     1.0000 0.80033  0.29433  0.17871  Biso   1.000  C
  C240     1.0000 0.82778  0.05172  0.25812  Biso   1.000  C
  H289     1.0000 0.80099  0.02868  0.54459  Biso   1.000  H
  C241     1.0000 0.76257  0.02139  0.62028  Biso   1.000  C
  H290     1.0000 0.77070  0.98737  0.50228  Biso   1.000  H
  H291     1.0000 0.75650  0.52919  0.30612  Biso   1.000  H
  H292     1.0000 0.78771  0.57767  0.27820  Biso   1.000  H
  H293     1.0000 0.78479  0.47741  0.26567  Biso   1.000  H
  C242     1.0000 0.88193  0.43940  0.63101  Biso   1.000  C
  H294     1.0000 0.84560  0.44968  0.71137  Biso   1.000  H
  H295     1.0000 0.84591  0.52431  0.64641  Biso   1.000  H
  H296     1.0000 0.81049  0.18460  0.69657  Biso   1.000  H
  H297     1.0000 0.78350  0.24172  0.73679  Biso   1.000  H
  C243     1.0000 0.81891  0.21367  0.81152  Biso   1.000  C
  H298     1.0000 0.77720  0.29807  0.17350  Biso   1.000  H
  H299     1.0000 0.80751  0.33881  0.21653  Biso   1.000  H
  C244     1.0000 0.81557  0.30638  0.09871  Biso   1.000  C
  H300     1.0000 0.82340  0.06340  0.20083  Biso   1.000  H
  C245     1.0000 0.86251  0.06422  0.27388  Biso   1.000  C
  H301     1.0000 0.82220  0.99181  0.26873  Biso   1.000  H
  H302     1.0000 0.73969  0.02729  0.61483  Biso   1.000  H
  H303     1.0000 0.77049  0.06479  0.65720  Biso   1.000  H
  H304     1.0000 0.76751  0.96497  0.64150  Biso   1.000  H
  C246     1.0000 0.89790  0.48090  0.56850  Biso   1.000  C
  C247     1.0000 0.89804  0.37359  0.67032  Biso   1.000  C
  H305     1.0000 0.81461  0.26120  0.84778  Biso   1.000  H
  H306     1.0000 0.80889  0.16220  0.83231  Biso   1.000  H
  H307     1.0000 0.84160  0.20478  0.80768  Biso   1.000  H
  H308     1.0000 0.80901  0.26088  0.06239  Biso   1.000  H
  H309     1.0000 0.80929  0.36140  0.07641  Biso   1.000  H
  H310     1.0000 0.83850  0.30499  0.10488  Biso   1.000  H
  C248     1.0000 0.87979  0.12318  0.22971  Biso   1.000  C
  C249     1.0000 0.87815  0.01758  0.33279  Biso   1.000  C
  O45      1.0000 0.88210  0.54779  0.53320  Biso   1.000  O
  C250     1.0000 0.92816  0.45761  0.54818  Biso   1.000  C
  H311     1.0000 0.88781  0.34440  0.71281  Biso   1.000  H
  C251     1.0000 0.92816  0.35011  0.64941  Biso   1.000  C
  H312     1.0000 0.86961  0.15541  0.18920  Biso   1.000  H
  C252     1.0000 0.91130  0.13568  0.24338  Biso   1.000  C
  C253     1.0000 0.91010  0.02887  0.34478  Biso   1.000  C
  O46      1.0000 0.86009  0.96167  0.37708  Biso   1.000  O
  C254     1.0000 0.89181  0.57190  0.45469  Biso   1.000  C
  C255     1.0000 0.94378  0.39199  0.58708  Biso   1.000  C
  H313     1.0000 0.93860  0.48718  0.50641  Biso   1.000  H
  O47      1.0000 0.94488  0.28601  0.68680  Biso   1.000  O
  O48      1.0000 0.92953  0.19520  0.20412  Biso   1.000  O
  C256     1.0000 0.92732  0.08783  0.30061  Biso   1.000  C
  H314     1.0000 0.92059  0.99562  0.38409  Biso   1.000  H
  C257     1.0000 0.87459  0.92252  0.44420  Biso   1.000  C
  H315     1.0000 0.91401  0.59113  0.45577  Biso   1.000  H
  H316     1.0000 0.89021  0.52272  0.41802  Biso   1.000  H
  C258     1.0000 0.87116  0.64177  0.42623  Biso   1.000  C
  C259     1.0000 0.97632  0.36470  0.55981  Biso   1.000  C
  C260     1.0000 0.93101  0.24680  0.75518  Biso   1.000  C
  C261     1.0000 0.91537  0.24419  0.14168  Biso   1.000  C
  C262     1.0000 0.96195  0.10103  0.31679  Biso   1.000  C
  H317     1.0000 0.89049  0.88082  0.42593  Biso   1.000  H
  H318     1.0000 0.88529  0.96580  0.47741  Biso   1.000  H
  C263     1.0000 0.84946  0.87841  0.49281  Biso   1.000  C
  H319     1.0000 0.87521  0.69298  0.45793  Biso   1.000  H
  H320     1.0000 0.87561  0.65338  0.36959  Biso   1.000  H
  H321     1.0000 0.84910  0.62521  0.43240  Biso   1.000  H
  C264     1.0000 0.97474  0.29731  0.49628  Biso   1.000  C
  H322     1.0000 0.98829  0.34268  0.60632  Biso   1.000  H
  H323     1.0000 0.98770  0.41452  0.53842  Biso   1.000  H
  H324     1.0000 0.92550  0.29020  0.79570  Biso   1.000  H
  H325     1.0000 0.91161  0.21621  0.73972  Biso   1.000  H
  C265     1.0000 0.95471  0.18600  0.78892  Biso   1.000  C
  H326     1.0000 0.90641  0.20637  0.10020  Biso   1.000  H
  H327     1.0000 0.89830  0.27992  0.16367  Biso   1.000  H
  C266     1.0000 0.94072  0.29871  0.10662  Biso   1.000  C
  H328     1.0000 0.97260  0.11778  0.26651  Biso   1.000  H
  H329     1.0000 0.97141  0.04702  0.33531  Biso   1.000  H
  C267     1.0000 0.96708  0.16842  0.37930  Biso   1.000  C
  H330     1.0000 0.84000  0.83297  0.46081  Biso   1.000  H
  H331     1.0000 0.85891  0.85430  0.54129  Biso   1.000  H
  H332     1.0000 0.83321  0.91947  0.50791  Biso   1.000  H
  C268     1.0000 0.97249  0.31730  0.41472  Biso   1.000  C
  C269     1.0000 0.97221  0.21183  0.51828  Biso   1.000  C
  H333     1.0000 0.97510  0.21462  0.79432  Biso   1.000  H
  H334     1.0000 0.94770  0.16620  0.84160  Biso   1.000  H
  H335     1.0000 0.95690  0.13733  0.75279  Biso   1.000  H
  H336     1.0000 0.95800  0.26272  0.08792  Biso   1.000  H
  H337     1.0000 0.93221  0.33101  0.06131  Biso   1.000  H
  H338     1.0000 0.94850  0.33799  0.14749  Biso   1.000  H
  C270     1.0000 0.96976  0.25333  0.35761  Biso   1.000  C
  C271     1.0000 0.96804  0.14837  0.46111  Biso   1.000  C
  O49      1.0000 0.97451  0.40227  0.39518  Biso   1.000  O
  H339     1.0000 0.97331  0.19679  0.57329  Biso   1.000  H
  H340     1.0000 0.96981  0.26793  0.30229  Biso   1.000  H
  O50      1.0000 0.96402  0.06409  0.48028  Biso   1.000  O
  C272     1.0000 0.96249  0.42683  0.31859  Biso   1.000  C
  C273     1.0000 0.96454  0.04131  0.56341  Biso   1.000  C
  H341     1.0000 0.97550  0.40157  0.27550  Biso   1.000  H
  H342     1.0000 0.94060  0.40621  0.31218  Biso   1.000  H
  C274     1.0000 0.96329  0.52132  0.31308  Biso   1.000  C
  H343     1.0000 0.98570  0.05128  0.58630  Biso   1.000  H
  H344     1.0000 0.94909  0.07558  0.59367  Biso   1.000  H
  C275     1.0000 0.95626  0.94872  0.56808  Biso   1.000  C
  H345     1.0000 0.98521  0.54093  0.31631  Biso   1.000  H
  H346     1.0000 0.95410  0.53928  0.26190  Biso   1.000  H
  H347     1.0000 0.95121  0.54582  0.35743  Biso   1.000  H
  H348     1.0000 0.96889  0.91693  0.52931  Biso   1.000  H
  H349     1.0000 0.96059  0.92772  0.62232  Biso   1.000  H
  H350     1.0000 0.93390  0.94117  0.55580  Biso   1.000  H
  C276     1.0000 0.24519  0.71982  0.53800  Biso   1.000  C
  C277     1.0000 0.22172  0.67077  0.48741  Biso   1.000  C
  H351     1.0000 0.25761  0.67972  0.57102  Biso   1.000  H
  H352     1.0000 0.25991  0.75073  0.50252  Biso   1.000  H
  C278     1.0000 0.22845  0.78208  0.59181  Biso   1.000  C
  C279     1.0000 0.20851  0.59551  0.51498  Biso   1.000  C
  C280     1.0000 0.21189  0.70218  0.41388  Biso   1.000  C
  C281     1.0000 0.21881  0.75701  0.66763  Biso   1.000  C
  C282     1.0000 0.22015  0.86299  0.56568  Biso   1.000  C
  C283     1.0000 0.18605  0.55318  0.46848  Biso   1.000  C
  O51      1.0000 0.21909  0.56771  0.58810  Biso   1.000  O
  C284     1.0000 0.18918  0.66068  0.36851  Biso   1.000  C
  H353     1.0000 0.22090  0.75320  0.39410  Biso   1.000  H
  H354     1.0000 0.22431  0.70199  0.68620  Biso   1.000  H
  C285     1.0000 0.20127  0.81051  0.71719  Biso   1.000  C
  O52      1.0000 0.23094  0.88622  0.49041  Biso   1.000  O
  C286     1.0000 0.20270  0.91680  0.61489  Biso   1.000  C
  C287     1.0000 0.17622  0.58542  0.39578  Biso   1.000  C
  H355     1.0000 0.17740  0.50140  0.48741  Biso   1.000  H
  C288     1.0000 0.20644  0.48928  0.61848  Biso   1.000  C
  O53      1.0000 0.17836  0.69171  0.29618  Biso   1.000  O
  O54      1.0000 0.19092  0.78760  0.79222  Biso   1.000  O
  C289     1.0000 0.19285  0.89072  0.69022  Biso   1.000  C
  C290     1.0000 0.22212  0.96757  0.46063  Biso   1.000  C
  H356     1.0000 0.19750  0.97220  0.59661  Biso   1.000  H
  C291     1.0000 0.15118  0.53750  0.34622  Biso   1.000  C
  H357     1.0000 0.21180  0.44187  0.58210  Biso   1.000  H
  H358     1.0000 0.18330  0.49308  0.62268  Biso   1.000  H
  C292     1.0000 0.22057  0.47512  0.69903  Biso   1.000  C
  C293     1.0000 0.19351  0.76742  0.26651  Biso   1.000  C
  C294     1.0000 0.19967  0.70567  0.82129  Biso   1.000  C
  C295     1.0000 0.17222  0.94828  0.74188  Biso   1.000  C
  H359     1.0000 0.19901  0.97132  0.45541  Biso   1.000  H
  C296     1.0000 0.23743  0.97861  0.37972  Biso   1.000  C
  H360     1.0000 0.22930  0.01263  0.49772  Biso   1.000  H
  C297     1.0000 0.11807  0.56060  0.36899  Biso   1.000  C
  H361     1.0000 0.15440  0.55032  0.28863  Biso   1.000  H
  H362     1.0000 0.15409  0.47569  0.35359  Biso   1.000  H
  H363     1.0000 0.24350  0.47081  0.69388  Biso   1.000  H
  H364     1.0000 0.21229  0.42233  0.72180  Biso   1.000  H
  H365     1.0000 0.21521  0.52259  0.73433  Biso   1.000  H
  H366     1.0000 0.18951  0.81540  0.30343  Biso   1.000  H
  H367     1.0000 0.21650  0.75828  0.26321  Biso   1.000  H
  C298     1.0000 0.18109  0.78633  0.18848  Biso   1.000  C
  H368     1.0000 0.22280  0.70193  0.82650  Biso   1.000  H
  H369     1.0000 0.19249  0.66119  0.78347  Biso   1.000  H
  C299     1.0000 0.18443  0.69362  0.90129  Biso   1.000  C
  H370     1.0000 0.17660  0.93660  0.79917  Biso   1.000  H
  C300     1.0000 0.13749  0.93578  0.72612  Biso   1.000  C
  H371     1.0000 0.17780  0.00819  0.73127  Biso   1.000  H
  H372     1.0000 0.26031  0.97271  0.38517  Biso   1.000  H
  H373     1.0000 0.22951  0.93521  0.34280  Biso   1.000  H
  H374     1.0000 0.23249  0.03503  0.35850  Biso   1.000  H
  C301     1.0000 0.10210  0.51910  0.43150  Biso   1.000  C
  C302     1.0000 0.10196  0.62641  0.32968  Biso   1.000  C
  H375     1.0000 0.18539  0.73880  0.15222  Biso   1.000  H
  H376     1.0000 0.19111  0.83780  0.16769  Biso   1.000  H
  H377     1.0000 0.15840  0.79522  0.19232  Biso   1.000  H
  H378     1.0000 0.19099  0.73912  0.93761  Biso   1.000  H
  H379     1.0000 0.19071  0.63860  0.92359  Biso   1.000  H
  H380     1.0000 0.16150  0.69501  0.89512  Biso   1.000  H
  C303     1.0000 0.12021  0.87682  0.77029  Biso   1.000  C
  C304     1.0000 0.12185  0.98242  0.66721  Biso   1.000  C
  O55      1.0000 0.11790  0.45221  0.46680  Biso   1.000  O
  C305     1.0000 0.07184  0.54239  0.45182  Biso   1.000  C
  H381     1.0000 0.11219  0.65560  0.28719  Biso   1.000  H
  C306     1.0000 0.07184  0.64989  0.35059  Biso   1.000  C
  C307     1.0000 0.08870  0.86432  0.75662  Biso   1.000  C
  H382     1.0000 0.13039  0.84459  0.81080  Biso   1.000  H
  C308     1.0000 0.08990  0.97113  0.65522  Biso   1.000  C
  O56      1.0000 0.13991  0.03833  0.62292  Biso   1.000  O
  C309     1.0000 0.10819  0.42810  0.54531  Biso   1.000  C
  C310     1.0000 0.05622  0.60801  0.41292  Biso   1.000  C
  H383     1.0000 0.06140  0.51282  0.49359  Biso   1.000  H
  O57      1.0000 0.05512  0.71399  0.31320  Biso   1.000  O
  C311     1.0000 0.07268  0.91217  0.69939  Biso   1.000  C
  O58      1.0000 0.07047  0.80480  0.79588  Biso   1.000  O
  H384     1.0000 0.07941  0.00438  0.61591  Biso   1.000  H
  C312     1.0000 0.12541  0.07748  0.55580  Biso   1.000  C
  H385     1.0000 0.08599  0.40887  0.54423  Biso   1.000  H
  H386     1.0000 0.10979  0.47728  0.58198  Biso   1.000  H
  C313     1.0000 0.12884  0.35823  0.57377  Biso   1.000  C
  C314     1.0000 0.02368  0.63530  0.44019  Biso   1.000  C
  C315     1.0000 0.06899  0.75320  0.24482  Biso   1.000  C
  C316     1.0000 0.03805  0.89897  0.68321  Biso   1.000  C
  C317     1.0000 0.08463  0.75581  0.85832  Biso   1.000  C
  H387     1.0000 0.10951  0.11918  0.57407  Biso   1.000  H
  H388     1.0000 0.11471  0.03420  0.52259  Biso   1.000  H
  C318     1.0000 0.15054  0.12159  0.50719  Biso   1.000  C
  H389     1.0000 0.12479  0.30702  0.54207  Biso   1.000  H
  H390     1.0000 0.12439  0.34662  0.63041  Biso   1.000  H
  H391     1.0000 0.15090  0.37479  0.56760  Biso   1.000  H
  C319     1.0000 0.02526  0.70269  0.50372  Biso   1.000  C
  H392     1.0000 0.01171  0.65732  0.39368  Biso   1.000  H
  H393     1.0000 0.01230  0.58548  0.46158  Biso   1.000  H
  H394     1.0000 0.07450  0.70980  0.20430  Biso   1.000  H
  H395     1.0000 0.08839  0.78379  0.26028  Biso   1.000  H
  C320     1.0000 0.04529  0.81400  0.21108  Biso   1.000  C
  C321     1.0000 0.03292  0.83158  0.62070  Biso   1.000  C
  H396     1.0000 0.02740  0.88222  0.73349  Biso   1.000  H
  H397     1.0000 0.02859  0.95298  0.66469  Biso   1.000  H
  H398     1.0000 0.09359  0.79363  0.89980  Biso   1.000  H
  H399     1.0000 0.10170  0.72008  0.83633  Biso   1.000  H
  C322     1.0000 0.05928  0.70129  0.89338  Biso   1.000  C
  H400     1.0000 0.16000  0.16703  0.53919  Biso   1.000  H
  H401     1.0000 0.14109  0.14570  0.45871  Biso   1.000  H
  H402     1.0000 0.16679  0.08053  0.49209  Biso   1.000  H
  C323     1.0000 0.02751  0.68270  0.58528  Biso   1.000  C
  C324     1.0000 0.02779  0.78817  0.48172  Biso   1.000  C
  H403     1.0000 0.02490  0.78538  0.20568  Biso   1.000  H
  H404     1.0000 0.05230  0.83380  0.15840  Biso   1.000  H
  H405     1.0000 0.04310  0.86267  0.24721  Biso   1.000  H
  C325     1.0000 0.03024  0.74667  0.64239  Biso   1.000  C
  C326     1.0000 0.03196  0.85163  0.53889  Biso   1.000  C
  H406     1.0000 0.04200  0.73728  0.91208  Biso   1.000  H
  H407     1.0000 0.06779  0.66899  0.93869  Biso   1.000  H
  H408     1.0000 0.05150  0.66201  0.85251  Biso   1.000  H
  O59      1.0000 0.02549  0.59773  0.60482  Biso   1.000  O
  H409     1.0000 0.02669  0.80321  0.42671  Biso   1.000  H
  H410     1.0000 0.03019  0.73207  0.69771  Biso   1.000  H
  O60      1.0000 0.03598  0.93591  0.51972  Biso   1.000  O
  C327     1.0000 0.03751  0.57317  0.68141  Biso   1.000  C
  C328     1.0000 0.03546  0.95869  0.43659  Biso   1.000  C
  H411     1.0000 0.02450  0.59843  0.72450  Biso   1.000  H
  H412     1.0000 0.05940  0.59379  0.68782  Biso   1.000  H
  C329     1.0000 0.03671  0.47868  0.68692  Biso   1.000  C
  H413     1.0000 0.01430  0.94872  0.41370  Biso   1.000  H
  H414     1.0000 0.05091  0.92442  0.40633  Biso   1.000  H
  C330     1.0000 0.04374  0.05128  0.43192  Biso   1.000  C
  H415     1.0000 0.01479  0.45907  0.68369  Biso   1.000  H
  H416     1.0000 0.04590  0.46072  0.73810  Biso   1.000  H
  H417     1.0000 0.04879  0.45418  0.64257  Biso   1.000  H
  H418     1.0000 0.03111  0.08307  0.47069  Biso   1.000  H
  H419     1.0000 0.03941  0.07228  0.37768  Biso   1.000  H
  H420     1.0000 0.06610  0.05883  0.44420  Biso   1.000  H
  C331     1.0000 0.77943  0.47512  0.80097  Biso   1.000  C
  C332     1.0000 0.79356  0.48928  0.88152  Biso   1.000  C
  H421     1.0000 0.75650  0.47081  0.80612  Biso   1.000  H
  H422     1.0000 0.78771  0.42233  0.77820  Biso   1.000  H
  H423     1.0000 0.78479  0.52259  0.76567  Biso   1.000  H
  O61      1.0000 0.78091  0.56771  0.91190  Biso   1.000  O
  H424     1.0000 0.78820  0.44187  0.91790  Biso   1.000  H
  H425     1.0000 0.81670  0.49308  0.87732  Biso   1.000  H
  C333     1.0000 0.79149  0.59551  0.98502  Biso   1.000  C
  C334     1.0000 0.81395  0.55318  0.03152  Biso   1.000  C
  C335     1.0000 0.77828  0.67077  0.01259  Biso   1.000  C
  C336     1.0000 0.82378  0.58542  0.10422  Biso   1.000  C
  H426     1.0000 0.82260  0.50140  0.01259  Biso   1.000  H
  C337     1.0000 0.75481  0.71982  0.96200  Biso   1.000  C
  C338     1.0000 0.78811  0.70218  0.08612  Biso   1.000  C
  C339     1.0000 0.84882  0.53750  0.15378  Biso   1.000  C
  C340     1.0000 0.81082  0.66068  0.13149  Biso   1.000  C
  H427     1.0000 0.74239  0.67972  0.92898  Biso   1.000  H
  H428     1.0000 0.74009  0.75073  0.99748  Biso   1.000  H
  C341     1.0000 0.77155  0.78208  0.90819  Biso   1.000  C
  H429     1.0000 0.77910  0.75320  0.10590  Biso   1.000  H
  C342     1.0000 0.88193  0.56060  0.13101  Biso   1.000  C
  H430     1.0000 0.84560  0.55032  0.21137  Biso   1.000  H
  H431     1.0000 0.84591  0.47569  0.14641  Biso   1.000  H
  O62      1.0000 0.82164  0.69171  0.20382  Biso   1.000  O
  C343     1.0000 0.78119  0.75701  0.83237  Biso   1.000  C
  C344     1.0000 0.77985  0.86299  0.93432  Biso   1.000  C
  C345     1.0000 0.89790  0.51910  0.06850  Biso   1.000  C
  C346     1.0000 0.89804  0.62641  0.17032  Biso   1.000  C
  C347     1.0000 0.80649  0.76742  0.23349  Biso   1.000  C
  H432     1.0000 0.77569  0.70199  0.81380  Biso   1.000  H
  C348     1.0000 0.79873  0.81051  0.78281  Biso   1.000  C
  C349     1.0000 0.79730  0.91680  0.88511  Biso   1.000  C
  O63      1.0000 0.76906  0.88622  0.00959  Biso   1.000  O
  O64      1.0000 0.88210  0.45221  0.03320  Biso   1.000  O
  C350     1.0000 0.92816  0.54239  0.04818  Biso   1.000  C
  H433     1.0000 0.88781  0.65560  0.21281  Biso   1.000  H
  C351     1.0000 0.92816  0.64989  0.14941  Biso   1.000  C
  H434     1.0000 0.81049  0.81540  0.19657  Biso   1.000  H
  H435     1.0000 0.78350  0.75828  0.23679  Biso   1.000  H
  C352     1.0000 0.81891  0.78633  0.31152  Biso   1.000  C
  O65      1.0000 0.80908  0.78760  0.70778  Biso   1.000  O
  C353     1.0000 0.80715  0.89072  0.80978  Biso   1.000  C
  H436     1.0000 0.80250  0.97220  0.90339  Biso   1.000  H
  C354     1.0000 0.77788  0.96757  0.03937  Biso   1.000  C
  C355     1.0000 0.89181  0.42810  0.95469  Biso   1.000  C
  C356     1.0000 0.94378  0.60801  0.08708  Biso   1.000  C
  H437     1.0000 0.93860  0.51282  0.00641  Biso   1.000  H
  O66      1.0000 0.94488  0.71399  0.18680  Biso   1.000  O
  H438     1.0000 0.81461  0.73880  0.34778  Biso   1.000  H
  H439     1.0000 0.80889  0.83780  0.33231  Biso   1.000  H
  H440     1.0000 0.84160  0.79522  0.30768  Biso   1.000  H
  C357     1.0000 0.80033  0.70567  0.67871  Biso   1.000  C
  C358     1.0000 0.82778  0.94828  0.75812  Biso   1.000  C
  H441     1.0000 0.80099  0.97132  0.04459  Biso   1.000  H
  C359     1.0000 0.76257  0.97861  0.12028  Biso   1.000  C
  H442     1.0000 0.77070  0.01263  0.00228  Biso   1.000  H
  H443     1.0000 0.91401  0.40887  0.95577  Biso   1.000  H
  H444     1.0000 0.89021  0.47728  0.91802  Biso   1.000  H
  C360     1.0000 0.87116  0.35823  0.92623  Biso   1.000  C
  C361     1.0000 0.97632  0.63530  0.05981  Biso   1.000  C
  C362     1.0000 0.93101  0.75320  0.25518  Biso   1.000  C
  H445     1.0000 0.77720  0.70193  0.67350  Biso   1.000  H
  H446     1.0000 0.80751  0.66119  0.71653  Biso   1.000  H
  C363     1.0000 0.81557  0.69362  0.59871  Biso   1.000  C
  H447     1.0000 0.82340  0.93660  0.70083  Biso   1.000  H
  C364     1.0000 0.86251  0.93578  0.77388  Biso   1.000  C
  H448     1.0000 0.82220  0.00819  0.76873  Biso   1.000  H
  H449     1.0000 0.73969  0.97271  0.11483  Biso   1.000  H
  H450     1.0000 0.77049  0.93521  0.15720  Biso   1.000  H
  H451     1.0000 0.76751  0.03503  0.14150  Biso   1.000  H
  H452     1.0000 0.87521  0.30702  0.95793  Biso   1.000  H
  H453     1.0000 0.87561  0.34662  0.86959  Biso   1.000  H
  H454     1.0000 0.84910  0.37479  0.93240  Biso   1.000  H
  C365     1.0000 0.97474  0.70269  0.99628  Biso   1.000  C
  H455     1.0000 0.98829  0.65732  0.10632  Biso   1.000  H
  H456     1.0000 0.98770  0.58548  0.03842  Biso   1.000  H
  H457     1.0000 0.92550  0.70980  0.29570  Biso   1.000  H
  H458     1.0000 0.91161  0.78379  0.23972  Biso   1.000  H
  C366     1.0000 0.95471  0.81400  0.28892  Biso   1.000  C
  H459     1.0000 0.80901  0.73912  0.56239  Biso   1.000  H
  H460     1.0000 0.80929  0.63860  0.57641  Biso   1.000  H
  H461     1.0000 0.83850  0.69501  0.60488  Biso   1.000  H
  C367     1.0000 0.87979  0.87682  0.72971  Biso   1.000  C
  C368     1.0000 0.87815  0.98242  0.83279  Biso   1.000  C
  C369     1.0000 0.97249  0.68270  0.91472  Biso   1.000  C
  C370     1.0000 0.97221  0.78817  0.01828  Biso   1.000  C
  H462     1.0000 0.97510  0.78538  0.29432  Biso   1.000  H
  H463     1.0000 0.94770  0.83380  0.34160  Biso   1.000  H
  H464     1.0000 0.95690  0.86267  0.25279  Biso   1.000  H
  H465     1.0000 0.86961  0.84459  0.68920  Biso   1.000  H
  C371     1.0000 0.91130  0.86432  0.74338  Biso   1.000  C
  C372     1.0000 0.91010  0.97113  0.84478  Biso   1.000  C
  O67      1.0000 0.86009  0.03833  0.87708  Biso   1.000  O
  O68      1.0000 0.97451  0.59773  0.89518  Biso   1.000  O
  C373     1.0000 0.96976  0.74667  0.85761  Biso   1.000  C
  C374     1.0000 0.96804  0.85163  0.96111  Biso   1.000  C
  H466     1.0000 0.97331  0.80321  0.07329  Biso   1.000  H
  O69      1.0000 0.92953  0.80480  0.70412  Biso   1.000  O
  C375     1.0000 0.92732  0.91217  0.80061  Biso   1.000  C
  H467     1.0000 0.92059  0.00438  0.88409  Biso   1.000  H
  C376     1.0000 0.87459  0.07748  0.94420  Biso   1.000  C
  C377     1.0000 0.96249  0.57317  0.81859  Biso   1.000  C
  C378     1.0000 0.96708  0.83158  0.87930  Biso   1.000  C
  H468     1.0000 0.96981  0.73207  0.80229  Biso   1.000  H
  O70      1.0000 0.96402  0.93591  0.98028  Biso   1.000  O
  C379     1.0000 0.91537  0.75581  0.64168  Biso   1.000  C
  C380     1.0000 0.96195  0.89897  0.81679  Biso   1.000  C
  H469     1.0000 0.89049  0.11918  0.92593  Biso   1.000  H
  H470     1.0000 0.88529  0.03420  0.97741  Biso   1.000  H
  C381     1.0000 0.84946  0.12159  0.99281  Biso   1.000  C
  H471     1.0000 0.97550  0.59843  0.77550  Biso   1.000  H
  H472     1.0000 0.94060  0.59379  0.81218  Biso   1.000  H
  C382     1.0000 0.96329  0.47868  0.81308  Biso   1.000  C
  C383     1.0000 0.96454  0.95869  0.06341  Biso   1.000  C
  H473     1.0000 0.90641  0.79363  0.60020  Biso   1.000  H
  H474     1.0000 0.89830  0.72008  0.66367  Biso   1.000  H
  C384     1.0000 0.94072  0.70129  0.60662  Biso   1.000  C
  H475     1.0000 0.97260  0.88222  0.76651  Biso   1.000  H
  H476     1.0000 0.97141  0.95298  0.83531  Biso   1.000  H
  H477     1.0000 0.84000  0.16703  0.96081  Biso   1.000  H
  H478     1.0000 0.85891  0.14570  0.04129  Biso   1.000  H
  H479     1.0000 0.83321  0.08053  0.00791  Biso   1.000  H
  H480     1.0000 0.98521  0.45907  0.81631  Biso   1.000  H
  H481     1.0000 0.95410  0.46072  0.76190  Biso   1.000  H
  H482     1.0000 0.95121  0.45418  0.85743  Biso   1.000  H
  H483     1.0000 0.98570  0.94872  0.08630  Biso   1.000  H
  H484     1.0000 0.94909  0.92442  0.09367  Biso   1.000  H
  C385     1.0000 0.95626  0.05128  0.06808  Biso   1.000  C
  H485     1.0000 0.95800  0.73728  0.58792  Biso   1.000  H
  H486     1.0000 0.93221  0.66899  0.56131  Biso   1.000  H
  H487     1.0000 0.94850  0.66201  0.64749  Biso   1.000  H
  H488     1.0000 0.96889  0.08307  0.02931  Biso   1.000  H
  H489     1.0000 0.96059  0.07228  0.12232  Biso   1.000  H
  H490     1.0000 0.93390  0.05883  0.05580  Biso   1.000  H
  C386     1.0000 0.22057  0.52488  0.19903  Biso   1.000  C
  C387     1.0000 0.20644  0.51072  0.11848  Biso   1.000  C
  H491     1.0000 0.24350  0.52919  0.19388  Biso   1.000  H
  H492     1.0000 0.21229  0.57767  0.22180  Biso   1.000  H
  H493     1.0000 0.21521  0.47741  0.23433  Biso   1.000  H
  O71      1.0000 0.21909  0.43229  0.08810  Biso   1.000  O
  H494     1.0000 0.21180  0.55813  0.08210  Biso   1.000  H
  H495     1.0000 0.18330  0.50692  0.12268  Biso   1.000  H
  C388     1.0000 0.20851  0.40449  0.01498  Biso   1.000  C
  C389     1.0000 0.22172  0.32923  0.98741  Biso   1.000  C
  C390     1.0000 0.18605  0.44682  0.96848  Biso   1.000  C
  C391     1.0000 0.24519  0.28018  0.03800  Biso   1.000  C
  C392     1.0000 0.21189  0.29782  0.91388  Biso   1.000  C
  C393     1.0000 0.17622  0.41458  0.89578  Biso   1.000  C
  H496     1.0000 0.17740  0.49860  0.98741  Biso   1.000  H
  C394     1.0000 0.22845  0.21792  0.09181  Biso   1.000  C
  H497     1.0000 0.25761  0.32028  0.07102  Biso   1.000  H
  H498     1.0000 0.25991  0.24927  0.00252  Biso   1.000  H
  H499     1.0000 0.22090  0.24680  0.89410  Biso   1.000  H
  C395     1.0000 0.18918  0.33932  0.86851  Biso   1.000  C
  C396     1.0000 0.15118  0.46250  0.84622  Biso   1.000  C
  C397     1.0000 0.21881  0.24299  0.16763  Biso   1.000  C
  C398     1.0000 0.22015  0.13701  0.06568  Biso   1.000  C
  O72      1.0000 0.17836  0.30829  0.79618  Biso   1.000  O
  C399     1.0000 0.11807  0.43940  0.86899  Biso   1.000  C
  H500     1.0000 0.15440  0.44968  0.78863  Biso   1.000  H
  H501     1.0000 0.15409  0.52431  0.85359  Biso   1.000  H
  H502     1.0000 0.22431  0.29801  0.18620  Biso   1.000  H
  C400     1.0000 0.20127  0.18949  0.21719  Biso   1.000  C
  C401     1.0000 0.20270  0.08320  0.11489  Biso   1.000  C
  O73      1.0000 0.23094  0.11378  0.99041  Biso   1.000  O
  C402     1.0000 0.19351  0.23258  0.76651  Biso   1.000  C
  C403     1.0000 0.10210  0.48090  0.93150  Biso   1.000  C
  C404     1.0000 0.10196  0.37359  0.82968  Biso   1.000  C
  O74      1.0000 0.19092  0.21240  0.29222  Biso   1.000  O
  C405     1.0000 0.19285  0.10928  0.19022  Biso   1.000  C
  H503     1.0000 0.19750  0.02780  0.09661  Biso   1.000  H
  C406     1.0000 0.22212  0.03243  0.96063  Biso   1.000  C
  H504     1.0000 0.18951  0.18460  0.80343  Biso   1.000  H
  H505     1.0000 0.21650  0.24172  0.76321  Biso   1.000  H
  C407     1.0000 0.18109  0.21367  0.68848  Biso   1.000  C
  O75      1.0000 0.11790  0.54779  0.96680  Biso   1.000  O
  C408     1.0000 0.07184  0.45761  0.95182  Biso   1.000  C
  H506     1.0000 0.11219  0.34440  0.78719  Biso   1.000  H
  C409     1.0000 0.07184  0.35011  0.85059  Biso   1.000  C
  C410     1.0000 0.19967  0.29433  0.32129  Biso   1.000  C
  C411     1.0000 0.17222  0.05172  0.24188  Biso   1.000  C
  H507     1.0000 0.22930  0.98737  0.99772  Biso   1.000  H
  H508     1.0000 0.19901  0.02868  0.95541  Biso   1.000  H
  C412     1.0000 0.23743  0.02139  0.87972  Biso   1.000  C
  H509     1.0000 0.18539  0.26120  0.65222  Biso   1.000  H
  H510     1.0000 0.19111  0.16220  0.66769  Biso   1.000  H
  H511     1.0000 0.15840  0.20478  0.69232  Biso   1.000  H
  C413     1.0000 0.10819  0.57190  0.04531  Biso   1.000  C
  C414     1.0000 0.05622  0.39199  0.91292  Biso   1.000  C
  H512     1.0000 0.06140  0.48718  0.99359  Biso   1.000  H
  O76      1.0000 0.05512  0.28601  0.81320  Biso   1.000  O
  H513     1.0000 0.22280  0.29807  0.32650  Biso   1.000  H
  H514     1.0000 0.19249  0.33881  0.28347  Biso   1.000  H
  C415     1.0000 0.18443  0.30638  0.40129  Biso   1.000  C
  H515     1.0000 0.17660  0.06340  0.29917  Biso   1.000  H
  C416     1.0000 0.13749  0.06422  0.22612  Biso   1.000  C
  H516     1.0000 0.17780  0.99181  0.23127  Biso   1.000  H
  H517     1.0000 0.23249  0.96497  0.85850  Biso   1.000  H
  H518     1.0000 0.26031  0.02729  0.88517  Biso   1.000  H
  H519     1.0000 0.22951  0.06479  0.84280  Biso   1.000  H
  H520     1.0000 0.08599  0.59113  0.04423  Biso   1.000  H
  H521     1.0000 0.10979  0.52272  0.08198  Biso   1.000  H
  C417     1.0000 0.12884  0.64177  0.07377  Biso   1.000  C
  C418     1.0000 0.02368  0.36470  0.94019  Biso   1.000  C
  C419     1.0000 0.06899  0.24680  0.74482  Biso   1.000  C
  H522     1.0000 0.19099  0.26088  0.43761  Biso   1.000  H
  H523     1.0000 0.19071  0.36140  0.42359  Biso   1.000  H
  H524     1.0000 0.16150  0.30499  0.39512  Biso   1.000  H
  C420     1.0000 0.12021  0.12318  0.27029  Biso   1.000  C
  C421     1.0000 0.12185  0.01758  0.16721  Biso   1.000  C
  H525     1.0000 0.12479  0.69298  0.04207  Biso   1.000  H
  H526     1.0000 0.12439  0.65338  0.13041  Biso   1.000  H
  H527     1.0000 0.15090  0.62521  0.06760  Biso   1.000  H
  C422     1.0000 0.02526  0.29731  0.00372  Biso   1.000  C
  H528     1.0000 0.01171  0.34268  0.89368  Biso   1.000  H
  H529     1.0000 0.01230  0.41452  0.96158  Biso   1.000  H
  H530     1.0000 0.07450  0.29020  0.70430  Biso   1.000  H
  H531     1.0000 0.08839  0.21621  0.76028  Biso   1.000  H
  C423     1.0000 0.04529  0.18600  0.71108  Biso   1.000  C
  H532     1.0000 0.13039  0.15541  0.31080  Biso   1.000  H
  C424     1.0000 0.08870  0.13568  0.25662  Biso   1.000  C
  C425     1.0000 0.08990  0.02887  0.15522  Biso   1.000  C
  O77      1.0000 0.13991  0.96167  0.12292  Biso   1.000  O
  C426     1.0000 0.02751  0.31730  0.08528  Biso   1.000  C
  C427     1.0000 0.02779  0.21183  0.98172  Biso   1.000  C
  H533     1.0000 0.02490  0.21462  0.70568  Biso   1.000  H
  H534     1.0000 0.05230  0.16620  0.65840  Biso   1.000  H
  H535     1.0000 0.04310  0.13733  0.74721  Biso   1.000  H
  O78      1.0000 0.07047  0.19520  0.29588  Biso   1.000  O
  C428     1.0000 0.07268  0.08783  0.19939  Biso   1.000  C
  H536     1.0000 0.07941  0.99562  0.11591  Biso   1.000  H
  C429     1.0000 0.12541  0.92252  0.05580  Biso   1.000  C
  C430     1.0000 0.03024  0.25333  0.14239  Biso   1.000  C
  O79      1.0000 0.02549  0.40227  0.10482  Biso   1.000  O
  C431     1.0000 0.03196  0.14837  0.03889  Biso   1.000  C
  H537     1.0000 0.02669  0.19679  0.92671  Biso   1.000  H
  C432     1.0000 0.08463  0.24419  0.35832  Biso   1.000  C
  C433     1.0000 0.03805  0.10103  0.18321  Biso   1.000  C
  H538     1.0000 0.10951  0.88082  0.07407  Biso   1.000  H
  H539     1.0000 0.11471  0.96580  0.02259  Biso   1.000  H
  C434     1.0000 0.15054  0.87841  0.00719  Biso   1.000  C
  C435     1.0000 0.03292  0.16842  0.12070  Biso   1.000  C
  H540     1.0000 0.03019  0.26793  0.19771  Biso   1.000  H
  C436     1.0000 0.03751  0.42683  0.18141  Biso   1.000  C
  O80      1.0000 0.03598  0.06409  0.01972  Biso   1.000  O
  H541     1.0000 0.09359  0.20637  0.39980  Biso   1.000  H
  H542     1.0000 0.10170  0.27992  0.33633  Biso   1.000  H
  C437     1.0000 0.05928  0.29871  0.39338  Biso   1.000  C
  H543     1.0000 0.02740  0.11778  0.23349  Biso   1.000  H
  H544     1.0000 0.02859  0.04702  0.16469  Biso   1.000  H
  H545     1.0000 0.14109  0.85430  0.95871  Biso   1.000  H
  H546     1.0000 0.16679  0.91947  0.99209  Biso   1.000  H
  H547     1.0000 0.16000  0.83297  0.03919  Biso   1.000  H
  H548     1.0000 0.02450  0.40157  0.22450  Biso   1.000  H
  H549     1.0000 0.05940  0.40621  0.18782  Biso   1.000  H
  C438     1.0000 0.03671  0.52132  0.18692  Biso   1.000  C
  C439     1.0000 0.03546  0.04131  0.93659  Biso   1.000  C
  H550     1.0000 0.04200  0.26272  0.41208  Biso   1.000  H
  H551     1.0000 0.06779  0.33101  0.43869  Biso   1.000  H
  H552     1.0000 0.05150  0.33799  0.35251  Biso   1.000  H
  H553     1.0000 0.01479  0.54093  0.18369  Biso   1.000  H
  H554     1.0000 0.04590  0.53928  0.23810  Biso   1.000  H
  H555     1.0000 0.04879  0.54582  0.14257  Biso   1.000  H
  C440     1.0000 0.04374  0.94872  0.93192  Biso   1.000  C
  H556     1.0000 0.01430  0.05128  0.91370  Biso   1.000  H
  H557     1.0000 0.05091  0.07558  0.90633  Biso   1.000  H
  H558     1.0000 0.03111  0.91693  0.97069  Biso   1.000  H
  H559     1.0000 0.03941  0.92772  0.87768  Biso   1.000  H
  H560     1.0000 0.06610  0.94117  0.94420  Biso   1.000  H
