data_image0
_cell_length_a       20.699
_cell_length_b       46.569
_cell_length_c       31.425
_cell_angle_alpha    90
_cell_angle_beta     92.87
_cell_angle_gamma    90

_symmetry_space_group_name_H-M    "P 1"
_symmetry_int_tables_number       1

loop_
  _symmetry_equiv_pos_as_xyz
  'x, y, z'

loop_
  _atom_site_label
  _atom_site_occupancy
  _atom_site_fract_x
  _atom_site_fract_y
  _atom_site_fract_z
  _atom_site_thermal_displace_type
  _atom_site_B_iso_or_equiv
  _atom_site_type_symbol
  C1       1.0000 0.57606  0.48526  0.54401  Biso   1.000  C
  C2       1.0000 0.54583  0.46196  0.56953  Biso   1.000  C
  H1       1.0000 0.62295  0.48534  0.55000  Biso   1.000  H
  H2       1.0000 0.56679  0.48172  0.51355  Biso   1.000  H
  H3       1.0000 0.55810  0.50390  0.55169  Biso   1.000  H
  C3       1.0000 0.47905  0.45878  0.56485  Biso   1.000  C
  C4       1.0000 0.58164  0.44435  0.59760  Biso   1.000  C
  C5       1.0000 0.44815  0.43797  0.58810  Biso   1.000  C
  H4       1.0000 0.45464  0.47081  0.54570  Biso   1.000  H
  C6       1.0000 0.55075  0.42354  0.62086  Biso   1.000  C
  C7       1.0000 0.65545  0.44716  0.60190  Biso   1.000  C
  B1       1.0000 0.36476  0.43151  0.57979  Biso   1.000  B
  C8       1.0000 0.48396  0.42034  0.61621  Biso   1.000  C
  C9       1.0000 0.59145  0.40381  0.64912  Biso   1.000  C
  C10      1.0000 0.69313  0.44128  0.56755  Biso   1.000  C
  C11      1.0000 0.68462  0.45575  0.64061  Biso   1.000  C
  O1       1.0000 0.34584  0.43426  0.53678  Biso   1.000  O
  O2       1.0000 0.34885  0.40671  0.60308  Biso   1.000  O
  N1       1.0000 0.32656  0.45951  0.60219  Biso   1.000  N
  H5       1.0000 0.46285  0.40613  0.63211  Biso   1.000  H
  H6       1.0000 0.56331  0.39037  0.66343  Biso   1.000  H
  H7       1.0000 0.62114  0.39305  0.63172  Biso   1.000  H
  H8       1.0000 0.61630  0.41517  0.67044  Biso   1.000  H
  C12      1.0000 0.76003  0.44399  0.57192  Biso   1.000  C
  O3       1.0000 0.66553  0.43121  0.52992  Biso   1.000  O
  H9       1.0000 0.65887  0.45977  0.66406  Biso   1.000  H
  C13      1.0000 0.75153  0.45846  0.64501  Biso   1.000  C
  B2       1.0000 0.31005  0.41212  0.51906  Biso   1.000  B
  B3       1.0000 0.31834  0.38401  0.58234  Biso   1.000  B
  C14      1.0000 0.36048  0.48599  0.61238  Biso   1.000  C
  C15      1.0000 0.26470  0.45532  0.60120  Biso   1.000  C
  C16      1.0000 0.80126  0.43873  0.53461  Biso   1.000  C
  C17      1.0000 0.78926  0.45260  0.61069  Biso   1.000  C
  C18      1.0000 0.65594  0.40097  0.52954  Biso   1.000  C
  C19      1.0000 0.78246  0.46769  0.68841  Biso   1.000  C
  C20      1.0000 0.28217  0.41577  0.47006  Biso   1.000  C
  O4       1.0000 0.29823  0.38738  0.54028  Biso   1.000  O
  C21      1.0000 0.30087  0.35642  0.60550  Biso   1.000  C
  H10      1.0000 0.40506  0.48814  0.61098  Biso   1.000  H
  C22      1.0000 0.31686  0.50922  0.62519  Biso   1.000  C
  C23      1.0000 0.22133  0.47779  0.61222  Biso   1.000  C
  H11      1.0000 0.24810  0.43739  0.59317  Biso   1.000  H
  C24      1.0000 0.84506  0.41605  0.53700  Biso   1.000  C
  C25      1.0000 0.79956  0.45704  0.49959  Biso   1.000  C
  H12      1.0000 0.83490  0.45444  0.61366  Biso   1.000  H
  H13      1.0000 0.61476  0.39640  0.54273  Biso   1.000  H
  H14      1.0000 0.69149  0.39161  0.54665  Biso   1.000  H
  C26      1.0000 0.65418  0.38923  0.48414  Biso   1.000  C
  H15      1.0000 0.75624  0.46011  0.71141  Biso   1.000  H
  H16      1.0000 0.78212  0.48891  0.69032  Biso   1.000  H
  C27      1.0000 0.85284  0.45681  0.69529  Biso   1.000  C
  C28      1.0000 0.24986  0.39230  0.45180  Biso   1.000  C
  C29      1.0000 0.28765  0.44102  0.44689  Biso   1.000  C
  C30      1.0000 0.32745  0.34929  0.64561  Biso   1.000  C
  C31      1.0000 0.25903  0.33743  0.58387  Biso   1.000  C
  H17      1.0000 0.33476  0.52653  0.63497  Biso   1.000  H
  C32      1.0000 0.24936  0.50598  0.62312  Biso   1.000  C
  Br1      1.0000 0.13311  0.47227  0.60709  Biso   1.000  Br
  C33      1.0000 0.88704  0.41171  0.50450  Biso   1.000  C
  C34      1.0000 0.84943  0.39539  0.57482  Biso   1.000  C
  C35      1.0000 0.84154  0.45268  0.46709  Biso   1.000  C
  C36      1.0000 0.75077  0.48133  0.49580  Biso   1.000  C
  C37      1.0000 0.69044  0.40145  0.45279  Biso   1.000  C
  C38      1.0000 0.61466  0.36561  0.47461  Biso   1.000  C
  C39      1.0000 0.90542  0.47448  0.68786  Biso   1.000  C
  C40      1.0000 0.86305  0.42833  0.70759  Biso   1.000  C
  C41      1.0000 0.22319  0.39406  0.41041  Biso   1.000  C
  H18      1.0000 0.24609  0.37506  0.46760  Biso   1.000  H
  C42      1.0000 0.26098  0.44281  0.40550  Biso   1.000  C
  H19      1.0000 0.30972  0.45709  0.45938  Biso   1.000  H
  C43      1.0000 0.31223  0.32320  0.66406  Biso   1.000  C
  H20      1.0000 0.35601  0.36226  0.66037  Biso   1.000  H
  H21      1.0000 0.24086  0.34231  0.55643  Biso   1.000  H
  C44      1.0000 0.24386  0.31134  0.60231  Biso   1.000  C
  H22      1.0000 0.22262  0.52151  0.62857  Biso   1.000  H
  C45      1.0000 0.88535  0.43003  0.46951  Biso   1.000  C
  H23      1.0000 0.91692  0.39623  0.50612  Biso   1.000  H
  H24      1.0000 0.88310  0.38107  0.57033  Biso   1.000  H
  H25      1.0000 0.86041  0.40619  0.60098  Biso   1.000  H
  H26      1.0000 0.80779  0.38575  0.57734  Biso   1.000  H
  H27      1.0000 0.84044  0.46520  0.44320  Biso   1.000  H
  H28      1.0000 0.75653  0.49194  0.46936  Biso   1.000  H
  H29      1.0000 0.70688  0.47341  0.49548  Biso   1.000  H
  H30      1.0000 0.75726  0.49432  0.52018  Biso   1.000  H
  H31      1.0000 0.71682  0.41725  0.45916  Biso   1.000  H
  C46      1.0000 0.68728  0.39004  0.41188  Biso   1.000  C
  C47      1.0000 0.61154  0.35421  0.43367  Biso   1.000  C
  H32      1.0000 0.59040  0.35743  0.49558  Biso   1.000  H
  C48      1.0000 0.96824  0.46387  0.69376  Biso   1.000  C
  C49      1.0000 0.89522  0.50557  0.67190  Biso   1.000  C
  C50      1.0000 0.92575  0.41768  0.71313  Biso   1.000  C
  C51      1.0000 0.80475  0.40864  0.71660  Biso   1.000  C
  C52      1.0000 0.22877  0.41931  0.38725  Biso   1.000  C
  C53      1.0000 0.19277  0.36761  0.38910  Biso   1.000  C
  C54      1.0000 0.27078  0.47130  0.38250  Biso   1.000  C
  C55      1.0000 0.27044  0.30422  0.64240  Biso   1.000  C
  C56      1.0000 0.34552  0.31630  0.70730  Biso   1.000  C
  C57      1.0000 0.19454  0.29041  0.57880  Biso   1.000  C
  B4       1.0000 0.93945  0.42651  0.42816  Biso   1.000  B
  C58      1.0000 0.64786  0.36642  0.40229  Biso   1.000  C
  I1       1.0000 0.74044  0.40810  0.36383  Biso   1.000  I
  H33      1.0000 0.58512  0.33840  0.42730  Biso   1.000  H
  C59      1.0000 0.97835  0.43529  0.70539  Biso   1.000  C
  H34      1.0000 0.00340  0.47592  0.68987  Biso   1.000  H
  H35      1.0000 0.93661  0.51451  0.66856  Biso   1.000  H
  H36      1.0000 0.87114  0.50531  0.64495  Biso   1.000  H
  H37      1.0000 0.87159  0.51624  0.69210  Biso   1.000  H
  H38      1.0000 0.93261  0.39876  0.72199  Biso   1.000  H
  H39      1.0000 0.76502  0.41912  0.71125  Biso   1.000  H
  H40      1.0000 0.80505  0.39213  0.69825  Biso   1.000  H
  H41      1.0000 0.80793  0.40250  0.74576  Biso   1.000  H
  C60      1.0000 0.20129  0.42028  0.34165  Biso   1.000  C
  H42      1.0000 0.19259  0.35178  0.40961  Biso   1.000  H
  H43      1.0000 0.14829  0.37201  0.37906  Biso   1.000  H
  H44      1.0000 0.21793  0.36202  0.36479  Biso   1.000  H
  H45      1.0000 0.29470  0.48457  0.40165  Biso   1.000  H
  H46      1.0000 0.29523  0.46793  0.35711  Biso   1.000  H
  H47      1.0000 0.22849  0.47959  0.37409  Biso   1.000  H
  C61      1.0000 0.25303  0.27600  0.66129  Biso   1.000  C
  H48      1.0000 0.37271  0.33258  0.71673  Biso   1.000  H
  H49      1.0000 0.31280  0.31278  0.72817  Biso   1.000  H
  H50      1.0000 0.37253  0.29917  0.70481  Biso   1.000  H
  H51      1.0000 0.20639  0.27080  0.58543  Biso   1.000  H
  H52      1.0000 0.19524  0.29333  0.54863  Biso   1.000  H
  H53      1.0000 0.15181  0.29412  0.58807  Biso   1.000  H
  O5       1.0000 0.91138  0.43793  0.39059  Biso   1.000  O
  O6       1.0000 0.96378  0.39810  0.42978  Biso   1.000  O
  N2       1.0000 0.00223  0.44877  0.44183  Biso   1.000  N
  H54      1.0000 0.64578  0.35878  0.37492  Biso   1.000  H
  C62      1.0000 0.04773  0.42271  0.70800  Biso   1.000  C
  C63      1.0000 0.24287  0.42075  0.30829  Biso   1.000  C
  C64      1.0000 0.13480  0.42002  0.33311  Biso   1.000  C
  C65      1.0000 0.27356  0.24999  0.64469  Biso   1.000  C
  C66      1.0000 0.21493  0.27570  0.69650  Biso   1.000  C
  B5       1.0000 0.90878  0.42017  0.35586  Biso   1.000  B
  B6       1.0000 0.95988  0.38131  0.39372  Biso   1.000  B
  C67      1.0000 0.99123  0.47523  0.43753  Biso   1.000  C
  C68      1.0000 0.05966  0.43699  0.45378  Biso   1.000  C
  H55      1.0000 0.04625  0.40289  0.71641  Biso   1.000  H
  H56      1.0000 0.06609  0.42417  0.68063  Biso   1.000  H
  H57      1.0000 0.07408  0.43338  0.72858  Biso   1.000  H
  C69      1.0000 0.21809  0.42097  0.26640  Biso   1.000  C
  O7       1.0000 0.30979  0.42348  0.31550  Biso   1.000  O
  C70      1.0000 0.10987  0.42022  0.29122  Biso   1.000  C
  H58      1.0000 0.10623  0.41970  0.35586  Biso   1.000  H
  C71      1.0000 0.25303  0.22399  0.66129  Biso   1.000  C
  O8       1.0000 0.31004  0.25002  0.61111  Biso   1.000  O
  H59      1.0000 0.20111  0.29298  0.70784  Biso   1.000  H
  C72      1.0000 0.19745  0.24999  0.71501  Biso   1.000  C
  C73      1.0000 0.87816  0.43385  0.31138  Biso   1.000  C
  O9       1.0000 0.93196  0.39284  0.35688  Biso   1.000  O
  C74      1.0000 0.99985  0.35339  0.39270  Biso   1.000  C
  H60      1.0000 0.94975  0.48172  0.42959  Biso   1.000  H
  C75      1.0000 0.04315  0.49527  0.44501  Biso   1.000  C
  H61      1.0000 0.06242  0.41714  0.45766  Biso   1.000  H
  C76      1.0000 0.11554  0.45376  0.46050  Biso   1.000  C
  C77      1.0000 0.26146  0.42000  0.22880  Biso   1.000  C
  C78      1.0000 0.15149  0.42069  0.25783  Biso   1.000  C
  C79      1.0000 0.34047  0.39584  0.31734  Biso   1.000  C
  C80      1.0000 0.03717  0.42114  0.28182  Biso   1.000  C
  C81      1.0000 0.27044  0.19577  0.64240  Biso   1.000  C
  C82      1.0000 0.21493  0.22429  0.69650  Biso   1.000  C
  C83      1.0000 0.37717  0.24284  0.61649  Biso   1.000  C
  C84      1.0000 0.37717  0.25715  0.61649  Biso   1.000  C
  C85      1.0000 0.15716  0.24999  0.75439  Biso   1.000  C
  C86      1.0000 0.86865  0.46336  0.30829  Biso   1.000  C
  C87      1.0000 0.86285  0.41633  0.27650  Biso   1.000  C
  C88      1.0000 0.00228  0.33746  0.35542  Biso   1.000  C
  C89      1.0000 0.03457  0.34441  0.42934  Biso   1.000  C
  C90      1.0000 0.10717  0.48365  0.45785  Biso   1.000  C
  Br2      1.0000 0.02941  0.53415  0.43899  Biso   1.000  Br
  H62      1.0000 0.15604  0.44551  0.46646  Biso   1.000  H
  C91      1.0000 0.26749  0.39425  0.20701  Biso   1.000  C
  C92      1.0000 0.29370  0.44435  0.21561  Biso   1.000  C
  H63      1.0000 0.13448  0.42082  0.22918  Biso   1.000  H
  H64      1.0000 0.34469  0.38790  0.28841  Biso   1.000  H
  H65      1.0000 0.31562  0.38219  0.33426  Biso   1.000  H
  C93      1.0000 0.40709  0.40168  0.33901  Biso   1.000  C
  H66      1.0000 0.02078  0.43980  0.29176  Biso   1.000  H
  H67      1.0000 0.01705  0.40589  0.29867  Biso   1.000  H
  C94      1.0000 0.01469  0.41723  0.23460  Biso   1.000  C
  C95      1.0000 0.31223  0.17681  0.66406  Biso   1.000  C
  C96      1.0000 0.24386  0.18867  0.60231  Biso   1.000  C
  H68      1.0000 0.20111  0.20700  0.70784  Biso   1.000  H
  H69      1.0000 0.38316  0.22234  0.60948  Biso   1.000  H
  H70      1.0000 0.39173  0.24574  0.64667  Biso   1.000  H
  C97      1.0000 0.41834  0.26125  0.58801  Biso   1.000  C
  H71      1.0000 0.39173  0.25425  0.64667  Biso   1.000  H
  C98      1.0000 0.41834  0.23876  0.58801  Biso   1.000  C
  H72      1.0000 0.38316  0.27767  0.60948  Biso   1.000  H
  H73      1.0000 0.18650  0.24780  0.78004  Biso   1.000  H
  H74      1.0000 0.12797  0.23314  0.75299  Biso   1.000  H
  C99      1.0000 0.11585  0.27744  0.75952  Biso   1.000  C
  H75      1.0000 0.18650  0.25218  0.78004  Biso   1.000  H
  H76      1.0000 0.12797  0.26687  0.75299  Biso   1.000  H
  C100     1.0000 0.11585  0.22257  0.75952  Biso   1.000  C
  C101     1.0000 0.84388  0.47534  0.27041  Biso   1.000  C
  H77      1.0000 0.87906  0.47532  0.33219  Biso   1.000  H
  C102     1.0000 0.83818  0.42831  0.23861  Biso   1.000  C
  H78      1.0000 0.86938  0.39619  0.27857  Biso   1.000  H
  H79      1.0000 0.97859  0.34358  0.33034  Biso   1.000  H
  C103     1.0000 0.03929  0.31257  0.35475  Biso   1.000  C
  H80      1.0000 0.03293  0.35530  0.45483  Biso   1.000  H
  C104     1.0000 0.07158  0.31953  0.42870  Biso   1.000  C
  H81      1.0000 0.14186  0.49597  0.46416  Biso   1.000  H
  C105     1.0000 0.30559  0.39288  0.17180  Biso   1.000  C
  C106     1.0000 0.23540  0.36720  0.22020  Biso   1.000  C
  C107     1.0000 0.33180  0.44298  0.18040  Biso   1.000  C
  C108     1.0000 0.29016  0.47179  0.23829  Biso   1.000  C
  C109     1.0000 0.41427  0.41154  0.38072  Biso   1.000  C
  C110     1.0000 0.46139  0.39763  0.31537  Biso   1.000  C
  C111     1.0000 0.00709  0.39004  0.21660  Biso   1.000  C
  C112     1.0000 0.00200  0.44165  0.21000  Biso   1.000  C
  C113     1.0000 0.32745  0.15070  0.64561  Biso   1.000  C
  C114     1.0000 0.34552  0.18371  0.70730  Biso   1.000  C
  C115     1.0000 0.25903  0.16255  0.58387  Biso   1.000  C
  C116     1.0000 0.19454  0.20960  0.57880  Biso   1.000  C
  C117     1.0000 0.44317  0.24838  0.55242  Biso   1.000  C
  C118     1.0000 0.42984  0.29026  0.59629  Biso   1.000  C
  C119     1.0000 0.44317  0.25163  0.55242  Biso   1.000  C
  C120     1.0000 0.42984  0.20973  0.59629  Biso   1.000  C
  C121     1.0000 0.05612  0.28070  0.73760  Biso   1.000  C
  C122     1.0000 0.13853  0.29861  0.78772  Biso   1.000  C
  C123     1.0000 0.05612  0.21931  0.73760  Biso   1.000  C
  C124     1.0000 0.13853  0.20140  0.78772  Biso   1.000  C
  C125     1.0000 0.82857  0.45782  0.23549  Biso   1.000  C
  C126     1.0000 0.83519  0.50770  0.26981  Biso   1.000  C
  C127     1.0000 0.82305  0.40871  0.19981  Biso   1.000  C
  C128     1.0000 0.07396  0.30361  0.39139  Biso   1.000  C
  C129     1.0000 0.03745  0.29629  0.31021  Biso   1.000  C
  C130     1.0000 0.10954  0.31040  0.46929  Biso   1.000  C
  C131     1.0000 0.33768  0.41729  0.15861  Biso   1.000  C
  H82      1.0000 0.30962  0.37529  0.15689  Biso   1.000  H
  H83      1.0000 0.24570  0.35169  0.20063  Biso   1.000  H
  H84      1.0000 0.25093  0.36215  0.24919  Biso   1.000  H
  H85      1.0000 0.18843  0.37010  0.21950  Biso   1.000  H
  H86      1.0000 0.35377  0.45964  0.17138  Biso   1.000  H
  H87      1.0000 0.26183  0.46973  0.26222  Biso   1.000  H
  H88      1.0000 0.33355  0.47740  0.24919  Biso   1.000  H
  H89      1.0000 0.27273  0.48661  0.21883  Biso   1.000  H
  H90      1.0000 0.37788  0.41444  0.39646  Biso   1.000  H
  C132     1.0000 0.47575  0.41708  0.39888  Biso   1.000  C
  C133     1.0000 0.52278  0.40409  0.33308  Biso   1.000  C
  H91      1.0000 0.45672  0.39058  0.28768  Biso   1.000  H
  C134     1.0000 0.02110  0.36269  0.24320  Biso   1.000  C
  C135     1.0000 0.98689  0.38725  0.17397  Biso   1.000  C
  C136     1.0000 0.01038  0.47201  0.22991  Biso   1.000  C
  C137     1.0000 0.98171  0.43888  0.16737  Biso   1.000  C
  C138     1.0000 0.30087  0.14359  0.60550  Biso   1.000  C
  H92      1.0000 0.35601  0.13775  0.66037  Biso   1.000  H
  H93      1.0000 0.37271  0.16743  0.71673  Biso   1.000  H
  H94      1.0000 0.31280  0.18721  0.72817  Biso   1.000  H
  H95      1.0000 0.37253  0.20084  0.70481  Biso   1.000  H
  H96      1.0000 0.24086  0.15768  0.55643  Biso   1.000  H
  H97      1.0000 0.20639  0.22919  0.58543  Biso   1.000  H
  H98      1.0000 0.19524  0.20668  0.54863  Biso   1.000  H
  H99      1.0000 0.15181  0.20589  0.58807  Biso   1.000  H
  H100     1.0000 0.43511  0.22902  0.54681  Biso   1.000  H
  C139     1.0000 0.47985  0.26447  0.52521  Biso   1.000  C
  H101     1.0000 0.43511  0.27100  0.54681  Biso   1.000  H
  C140     1.0000 0.47985  0.23552  0.52521  Biso   1.000  C
  H102     1.0000 0.41189  0.29906  0.61946  Biso   1.000  H
  C141     1.0000 0.46826  0.30613  0.56978  Biso   1.000  C
  H103     1.0000 0.41189  0.20093  0.61946  Biso   1.000  H
  C142     1.0000 0.46826  0.19386  0.56978  Biso   1.000  C
  C143     1.0000 0.02035  0.30580  0.74251  Biso   1.000  C
  C144     1.0000 0.02715  0.25639  0.70921  Biso   1.000  C
  C145     1.0000 0.10264  0.32361  0.79291  Biso   1.000  C
  C146     1.0000 0.20494  0.29500  0.81232  Biso   1.000  C
  C147     1.0000 0.02035  0.19421  0.74251  Biso   1.000  C
  C148     1.0000 0.02715  0.24360  0.70921  Biso   1.000  C
  C149     1.0000 0.10264  0.17640  0.79291  Biso   1.000  C
  C150     1.0000 0.20494  0.20501  0.81232  Biso   1.000  C
  C151     1.0000 0.80239  0.47076  0.19429  Biso   1.000  C
  H104     1.0000 0.81754  0.51369  0.24164  Biso   1.000  H
  H105     1.0000 0.80524  0.51328  0.29150  Biso   1.000  H
  H106     1.0000 0.87709  0.51702  0.27576  Biso   1.000  H
  H107     1.0000 0.83259  0.38867  0.20764  Biso   1.000  H
  H108     1.0000 0.77728  0.41044  0.19066  Biso   1.000  H
  H109     1.0000 0.84987  0.41435  0.17635  Biso   1.000  H
  C152     1.0000 0.11045  0.27596  0.39104  Biso   1.000  C
  H110     1.0000 0.99292  0.29067  0.30215  Biso   1.000  H
  H111     1.0000 0.06478  0.27909  0.31260  Biso   1.000  H
  H112     1.0000 0.05375  0.30903  0.28832  Biso   1.000  H
  H113     1.0000 0.13305  0.29260  0.46394  Biso   1.000  H
  H114     1.0000 0.14030  0.32552  0.47799  Biso   1.000  H
  H115     1.0000 0.07957  0.30716  0.49198  Biso   1.000  H
  B7       1.0000 0.37769  0.41515  0.11872  Biso   1.000  B
  C153     1.0000 0.52998  0.41352  0.37501  Biso   1.000  C
  I2       1.0000 0.48865  0.42992  0.46241  Biso   1.000  I
  H116     1.0000 0.55895  0.40209  0.31690  Biso   1.000  H
  H117     1.0000 0.04026  0.34834  0.22577  Biso   1.000  H
  H118     1.0000 0.05043  0.36724  0.26687  Biso   1.000  H
  H119     1.0000 0.98125  0.35541  0.25346  Biso   1.000  H
  H120     1.0000 0.98177  0.36907  0.16189  Biso   1.000  H
  C154     1.0000 0.97410  0.41167  0.14934  Biso   1.000  C
  H121     1.0000 0.00902  0.48620  0.20764  Biso   1.000  H
  H122     1.0000 0.05129  0.47310  0.24569  Biso   1.000  H
  H123     1.0000 0.97590  0.47560  0.24859  Biso   1.000  H
  H124     1.0000 0.97321  0.45522  0.15093  Biso   1.000  H
  B8       1.0000 0.31834  0.11600  0.58234  Biso   1.000  B
  C155     1.0000 0.49334  0.29322  0.53429  Biso   1.000  C
  H125     1.0000 0.49545  0.25601  0.50099  Biso   1.000  H
  H126     1.0000 0.49545  0.24400  0.50099  Biso   1.000  H
  C156     1.0000 0.49334  0.20679  0.53429  Biso   1.000  C
  I3       1.0000 0.48647  0.34976  0.58113  Biso   1.000  I
  I4       1.0000 0.48647  0.15023  0.58113  Biso   1.000  I
  C157     1.0000 0.04286  0.32689  0.77099  Biso   1.000  C
  H127     1.0000 0.98147  0.30845  0.72677  Biso   1.000  H
  H128     1.0000 0.01205  0.26425  0.68226  Biso   1.000  H
  H129     1.0000 0.05986  0.24218  0.70485  Biso   1.000  H
  H130     1.0000 0.01205  0.23574  0.68226  Biso   1.000  H
  H131     1.0000 0.05986  0.25781  0.70485  Biso   1.000  H
  H132     1.0000 0.99152  0.24772  0.72288  Biso   1.000  H
  H133     1.0000 0.99152  0.25227  0.72288  Biso   1.000  H
  H134     1.0000 0.11860  0.33806  0.81095  Biso   1.000  H
  H135     1.0000 0.22345  0.27677  0.80534  Biso   1.000  H
  H136     1.0000 0.23353  0.31023  0.80454  Biso   1.000  H
  H137     1.0000 0.19892  0.29584  0.84239  Biso   1.000  H
  C158     1.0000 0.04286  0.17310  0.77099  Biso   1.000  C
  H138     1.0000 0.98147  0.19154  0.72677  Biso   1.000  H
  H139     1.0000 0.11860  0.16193  0.81095  Biso   1.000  H
  H140     1.0000 0.22345  0.22324  0.80534  Biso   1.000  H
  H141     1.0000 0.23353  0.18978  0.80454  Biso   1.000  H
  H142     1.0000 0.19892  0.20415  0.84239  Biso   1.000  H
  C159     1.0000 0.74046  0.46372  0.17839  Biso   1.000  C
  C160     1.0000 0.84148  0.48844  0.17081  Biso   1.000  C
  C161     1.0000 0.07686  0.24999  0.39021  Biso   1.000  C
  C162     1.0000 0.17776  0.27555  0.39113  Biso   1.000  C
  O10      1.0000 0.38107  0.38949  0.09711  Biso   1.000  O
  O11      1.0000 0.41228  0.43825  0.10467  Biso   1.000  O
  H143     1.0000 0.57109  0.41745  0.38706  Biso   1.000  H
  C163     1.0000 0.95137  0.40860  0.10196  Biso   1.000  C
  O12      1.0000 0.29823  0.11263  0.54028  Biso   1.000  O
  O13      1.0000 0.34885  0.09330  0.60308  Biso   1.000  O
  H144     1.0000 0.51915  0.30383  0.51661  Biso   1.000  H
  H145     1.0000 0.51915  0.19618  0.51661  Biso   1.000  H
  C164     1.0000 0.99992  0.35320  0.78001  Biso   1.000  C
  C165     1.0000 0.99992  0.14679  0.78001  Biso   1.000  C
  C166     1.0000 0.71766  0.47435  0.13911  Biso   1.000  C
  O14      1.0000 0.69990  0.44568  0.19901  Biso   1.000  O
  C167     1.0000 0.81869  0.49907  0.13159  Biso   1.000  C
  H146     1.0000 0.88376  0.49325  0.18171  Biso   1.000  H
  C168     1.0000 0.11045  0.22405  0.39104  Biso   1.000  C
  O15      1.0000 0.01244  0.24999  0.38989  Biso   1.000  O
  H147     1.0000 0.20069  0.29279  0.39158  Biso   1.000  H
  C169     1.0000 0.21124  0.24999  0.39050  Biso   1.000  C
  B9       1.0000 0.42141  0.38629  0.06471  Biso   1.000  B
  B10      1.0000 0.45750  0.43398  0.07300  Biso   1.000  B
  H148     1.0000 0.96150  0.38964  0.09218  Biso   1.000  H
  H149     1.0000 0.97320  0.42264  0.08539  Biso   1.000  H
  H150     1.0000 0.90544  0.41167  0.09890  Biso   1.000  H
  B11      1.0000 0.31005  0.08789  0.51906  Biso   1.000  B
  B12      1.0000 0.36476  0.06850  0.57979  Biso   1.000  B
  H151     1.0000 0.02248  0.36561  0.80030  Biso   1.000  H
  H152     1.0000 0.99065  0.36361  0.75404  Biso   1.000  H
  H153     1.0000 0.96010  0.34686  0.79138  Biso   1.000  H
  H154     1.0000 0.02248  0.13440  0.80030  Biso   1.000  H
  H155     1.0000 0.99065  0.13638  0.75404  Biso   1.000  H
  H156     1.0000 0.96010  0.15313  0.79138  Biso   1.000  H
  C170     1.0000 0.65097  0.46540  0.12171  Biso   1.000  C
  C171     1.0000 0.75680  0.49202  0.11569  Biso   1.000  C
  C172     1.0000 0.68178  0.45346  0.23845  Biso   1.000  C
  C173     1.0000 0.85480  0.52279  0.10769  Biso   1.000  C
  C174     1.0000 0.07396  0.19640  0.39139  Biso   1.000  C
  C175     1.0000 0.17776  0.22446  0.39113  Biso   1.000  C
  C176     1.0000 0.98217  0.24654  0.42762  Biso   1.000  C
  C177     1.0000 0.98217  0.25347  0.42762  Biso   1.000  C
  C178     1.0000 0.28578  0.24999  0.39171  Biso   1.000  C
  C179     1.0000 0.42142  0.35702  0.03871  Biso   1.000  C
  O16      1.0000 0.46049  0.40787  0.05127  Biso   1.000  O
  C180     1.0000 0.53028  0.44650  0.09039  Biso   1.000  C
  N3       1.0000 0.43378  0.45958  0.03479  Biso   1.000  N
  C181     1.0000 0.28217  0.08422  0.47006  Biso   1.000  C
  O17      1.0000 0.34584  0.06573  0.53678  Biso   1.000  O
  C182     1.0000 0.44815  0.06204  0.58810  Biso   1.000  C
  N4       1.0000 0.32656  0.04050  0.60219  Biso   1.000  N
  C183     1.0000 0.64599  0.44070  0.09680  Biso   1.000  C
  C184     1.0000 0.59558  0.48060  0.13089  Biso   1.000  C
  H157     1.0000 0.74123  0.49928  0.08886  Biso   1.000  H
  H158     1.0000 0.70106  0.47242  0.24553  Biso   1.000  H
  H159     1.0000 0.70028  0.43946  0.25939  Biso   1.000  H
  C185     1.0000 0.60877  0.45530  0.24400  Biso   1.000  C
  H160     1.0000 0.83040  0.54062  0.10890  Biso   1.000  H
  H161     1.0000 0.85506  0.51710  0.07806  Biso   1.000  H
  C186     1.0000 0.92539  0.52885  0.12369  Biso   1.000  C
  C187     1.0000 0.03929  0.18742  0.35475  Biso   1.000  C
  C188     1.0000 0.07158  0.18046  0.42870  Biso   1.000  C
  H162     1.0000 0.20069  0.20722  0.39158  Biso   1.000  H
  C189     1.0000 0.91575  0.26101  0.42720  Biso   1.000  C
  C190     1.0000 0.91575  0.23900  0.42720  Biso   1.000  C
  H163     1.0000 0.97698  0.22575  0.43319  Biso   1.000  H
  H164     1.0000 0.97698  0.27424  0.43319  Biso   1.000  H
  H165     1.0000 0.00999  0.25465  0.45116  Biso   1.000  H
  H166     1.0000 0.00999  0.24536  0.45116  Biso   1.000  H
  C191     1.0000 0.31556  0.27795  0.41111  Biso   1.000  C
  C192     1.0000 0.31556  0.22206  0.41111  Biso   1.000  C
  H167     1.0000 0.30016  0.24770  0.36227  Biso   1.000  H
  H168     1.0000 0.30209  0.23335  0.40860  Biso   1.000  H
  H169     1.0000 0.30016  0.25231  0.36227  Biso   1.000  H
  H170     1.0000 0.30209  0.26664  0.40860  Biso   1.000  H
  C193     1.0000 0.36960  0.33881  0.04540  Biso   1.000  C
  C194     1.0000 0.46850  0.34897  0.01109  Biso   1.000  C
  C195     1.0000 0.58567  0.43125  0.08122  Biso   1.000  C
  C196     1.0000 0.53531  0.47115  0.11521  Biso   1.000  C
  C197     1.0000 0.39519  0.47886  0.04521  Biso   1.000  C
  C198     1.0000 0.45859  0.45670  0.99640  Biso   1.000  C
  C199     1.0000 0.24986  0.10769  0.45180  Biso   1.000  C
  C200     1.0000 0.28765  0.05897  0.44689  Biso   1.000  C
  C201     1.0000 0.48396  0.07965  0.61621  Biso   1.000  C
  C202     1.0000 0.47905  0.04123  0.56485  Biso   1.000  C
  C203     1.0000 0.36048  0.01402  0.61238  Biso   1.000  C
  C204     1.0000 0.26470  0.04469  0.60120  Biso   1.000  C
  C205     1.0000 0.70637  0.42380  0.08469  Biso   1.000  C
  C206     1.0000 0.60137  0.50770  0.15679  Biso   1.000  C
  C207     1.0000 0.58301  0.47199  0.27570  Biso   1.000  C
  C208     1.0000 0.56779  0.44053  0.21519  Biso   1.000  C
  C209     1.0000 0.97676  0.51287  0.10929  Biso   1.000  C
  C210     1.0000 0.93668  0.54992  0.15459  Biso   1.000  C
  C211     1.0000 0.00228  0.16253  0.35542  Biso   1.000  C
  C212     1.0000 0.03745  0.20370  0.31021  Biso   1.000  C
  C213     1.0000 0.03457  0.15558  0.42934  Biso   1.000  C
  C214     1.0000 0.10954  0.18959  0.46929  Biso   1.000  C
  C215     1.0000 0.90844  0.28963  0.43899  Biso   1.000  C
  C216     1.0000 0.86198  0.24499  0.41322  Biso   1.000  C
  C217     1.0000 0.86198  0.25500  0.41322  Biso   1.000  C
  C218     1.0000 0.90844  0.21038  0.43899  Biso   1.000  C
  C219     1.0000 0.32053  0.28223  0.45489  Biso   1.000  C
  C220     1.0000 0.33567  0.29936  0.38390  Biso   1.000  C
  C221     1.0000 0.32053  0.21776  0.45489  Biso   1.000  C
  C222     1.0000 0.33567  0.20065  0.38390  Biso   1.000  C
  C223     1.0000 0.36501  0.31259  0.02441  Biso   1.000  C
  H171     1.0000 0.33741  0.34435  0.06427  Biso   1.000  H
  C224     1.0000 0.46381  0.32270  0.99009  Biso   1.000  C
  H172     1.0000 0.50390  0.36140  0.00650  Biso   1.000  H
  H173     1.0000 0.58230  0.41440  0.06420  Biso   1.000  H
  H174     1.0000 0.49747  0.48156  0.12152  Biso   1.000  H
  C225     1.0000 0.37811  0.50126  0.01552  Biso   1.000  C
  H175     1.0000 0.37780  0.47860  0.07191  Biso   1.000  H
  H176     1.0000 0.48556  0.44117  0.99143  Biso   1.000  H
  C226     1.0000 0.44489  0.47654  0.96368  Biso   1.000  C
  C227     1.0000 0.22319  0.10593  0.41041  Biso   1.000  C
  H177     1.0000 0.24609  0.12495  0.46760  Biso   1.000  H
  C228     1.0000 0.26098  0.05721  0.40550  Biso   1.000  C
  H178     1.0000 0.30972  0.04293  0.45938  Biso   1.000  H
  C229     1.0000 0.55075  0.07647  0.62086  Biso   1.000  C
  H179     1.0000 0.46285  0.09386  0.63211  Biso   1.000  H
  H180     1.0000 0.45464  0.02918  0.54570  Biso   1.000  H
  C230     1.0000 0.54583  0.03803  0.56953  Biso   1.000  C
  H181     1.0000 0.40506  0.01185  0.61098  Biso   1.000  H
  C231     1.0000 0.31686  0.99079  0.62519  Biso   1.000  C
  C232     1.0000 0.22133  0.02223  0.61222  Biso   1.000  C
  H182     1.0000 0.24810  0.06260  0.59317  Biso   1.000  H
  H183     1.0000 0.69316  0.40720  0.06720  Biso   1.000  H
  H184     1.0000 0.73437  0.43628  0.06847  Biso   1.000  H
  H185     1.0000 0.73018  0.41719  0.11059  Biso   1.000  H
  H186     1.0000 0.64698  0.51111  0.16520  Biso   1.000  H
  H187     1.0000 0.58447  0.52387  0.13978  Biso   1.000  H
  H188     1.0000 0.57655  0.50564  0.18238  Biso   1.000  H
  H189     1.0000 0.61042  0.48249  0.29428  Biso   1.000  H
  C233     1.0000 0.51631  0.47293  0.27968  Biso   1.000  C
  C234     1.0000 0.50097  0.44160  0.21902  Biso   1.000  C
  H190     1.0000 0.58487  0.42992  0.19337  Biso   1.000  H
  C235     1.0000 0.96669  0.49200  0.07150  Biso   1.000  C
  C236     1.0000 0.03879  0.51670  0.12770  Biso   1.000  C
  C237     1.0000 0.99917  0.55430  0.17209  Biso   1.000  C
  C238     1.0000 0.87966  0.56770  0.17100  Biso   1.000  C
  C239     1.0000 0.99985  0.14662  0.39270  Biso   1.000  C
  H191     1.0000 0.97859  0.15641  0.33034  Biso   1.000  H
  H192     1.0000 0.99292  0.20935  0.30215  Biso   1.000  H
  H193     1.0000 0.06478  0.22092  0.31260  Biso   1.000  H
  H194     1.0000 0.05375  0.19096  0.28832  Biso   1.000  H
  H195     1.0000 0.03293  0.14471  0.45483  Biso   1.000  H
  H196     1.0000 0.13305  0.20741  0.46394  Biso   1.000  H
  H197     1.0000 0.14030  0.17447  0.47799  Biso   1.000  H
  H198     1.0000 0.07957  0.19283  0.49198  Biso   1.000  H
  H199     1.0000 0.94432  0.30022  0.44903  Biso   1.000  H
  C240     1.0000 0.84757  0.30243  0.43587  Biso   1.000  C
  C241     1.0000 0.80125  0.25794  0.40930  Biso   1.000  C
  C242     1.0000 0.80125  0.24205  0.40930  Biso   1.000  C
  H200     1.0000 0.86650  0.22562  0.40652  Biso   1.000  H
  H201     1.0000 0.86650  0.27437  0.40652  Biso   1.000  H
  H202     1.0000 0.94432  0.19979  0.44903  Biso   1.000  H
  C243     1.0000 0.84757  0.19758  0.43587  Biso   1.000  C
  C244     1.0000 0.34715  0.30763  0.47139  Biso   1.000  C
  C245     1.0000 0.29476  0.25959  0.48570  Biso   1.000  C
  C246     1.0000 0.36393  0.32438  0.40041  Biso   1.000  C
  C247     1.0000 0.32384  0.29608  0.33509  Biso   1.000  C
  C248     1.0000 0.34715  0.19236  0.47139  Biso   1.000  C
  C249     1.0000 0.29476  0.24040  0.48570  Biso   1.000  C
  C250     1.0000 0.36393  0.17561  0.40041  Biso   1.000  C
  C251     1.0000 0.32384  0.20391  0.33509  Biso   1.000  C
  C252     1.0000 0.41200  0.30452  0.99681  Biso   1.000  C
  C253     1.0000 0.30318  0.29369  0.03081  Biso   1.000  C
  C254     1.0000 0.51962  0.31461  0.96161  Biso   1.000  C
  Br3      1.0000 0.32593  0.53136  0.02696  Biso   1.000  Br
  C255     1.0000 0.40239  0.49898  0.97269  Biso   1.000  C
  H203     1.0000 0.46299  0.47489  0.93730  Biso   1.000  H
  C256     1.0000 0.22877  0.08068  0.38725  Biso   1.000  C
  C257     1.0000 0.19277  0.13241  0.38910  Biso   1.000  C
  C258     1.0000 0.27078  0.02871  0.38250  Biso   1.000  C
  C259     1.0000 0.58164  0.05566  0.59760  Biso   1.000  C
  C260     1.0000 0.59145  0.09620  0.64912  Biso   1.000  C
  C261     1.0000 0.57606  0.01473  0.54401  Biso   1.000  C
  H204     1.0000 0.33476  0.97346  0.63497  Biso   1.000  H
  C262     1.0000 0.24936  0.99403  0.62312  Biso   1.000  C
  Br4      1.0000 0.13311  0.02774  0.60709  Biso   1.000  Br
  C263     1.0000 0.47533  0.45751  0.25161  Biso   1.000  C
  I5       1.0000 0.47621  0.49627  0.32865  Biso   1.000  I
  H205     1.0000 0.47352  0.43170  0.19977  Biso   1.000  H
  H206     1.0000 0.93490  0.47733  0.07844  Biso   1.000  H
  H207     1.0000 0.95094  0.50261  0.04614  Biso   1.000  H
  H208     1.0000 0.00790  0.48268  0.06586  Biso   1.000  H
  H209     1.0000 0.07290  0.50544  0.11878  Biso   1.000  H
  C264     1.0000 0.04989  0.53720  0.15931  Biso   1.000  C
  H210     1.0000 0.00689  0.56866  0.19235  Biso   1.000  H
  H211     1.0000 0.86212  0.58019  0.14806  Biso   1.000  H
  H212     1.0000 0.89517  0.57955  0.19522  Biso   1.000  H
  H213     1.0000 0.84575  0.55473  0.17999  Biso   1.000  H
  B13      1.0000 0.95988  0.11868  0.39372  Biso   1.000  B
  C265     1.0000 0.79414  0.28678  0.42010  Biso   1.000  C
  I6       1.0000 0.83504  0.34557  0.45225  Biso   1.000  I
  H214     1.0000 0.76532  0.24735  0.39939  Biso   1.000  H
  H215     1.0000 0.76532  0.25266  0.39939  Biso   1.000  H
  C266     1.0000 0.79414  0.21323  0.42010  Biso   1.000  C
  I7       1.0000 0.83504  0.15444  0.45225  Biso   1.000  I
  H216     1.0000 0.34943  0.31070  0.50071  Biso   1.000  H
  C267     1.0000 0.37016  0.32839  0.44422  Biso   1.000  C
  H217     1.0000 0.24821  0.25697  0.47962  Biso   1.000  H
  H218     1.0000 0.30236  0.26623  0.51511  Biso   1.000  H
  H219     1.0000 0.31717  0.24136  0.48178  Biso   1.000  H
  H220     1.0000 0.24821  0.24302  0.47962  Biso   1.000  H
  H221     1.0000 0.37868  0.33842  0.38218  Biso   1.000  H
  H222     1.0000 0.34087  0.31295  0.32075  Biso   1.000  H
  H223     1.0000 0.34596  0.27881  0.32547  Biso   1.000  H
  H224     1.0000 0.27737  0.29438  0.32808  Biso   1.000  H
  H225     1.0000 0.34943  0.18929  0.50071  Biso   1.000  H
  C268     1.0000 0.37016  0.17159  0.44422  Biso   1.000  C
  H226     1.0000 0.30236  0.23378  0.51511  Biso   1.000  H
  H227     1.0000 0.31717  0.25863  0.48178  Biso   1.000  H
  H228     1.0000 0.37868  0.16157  0.38218  Biso   1.000  H
  H229     1.0000 0.34087  0.18703  0.32075  Biso   1.000  H
  H230     1.0000 0.34596  0.22120  0.32547  Biso   1.000  H
  H231     1.0000 0.27737  0.20561  0.32808  Biso   1.000  H
  C269     1.0000 0.40598  0.27591  0.97419  Biso   1.000  C
  H232     1.0000 0.27605  0.30297  0.05139  Biso   1.000  H
  H233     1.0000 0.27863  0.29161  0.00344  Biso   1.000  H
  H234     1.0000 0.31645  0.27467  0.04139  Biso   1.000  H
  H235     1.0000 0.51090  0.29575  0.94861  Biso   1.000  H
  H236     1.0000 0.52308  0.32904  0.93914  Biso   1.000  H
  H237     1.0000 0.56031  0.31384  0.97891  Biso   1.000  H
  H238     1.0000 0.38983  0.51227  0.95176  Biso   1.000  H
  C270     1.0000 0.20129  0.07971  0.34165  Biso   1.000  C
  H239     1.0000 0.19259  0.14821  0.40961  Biso   1.000  H
  H240     1.0000 0.14829  0.12800  0.37906  Biso   1.000  H
  H241     1.0000 0.21793  0.13797  0.36479  Biso   1.000  H
  H242     1.0000 0.29470  0.01542  0.40165  Biso   1.000  H
  H243     1.0000 0.29523  0.03208  0.35711  Biso   1.000  H
  H244     1.0000 0.22849  0.02042  0.37409  Biso   1.000  H
  C271     1.0000 0.65545  0.05285  0.60190  Biso   1.000  C
  H245     1.0000 0.56331  0.10962  0.66343  Biso   1.000  H
  H246     1.0000 0.62114  0.10696  0.63172  Biso   1.000  H
  H247     1.0000 0.61630  0.08484  0.67044  Biso   1.000  H
  H248     1.0000 0.62295  0.01467  0.55000  Biso   1.000  H
  H249     1.0000 0.56679  0.01830  0.51355  Biso   1.000  H
  H250     1.0000 0.55810  0.99609  0.55169  Biso   1.000  H
  H251     1.0000 0.22262  0.97848  0.62857  Biso   1.000  H
  H252     1.0000 0.43078  0.45784  0.25464  Biso   1.000  H
  C272     1.0000 0.11818  0.54049  0.18129  Biso   1.000  C
  O18      1.0000 0.93196  0.10715  0.35688  Biso   1.000  O
  O19      1.0000 0.96378  0.10189  0.42978  Biso   1.000  O
  H253     1.0000 0.75375  0.29556  0.41685  Biso   1.000  H
  H254     1.0000 0.75375  0.20443  0.41685  Biso   1.000  H
  C273     1.0000 0.40514  0.35543  0.46270  Biso   1.000  C
  C274     1.0000 0.40514  0.14456  0.46270  Biso   1.000  C
  C275     1.0000 0.41401  0.24999  0.99589  Biso   1.000  C
  C276     1.0000 0.39491  0.27544  0.93019  Biso   1.000  C
  C277     1.0000 0.24287  0.07924  0.30829  Biso   1.000  C
  C278     1.0000 0.13480  0.07999  0.33311  Biso   1.000  C
  C279     1.0000 0.69313  0.05873  0.56755  Biso   1.000  C
  C280     1.0000 0.68462  0.04424  0.64061  Biso   1.000  C
  H255     1.0000 0.11758  0.55584  0.20261  Biso   1.000  H
  H256     1.0000 0.13084  0.52239  0.19528  Biso   1.000  H
  H257     1.0000 0.14936  0.54530  0.15995  Biso   1.000  H
  B14      1.0000 0.90878  0.07982  0.35586  Biso   1.000  B
  B15      1.0000 0.93945  0.07348  0.42816  Biso   1.000  B
  H258     1.0000 0.40534  0.35496  0.49386  Biso   1.000  H
  H259     1.0000 0.44977  0.35577  0.45362  Biso   1.000  H
  H260     1.0000 0.38241  0.37269  0.45218  Biso   1.000  H
  H261     1.0000 0.40534  0.14505  0.49386  Biso   1.000  H
  H262     1.0000 0.44977  0.14424  0.45362  Biso   1.000  H
  H263     1.0000 0.38241  0.12729  0.45218  Biso   1.000  H
  O20      1.0000 0.42748  0.24997  0.03779  Biso   1.000  O
  C281     1.0000 0.40598  0.22408  0.97419  Biso   1.000  C
  H264     1.0000 0.38958  0.29266  0.91538  Biso   1.000  H
  C282     1.0000 0.39183  0.24999  0.90811  Biso   1.000  C
  C283     1.0000 0.21809  0.07904  0.26640  Biso   1.000  C
  O21      1.0000 0.30979  0.07651  0.31550  Biso   1.000  O
  C284     1.0000 0.10987  0.07977  0.29122  Biso   1.000  C
  H265     1.0000 0.10623  0.08031  0.35586  Biso   1.000  H
  C285     1.0000 0.76003  0.05600  0.57192  Biso   1.000  C
  O22      1.0000 0.66553  0.06880  0.52992  Biso   1.000  O
  H266     1.0000 0.65887  0.04022  0.66406  Biso   1.000  H
  C286     1.0000 0.75153  0.04153  0.64501  Biso   1.000  C
  C287     1.0000 0.87816  0.06614  0.31138  Biso   1.000  C
  O23      1.0000 0.91138  0.06208  0.39059  Biso   1.000  O
  C288     1.0000 0.88535  0.06996  0.46951  Biso   1.000  C
  N5       1.0000 0.00223  0.05121  0.44183  Biso   1.000  N
  C289     1.0000 0.49428  0.25251  0.05092  Biso   1.000  C
  C290     1.0000 0.49428  0.24750  0.05092  Biso   1.000  C
  C291     1.0000 0.41200  0.19547  0.99681  Biso   1.000  C
  C292     1.0000 0.39491  0.22457  0.93019  Biso   1.000  C
  C293     1.0000 0.37950  0.24999  0.85971  Biso   1.000  C
  C294     1.0000 0.26146  0.08001  0.22880  Biso   1.000  C
  C295     1.0000 0.15149  0.07930  0.25783  Biso   1.000  C
  C296     1.0000 0.34047  0.10415  0.31734  Biso   1.000  C
  C297     1.0000 0.03717  0.07887  0.28182  Biso   1.000  C
  C298     1.0000 0.80126  0.06129  0.53461  Biso   1.000  C
  C299     1.0000 0.78926  0.04741  0.61069  Biso   1.000  C
  C300     1.0000 0.65594  0.09901  0.52954  Biso   1.000  C
  C301     1.0000 0.78246  0.03230  0.68841  Biso   1.000  C
  C302     1.0000 0.86865  0.03666  0.30829  Biso   1.000  C
  C303     1.0000 0.86285  0.08366  0.27650  Biso   1.000  C
  C304     1.0000 0.88704  0.08830  0.50450  Biso   1.000  C
  C305     1.0000 0.84154  0.04731  0.46709  Biso   1.000  C
  C306     1.0000 0.99123  0.02478  0.43753  Biso   1.000  C
  C307     1.0000 0.05966  0.06302  0.45378  Biso   1.000  C
  C308     1.0000 0.50171  0.26271  0.09711  Biso   1.000  C
  C309     1.0000 0.50171  0.23730  0.09711  Biso   1.000  C
  H267     1.0000 0.51548  0.26642  0.03231  Biso   1.000  H
  H268     1.0000 0.51581  0.23370  0.04814  Biso   1.000  H
  H269     1.0000 0.51548  0.23359  0.03231  Biso   1.000  H
  H270     1.0000 0.51581  0.26631  0.04814  Biso   1.000  H
  C310     1.0000 0.36501  0.18742  0.02441  Biso   1.000  C
  C311     1.0000 0.46381  0.17731  0.99009  Biso   1.000  C
  H271     1.0000 0.38958  0.20733  0.91538  Biso   1.000  H
  H272     1.0000 0.33264  0.25367  0.85270  Biso   1.000  H
  H273     1.0000 0.39415  0.23337  0.84659  Biso   1.000  H
  C312     1.0000 0.41759  0.27718  0.84158  Biso   1.000  C
  H274     1.0000 0.33264  0.24634  0.85270  Biso   1.000  H
  H275     1.0000 0.39415  0.26662  0.84659  Biso   1.000  H
  C313     1.0000 0.41759  0.22281  0.84158  Biso   1.000  C
  C314     1.0000 0.26749  0.10576  0.20701  Biso   1.000  C
  C315     1.0000 0.29370  0.05566  0.21561  Biso   1.000  C
  H276     1.0000 0.13448  0.07917  0.22918  Biso   1.000  H
  H277     1.0000 0.34469  0.11211  0.28841  Biso   1.000  H
  H278     1.0000 0.31562  0.11783  0.33426  Biso   1.000  H
  C316     1.0000 0.40709  0.09831  0.33901  Biso   1.000  C
  H279     1.0000 0.02078  0.06019  0.29176  Biso   1.000  H
  H280     1.0000 0.01705  0.09410  0.29867  Biso   1.000  H
  C317     1.0000 0.01469  0.08278  0.23460  Biso   1.000  C
  C318     1.0000 0.84506  0.08394  0.53700  Biso   1.000  C
  C319     1.0000 0.79956  0.04297  0.49959  Biso   1.000  C
  H281     1.0000 0.83490  0.04555  0.61366  Biso   1.000  H
  H282     1.0000 0.61476  0.10361  0.54273  Biso   1.000  H
  H283     1.0000 0.69149  0.10840  0.54665  Biso   1.000  H
  C320     1.0000 0.65418  0.11076  0.48414  Biso   1.000  C
  H284     1.0000 0.75624  0.03990  0.71141  Biso   1.000  H
  H285     1.0000 0.78212  0.01108  0.69032  Biso   1.000  H
  C321     1.0000 0.85284  0.04320  0.69529  Biso   1.000  C
  C322     1.0000 0.84388  0.02467  0.27041  Biso   1.000  C
  H286     1.0000 0.87906  0.02467  0.33219  Biso   1.000  H
  C323     1.0000 0.83818  0.07168  0.23861  Biso   1.000  C
  H287     1.0000 0.86938  0.10382  0.27857  Biso   1.000  H
  H288     1.0000 0.91692  0.10378  0.50612  Biso   1.000  H
  H289     1.0000 0.84044  0.03479  0.44320  Biso   1.000  H
  H290     1.0000 0.94975  0.01830  0.42959  Biso   1.000  H
  C324     1.0000 0.04315  0.00472  0.44501  Biso   1.000  C
  H291     1.0000 0.06242  0.08284  0.45766  Biso   1.000  H
  C325     1.0000 0.11554  0.04625  0.46050  Biso   1.000  C
  C326     1.0000 0.46309  0.28431  0.11279  Biso   1.000  C
  C327     1.0000 0.54658  0.24860  0.12429  Biso   1.000  C
  C328     1.0000 0.54658  0.25139  0.12429  Biso   1.000  C
  C329     1.0000 0.46309  0.21570  0.11279  Biso   1.000  C
  C330     1.0000 0.36960  0.16120  0.04540  Biso   1.000  C
  C331     1.0000 0.30318  0.20630  0.03081  Biso   1.000  C
  C332     1.0000 0.46850  0.15102  0.01109  Biso   1.000  C
  C333     1.0000 0.51962  0.18540  0.96161  Biso   1.000  C
  C334     1.0000 0.48493  0.27619  0.84149  Biso   1.000  C
  C335     1.0000 0.38429  0.30112  0.82549  Biso   1.000  C
  C336     1.0000 0.48493  0.22380  0.84149  Biso   1.000  C
  C337     1.0000 0.38429  0.19887  0.82549  Biso   1.000  C
  C338     1.0000 0.30559  0.10711  0.17180  Biso   1.000  C
  C339     1.0000 0.23540  0.13279  0.22020  Biso   1.000  C
  C340     1.0000 0.33180  0.05701  0.18040  Biso   1.000  C
  C341     1.0000 0.29016  0.02819  0.23829  Biso   1.000  C
  C342     1.0000 0.41427  0.08845  0.38072  Biso   1.000  C
  C343     1.0000 0.46139  0.10239  0.31537  Biso   1.000  C
  C344     1.0000 0.00709  0.10997  0.21660  Biso   1.000  C
  C345     1.0000 0.00200  0.05837  0.21000  Biso   1.000  C
  C346     1.0000 0.84943  0.10460  0.57482  Biso   1.000  C
  C347     1.0000 0.75077  0.01866  0.49580  Biso   1.000  C
  C348     1.0000 0.69044  0.09856  0.45279  Biso   1.000  C
  C349     1.0000 0.61466  0.13438  0.47461  Biso   1.000  C
  C350     1.0000 0.90542  0.02553  0.68786  Biso   1.000  C
  C351     1.0000 0.86305  0.07166  0.70759  Biso   1.000  C
  C352     1.0000 0.82857  0.04220  0.23549  Biso   1.000  C
  C353     1.0000 0.83519  0.99229  0.26981  Biso   1.000  C
  C354     1.0000 0.82305  0.09131  0.19981  Biso   1.000  C
  Br5      1.0000 0.02941  0.96584  0.43899  Biso   1.000  Br
  C355     1.0000 0.10717  0.01634  0.45785  Biso   1.000  C
  H292     1.0000 0.15604  0.05448  0.46646  Biso   1.000  H
  C356     1.0000 0.46648  0.29071  0.15609  Biso   1.000  C
  H293     1.0000 0.43492  0.29457  0.09437  Biso   1.000  H
  C357     1.0000 0.55149  0.25560  0.16731  Biso   1.000  C
  H294     1.0000 0.57330  0.23447  0.11362  Biso   1.000  H
  C358     1.0000 0.55149  0.24439  0.16731  Biso   1.000  C
  H295     1.0000 0.57330  0.26554  0.11362  Biso   1.000  H
  H296     1.0000 0.43492  0.20544  0.09437  Biso   1.000  H
  C359     1.0000 0.46648  0.20930  0.15609  Biso   1.000  C
  H297     1.0000 0.33741  0.15564  0.06427  Biso   1.000  H
  C360     1.0000 0.42142  0.14297  0.03871  Biso   1.000  C
  H298     1.0000 0.27605  0.19702  0.05139  Biso   1.000  H
  H299     1.0000 0.27863  0.20840  0.00344  Biso   1.000  H
  H300     1.0000 0.31645  0.22532  0.04139  Biso   1.000  H
  H301     1.0000 0.50390  0.13859  0.00650  Biso   1.000  H
  H302     1.0000 0.51090  0.20423  0.94861  Biso   1.000  H
  H303     1.0000 0.52308  0.17097  0.93914  Biso   1.000  H
  H304     1.0000 0.56031  0.18618  0.97891  Biso   1.000  H
  C361     1.0000 0.51891  0.29919  0.82521  Biso   1.000  C
  C362     1.0000 0.52201  0.24999  0.85959  Biso   1.000  C
  H305     1.0000 0.49123  0.26425  0.86969  Biso   1.000  H
  C363     1.0000 0.41831  0.32410  0.80908  Biso   1.000  C
  C364     1.0000 0.30922  0.30220  0.82559  Biso   1.000  C
  H306     1.0000 0.49123  0.23574  0.86969  Biso   1.000  H
  C365     1.0000 0.51891  0.20080  0.82521  Biso   1.000  C
  C366     1.0000 0.41831  0.17589  0.80908  Biso   1.000  C
  C367     1.0000 0.30922  0.19779  0.82559  Biso   1.000  C
  C368     1.0000 0.33768  0.08269  0.15861  Biso   1.000  C
  H307     1.0000 0.30962  0.12470  0.15689  Biso   1.000  H
  H308     1.0000 0.24570  0.14830  0.20063  Biso   1.000  H
  H309     1.0000 0.25093  0.13786  0.24919  Biso   1.000  H
  H310     1.0000 0.18843  0.12989  0.21950  Biso   1.000  H
  H311     1.0000 0.35377  0.04037  0.17138  Biso   1.000  H
  H312     1.0000 0.26183  0.03028  0.26222  Biso   1.000  H
  H313     1.0000 0.33355  0.02261  0.24919  Biso   1.000  H
  H314     1.0000 0.27273  0.01338  0.21883  Biso   1.000  H
  H315     1.0000 0.37788  0.08555  0.39646  Biso   1.000  H
  C369     1.0000 0.47575  0.08291  0.39888  Biso   1.000  C
  C370     1.0000 0.52278  0.09592  0.33308  Biso   1.000  C
  H316     1.0000 0.45672  0.10941  0.28768  Biso   1.000  H
  C371     1.0000 0.02110  0.13730  0.24320  Biso   1.000  C
  C372     1.0000 0.98689  0.11274  0.17397  Biso   1.000  C
  C373     1.0000 0.01038  0.02798  0.22991  Biso   1.000  C
  C374     1.0000 0.98171  0.06114  0.16737  Biso   1.000  C
  H317     1.0000 0.88310  0.11892  0.57033  Biso   1.000  H
  H318     1.0000 0.86041  0.09382  0.60098  Biso   1.000  H
  H319     1.0000 0.80779  0.11424  0.57734  Biso   1.000  H
  H320     1.0000 0.75653  0.00805  0.46936  Biso   1.000  H
  H321     1.0000 0.70688  0.02661  0.49548  Biso   1.000  H
  H322     1.0000 0.75726  0.00567  0.52018  Biso   1.000  H
  H323     1.0000 0.71682  0.08276  0.45916  Biso   1.000  H
  C375     1.0000 0.68728  0.10997  0.41188  Biso   1.000  C
  C376     1.0000 0.61154  0.14578  0.43367  Biso   1.000  C
  H324     1.0000 0.59040  0.14256  0.49558  Biso   1.000  H
  C377     1.0000 0.96824  0.03612  0.69376  Biso   1.000  C
  C378     1.0000 0.89522  0.99444  0.67190  Biso   1.000  C
  C379     1.0000 0.92575  0.08233  0.71313  Biso   1.000  C
  C380     1.0000 0.80475  0.09135  0.71660  Biso   1.000  C
  C381     1.0000 0.80239  0.02925  0.19429  Biso   1.000  C
  H325     1.0000 0.81754  0.98632  0.24164  Biso   1.000  H
  H326     1.0000 0.80524  0.98671  0.29150  Biso   1.000  H
  H327     1.0000 0.87709  0.98299  0.27576  Biso   1.000  H
  H328     1.0000 0.83259  0.11132  0.20764  Biso   1.000  H
  H329     1.0000 0.77728  0.08957  0.19066  Biso   1.000  H
  H330     1.0000 0.84987  0.08564  0.17635  Biso   1.000  H
  H331     1.0000 0.14186  0.00404  0.46416  Biso   1.000  H
  I8       1.0000 0.40300  0.32030  0.18161  Biso   1.000  I
  C382     1.0000 0.51077  0.27630  0.18330  Biso   1.000  C
  H332     1.0000 0.58199  0.24641  0.18531  Biso   1.000  H
  H333     1.0000 0.58199  0.25358  0.18531  Biso   1.000  H
  C383     1.0000 0.51077  0.22369  0.18330  Biso   1.000  C
  I9       1.0000 0.40300  0.17969  0.18161  Biso   1.000  I
  B16      1.0000 0.42141  0.11372  0.06471  Biso   1.000  B
  H334     1.0000 0.56393  0.29855  0.82508  Biso   1.000  H
  C384     1.0000 0.48560  0.32309  0.80899  Biso   1.000  C
  H335     1.0000 0.54702  0.24123  0.83715  Biso   1.000  H
  H336     1.0000 0.55150  0.25586  0.88332  Biso   1.000  H
  H337     1.0000 0.54702  0.25876  0.83715  Biso   1.000  H
  H338     1.0000 0.55150  0.24415  0.88332  Biso   1.000  H
  H339     1.0000 0.39609  0.34014  0.79835  Biso   1.000  H
  H340     1.0000 0.29317  0.28446  0.83808  Biso   1.000  H
  H341     1.0000 0.29596  0.31869  0.84248  Biso   1.000  H
  H342     1.0000 0.29124  0.30413  0.79628  Biso   1.000  H
  H343     1.0000 0.56393  0.20146  0.82508  Biso   1.000  H
  C385     1.0000 0.48560  0.17690  0.80899  Biso   1.000  C
  H344     1.0000 0.39609  0.15987  0.79835  Biso   1.000  H
  H345     1.0000 0.29317  0.21553  0.83808  Biso   1.000  H
  H346     1.0000 0.29596  0.18132  0.84248  Biso   1.000  H
  H347     1.0000 0.29124  0.19586  0.79628  Biso   1.000  H
  B17      1.0000 0.37769  0.08484  0.11872  Biso   1.000  B
  C386     1.0000 0.52998  0.08647  0.37501  Biso   1.000  C
  I10      1.0000 0.48865  0.07007  0.46241  Biso   1.000  I
  H348     1.0000 0.55895  0.09792  0.31690  Biso   1.000  H
  H349     1.0000 0.04026  0.15165  0.22577  Biso   1.000  H
  H350     1.0000 0.05043  0.13277  0.26687  Biso   1.000  H
  H351     1.0000 0.98125  0.14458  0.25346  Biso   1.000  H
  H352     1.0000 0.98177  0.13092  0.16189  Biso   1.000  H
  C387     1.0000 0.97410  0.08832  0.14934  Biso   1.000  C
  H353     1.0000 0.00902  0.01379  0.20764  Biso   1.000  H
  H354     1.0000 0.05129  0.02688  0.24569  Biso   1.000  H
  H355     1.0000 0.97590  0.02442  0.24859  Biso   1.000  H
  H356     1.0000 0.97321  0.04479  0.15093  Biso   1.000  H
  C388     1.0000 0.64786  0.13359  0.40229  Biso   1.000  C
  I11      1.0000 0.74044  0.09189  0.36383  Biso   1.000  I
  H357     1.0000 0.58512  0.16159  0.42730  Biso   1.000  H
  C389     1.0000 0.97835  0.06470  0.70539  Biso   1.000  C
  H358     1.0000 0.00340  0.02409  0.68987  Biso   1.000  H
  H359     1.0000 0.93661  0.98551  0.66856  Biso   1.000  H
  H360     1.0000 0.87114  0.99467  0.64495  Biso   1.000  H
  H361     1.0000 0.87159  0.98374  0.69210  Biso   1.000  H
  H362     1.0000 0.93261  0.10123  0.72199  Biso   1.000  H
  H363     1.0000 0.76502  0.08087  0.71125  Biso   1.000  H
  H364     1.0000 0.80505  0.10788  0.69825  Biso   1.000  H
  H365     1.0000 0.80793  0.09749  0.74576  Biso   1.000  H
  C390     1.0000 0.74046  0.03629  0.17839  Biso   1.000  C
  C391     1.0000 0.84148  0.01155  0.17081  Biso   1.000  C
  H366     1.0000 0.51311  0.28062  0.21220  Biso   1.000  H
  H367     1.0000 0.51311  0.21937  0.21220  Biso   1.000  H
  O24      1.0000 0.38107  0.11050  0.09711  Biso   1.000  O
  O25      1.0000 0.46049  0.09214  0.05127  Biso   1.000  O
  C392     1.0000 0.52359  0.34879  0.79080  Biso   1.000  C
  C393     1.0000 0.52359  0.15120  0.79080  Biso   1.000  C
  O26      1.0000 0.41228  0.06174  0.10467  Biso   1.000  O
  H368     1.0000 0.57109  0.08254  0.38706  Biso   1.000  H
  C394     1.0000 0.95137  0.09139  0.10196  Biso   1.000  C
  H369     1.0000 0.64578  0.14121  0.37492  Biso   1.000  H
  C395     1.0000 0.04773  0.07730  0.70800  Biso   1.000  C
  C396     1.0000 0.71766  0.02564  0.13911  Biso   1.000  C
  O27      1.0000 0.69990  0.05433  0.19901  Biso   1.000  O
  C397     1.0000 0.81869  0.00092  0.13159  Biso   1.000  C
  H370     1.0000 0.88376  0.00674  0.18171  Biso   1.000  H
  B18      1.0000 0.45750  0.06601  0.07300  Biso   1.000  B
  H371     1.0000 0.49312  0.36372  0.78082  Biso   1.000  H
  H372     1.0000 0.55317  0.35668  0.81319  Biso   1.000  H
  H373     1.0000 0.54845  0.34218  0.76696  Biso   1.000  H
  H374     1.0000 0.49312  0.13627  0.78082  Biso   1.000  H
  H375     1.0000 0.55317  0.14331  0.81319  Biso   1.000  H
  H376     1.0000 0.54845  0.15783  0.76696  Biso   1.000  H
  H377     1.0000 0.96150  0.11037  0.09218  Biso   1.000  H
  H378     1.0000 0.97320  0.07737  0.08539  Biso   1.000  H
  H379     1.0000 0.90544  0.08832  0.09890  Biso   1.000  H
  H380     1.0000 0.04625  0.09710  0.71641  Biso   1.000  H
  H381     1.0000 0.06609  0.07584  0.68063  Biso   1.000  H
  H382     1.0000 0.07408  0.06663  0.72858  Biso   1.000  H
  C398     1.0000 0.65097  0.03459  0.12171  Biso   1.000  C
  C399     1.0000 0.75680  0.00797  0.11569  Biso   1.000  C
  C400     1.0000 0.68178  0.04655  0.23845  Biso   1.000  C
  C401     1.0000 0.85480  0.97720  0.10769  Biso   1.000  C
  C402     1.0000 0.53028  0.05349  0.09039  Biso   1.000  C
  N6       1.0000 0.43378  0.04043  0.03479  Biso   1.000  N
  C403     1.0000 0.64599  0.05931  0.09680  Biso   1.000  C
  C404     1.0000 0.59558  0.01939  0.13089  Biso   1.000  C
  H383     1.0000 0.74123  0.00071  0.08886  Biso   1.000  H
  H384     1.0000 0.70106  0.02759  0.24553  Biso   1.000  H
  H385     1.0000 0.70028  0.06056  0.25939  Biso   1.000  H
  C405     1.0000 0.60877  0.04469  0.24400  Biso   1.000  C
  H386     1.0000 0.83040  0.95937  0.10890  Biso   1.000  H
  H387     1.0000 0.85506  0.98291  0.07806  Biso   1.000  H
  C406     1.0000 0.92539  0.97114  0.12369  Biso   1.000  C
  C407     1.0000 0.58567  0.06874  0.08122  Biso   1.000  C
  C408     1.0000 0.53531  0.02884  0.11521  Biso   1.000  C
  C409     1.0000 0.39519  0.02113  0.04521  Biso   1.000  C
  C410     1.0000 0.45859  0.04329  0.99640  Biso   1.000  C
  C411     1.0000 0.70637  0.07621  0.08469  Biso   1.000  C
  C412     1.0000 0.60137  0.99229  0.15679  Biso   1.000  C
  C413     1.0000 0.58301  0.02800  0.27570  Biso   1.000  C
  C414     1.0000 0.56779  0.05948  0.21519  Biso   1.000  C
  C415     1.0000 0.97676  0.98714  0.10929  Biso   1.000  C
  C416     1.0000 0.93668  0.95007  0.15459  Biso   1.000  C
  H388     1.0000 0.58230  0.08561  0.06420  Biso   1.000  H
  H389     1.0000 0.49747  0.01842  0.12152  Biso   1.000  H
  H390     1.0000 0.37780  0.02139  0.07191  Biso   1.000  H
  C417     1.0000 0.37811  0.99873  0.01552  Biso   1.000  C
  H391     1.0000 0.48556  0.05884  0.99143  Biso   1.000  H
  C418     1.0000 0.44489  0.02347  0.96368  Biso   1.000  C
  H392     1.0000 0.69316  0.09281  0.06720  Biso   1.000  H
  H393     1.0000 0.73437  0.06371  0.06847  Biso   1.000  H
  H394     1.0000 0.73018  0.08280  0.11059  Biso   1.000  H
  H395     1.0000 0.64698  0.98888  0.16520  Biso   1.000  H
  H396     1.0000 0.58447  0.97612  0.13978  Biso   1.000  H
  H397     1.0000 0.57655  0.99435  0.18238  Biso   1.000  H
  H398     1.0000 0.61042  0.01750  0.29428  Biso   1.000  H
  C419     1.0000 0.51631  0.02706  0.27968  Biso   1.000  C
  C420     1.0000 0.50097  0.05839  0.21902  Biso   1.000  C
  H399     1.0000 0.58487  0.07009  0.19337  Biso   1.000  H
  C421     1.0000 0.96669  0.00801  0.07150  Biso   1.000  C
  C422     1.0000 0.03879  0.98329  0.12770  Biso   1.000  C
  C423     1.0000 0.99917  0.94569  0.17209  Biso   1.000  C
  C424     1.0000 0.87966  0.93229  0.17100  Biso   1.000  C
  Br6      1.0000 0.32593  0.96863  0.02696  Biso   1.000  Br
  C425     1.0000 0.40239  0.00103  0.97269  Biso   1.000  C
  H400     1.0000 0.46299  0.02510  0.93730  Biso   1.000  H
  C426     1.0000 0.47533  0.04250  0.25161  Biso   1.000  C
  I12      1.0000 0.47621  0.00371  0.32865  Biso   1.000  I
  H401     1.0000 0.47352  0.06829  0.19977  Biso   1.000  H
  H402     1.0000 0.93490  0.02268  0.07844  Biso   1.000  H
  H403     1.0000 0.95094  0.99738  0.04614  Biso   1.000  H
  H404     1.0000 0.00790  0.01733  0.06586  Biso   1.000  H
  H405     1.0000 0.07290  0.99455  0.11878  Biso   1.000  H
  C427     1.0000 0.04989  0.96281  0.15931  Biso   1.000  C
  H406     1.0000 0.00689  0.93133  0.19235  Biso   1.000  H
  H407     1.0000 0.86212  0.91980  0.14806  Biso   1.000  H
  H408     1.0000 0.89517  0.92046  0.19522  Biso   1.000  H
  H409     1.0000 0.84575  0.94526  0.17999  Biso   1.000  H
  H410     1.0000 0.38983  0.98772  0.95176  Biso   1.000  H
  H411     1.0000 0.43078  0.04217  0.25464  Biso   1.000  H
  C428     1.0000 0.11818  0.95950  0.18129  Biso   1.000  C
  H412     1.0000 0.11758  0.94415  0.20261  Biso   1.000  H
  H413     1.0000 0.13084  0.97760  0.19528  Biso   1.000  H
  H414     1.0000 0.14936  0.95469  0.15995  Biso   1.000  H
  C429     1.0000 0.42386  0.51474  0.45601  Biso   1.000  C
  C430     1.0000 0.45405  0.53802  0.43045  Biso   1.000  C
  H415     1.0000 0.37693  0.51466  0.44998  Biso   1.000  H
  H416     1.0000 0.43313  0.51828  0.48647  Biso   1.000  H
  H417     1.0000 0.44183  0.49608  0.44829  Biso   1.000  H
  C431     1.0000 0.41824  0.55565  0.40241  Biso   1.000  C
  C432     1.0000 0.52088  0.54122  0.43517  Biso   1.000  C
  C433     1.0000 0.34448  0.55284  0.39811  Biso   1.000  C
  C434     1.0000 0.44918  0.57646  0.37915  Biso   1.000  C
  C435     1.0000 0.55177  0.56203  0.41191  Biso   1.000  C
  H418     1.0000 0.54528  0.52919  0.45432  Biso   1.000  H
  C436     1.0000 0.31526  0.54425  0.35940  Biso   1.000  C
  C437     1.0000 0.30675  0.55872  0.43246  Biso   1.000  C
  C438     1.0000 0.51596  0.57966  0.38381  Biso   1.000  C
  C439     1.0000 0.40848  0.59619  0.35089  Biso   1.000  C
  B19      1.0000 0.63516  0.56849  0.42019  Biso   1.000  B
  C440     1.0000 0.24835  0.54152  0.35500  Biso   1.000  C
  H419     1.0000 0.34106  0.54023  0.33595  Biso   1.000  H
  C441     1.0000 0.23985  0.55601  0.42809  Biso   1.000  C
  O28      1.0000 0.33435  0.56879  0.47009  Biso   1.000  O
  H420     1.0000 0.53707  0.59387  0.36791  Biso   1.000  H
  H421     1.0000 0.43662  0.60963  0.33659  Biso   1.000  H
  H422     1.0000 0.37874  0.60695  0.36829  Biso   1.000  H
  H423     1.0000 0.38362  0.58483  0.32958  Biso   1.000  H
  N7       1.0000 0.67336  0.54049  0.39783  Biso   1.000  N
  O29      1.0000 0.65107  0.59329  0.39693  Biso   1.000  O
  O30      1.0000 0.65404  0.56574  0.46324  Biso   1.000  O
  C442     1.0000 0.21746  0.53231  0.31161  Biso   1.000  C
  C443     1.0000 0.21066  0.54740  0.38929  Biso   1.000  C
  C444     1.0000 0.19867  0.56127  0.46540  Biso   1.000  C
  C445     1.0000 0.34394  0.59903  0.47047  Biso   1.000  C
  C446     1.0000 0.63945  0.51401  0.38763  Biso   1.000  C
  C447     1.0000 0.73518  0.54468  0.39881  Biso   1.000  C
  B20      1.0000 0.68154  0.61599  0.41768  Biso   1.000  B
  B21      1.0000 0.68987  0.58788  0.48092  Biso   1.000  B
  C448     1.0000 0.14708  0.54319  0.30473  Biso   1.000  C
  H424     1.0000 0.24369  0.53989  0.28860  Biso   1.000  H
  H425     1.0000 0.21780  0.51107  0.30970  Biso   1.000  H
  H426     1.0000 0.16498  0.54556  0.38632  Biso   1.000  H
  C449     1.0000 0.20036  0.54296  0.50039  Biso   1.000  C
  C450     1.0000 0.15486  0.58393  0.46302  Biso   1.000  C
  H427     1.0000 0.38516  0.60360  0.45728  Biso   1.000  H
  H428     1.0000 0.30844  0.60839  0.45336  Biso   1.000  H
  C451     1.0000 0.34575  0.61077  0.51584  Biso   1.000  C
  H429     1.0000 0.59481  0.51184  0.38900  Biso   1.000  H
  C452     1.0000 0.68301  0.49078  0.37479  Biso   1.000  C
  C453     1.0000 0.77860  0.52221  0.38779  Biso   1.000  C
  H430     1.0000 0.75178  0.56261  0.40684  Biso   1.000  H
  C454     1.0000 0.69906  0.64358  0.39451  Biso   1.000  C
  O31      1.0000 0.70165  0.61262  0.45973  Biso   1.000  O
  C455     1.0000 0.71776  0.58421  0.52996  Biso   1.000  C
  C456     1.0000 0.09445  0.52552  0.31212  Biso   1.000  C
  C457     1.0000 0.13687  0.57167  0.29243  Biso   1.000  C
  C458     1.0000 0.15834  0.54732  0.53289  Biso   1.000  C
  C459     1.0000 0.24916  0.51867  0.50421  Biso   1.000  C
  C460     1.0000 0.11284  0.58829  0.49551  Biso   1.000  C
  C461     1.0000 0.15044  0.60461  0.42520  Biso   1.000  C
  C462     1.0000 0.30949  0.59855  0.54723  Biso   1.000  C
  C463     1.0000 0.38527  0.63439  0.52540  Biso   1.000  C
  H431     1.0000 0.66517  0.47347  0.36504  Biso   1.000  H
  C464     1.0000 0.75057  0.49402  0.37689  Biso   1.000  C
  Br7      1.0000 0.86677  0.52773  0.39292  Biso   1.000  Br
  C465     1.0000 0.67248  0.65071  0.35440  Biso   1.000  C
  C466     1.0000 0.74085  0.66257  0.41615  Biso   1.000  C
  C467     1.0000 0.75006  0.60770  0.54821  Biso   1.000  C
  C468     1.0000 0.71227  0.55898  0.55309  Biso   1.000  C
  C469     1.0000 0.10466  0.49443  0.32811  Biso   1.000  C
  C470     1.0000 0.03169  0.53613  0.30626  Biso   1.000  C
  C471     1.0000 0.07418  0.58232  0.28688  Biso   1.000  C
  C472     1.0000 0.19518  0.59136  0.28341  Biso   1.000  C
  C473     1.0000 0.11453  0.56997  0.53050  Biso   1.000  C
  H432     1.0000 0.15948  0.53478  0.55682  Biso   1.000  H
  H433     1.0000 0.24339  0.50806  0.53066  Biso   1.000  H
  H434     1.0000 0.29305  0.52659  0.50453  Biso   1.000  H
  H435     1.0000 0.24262  0.50568  0.47984  Biso   1.000  H
  H436     1.0000 0.08300  0.60377  0.49389  Biso   1.000  H
  H437     1.0000 0.11677  0.61893  0.42969  Biso   1.000  H
  H438     1.0000 0.13952  0.59381  0.39904  Biso   1.000  H
  H439     1.0000 0.19209  0.61425  0.42265  Biso   1.000  H
  H440     1.0000 0.28306  0.58275  0.54082  Biso   1.000  H
  C474     1.0000 0.31259  0.60996  0.58814  Biso   1.000  C
  C475     1.0000 0.38833  0.64579  0.56634  Biso   1.000  C
  H441     1.0000 0.40952  0.64257  0.50444  Biso   1.000  H
  H442     1.0000 0.77726  0.47849  0.37144  Biso   1.000  H
  C476     1.0000 0.68765  0.67680  0.33595  Biso   1.000  C
  H443     1.0000 0.64392  0.63774  0.33965  Biso   1.000  H
  H444     1.0000 0.75902  0.65769  0.44358  Biso   1.000  H
  C477     1.0000 0.75606  0.68866  0.39770  Biso   1.000  C
  H445     1.0000 0.75379  0.62494  0.53241  Biso   1.000  H
  C478     1.0000 0.77674  0.60592  0.58960  Biso   1.000  C
  C479     1.0000 0.73895  0.55719  0.59451  Biso   1.000  C
  H446     1.0000 0.69016  0.54291  0.54060  Biso   1.000  H
  H447     1.0000 0.06331  0.48549  0.33146  Biso   1.000  H
  H448     1.0000 0.12878  0.49466  0.35507  Biso   1.000  H
  H449     1.0000 0.12829  0.48376  0.30791  Biso   1.000  H
  C480     1.0000 0.02157  0.56469  0.29463  Biso   1.000  C
  H450     1.0000 0.99652  0.52408  0.31014  Biso   1.000  H
  H451     1.0000 0.06732  0.60124  0.27799  Biso   1.000  H
  H452     1.0000 0.23491  0.58088  0.28873  Biso   1.000  H
  H453     1.0000 0.19488  0.60787  0.30173  Biso   1.000  H
  H454     1.0000 0.19199  0.59750  0.25426  Biso   1.000  H
  B22      1.0000 0.06048  0.57349  0.57185  Biso   1.000  B
  C481     1.0000 0.35207  0.63358  0.59773  Biso   1.000  C
  I13      1.0000 0.25943  0.59190  0.63618  Biso   1.000  I
  H455     1.0000 0.41481  0.66160  0.57272  Biso   1.000  H
  C482     1.0000 0.72949  0.69578  0.35762  Biso   1.000  C
  C483     1.0000 0.65436  0.68370  0.29271  Biso   1.000  C
  C484     1.0000 0.80534  0.70959  0.42121  Biso   1.000  C
  C485     1.0000 0.77115  0.58069  0.61273  Biso   1.000  C
  C486     1.0000 0.80715  0.63239  0.61092  Biso   1.000  C
  C487     1.0000 0.72915  0.52870  0.61751  Biso   1.000  C
  C488     1.0000 0.95219  0.57729  0.29201  Biso   1.000  C
  O32      1.0000 0.03615  0.60190  0.57023  Biso   1.000  O
  O33      1.0000 0.08855  0.56207  0.60942  Biso   1.000  O
  N8       1.0000 0.99765  0.55123  0.55819  Biso   1.000  N
  H456     1.0000 0.35415  0.64120  0.62506  Biso   1.000  H
  C489     1.0000 0.74684  0.72400  0.33869  Biso   1.000  C
  H457     1.0000 0.62717  0.66742  0.28328  Biso   1.000  H
  H458     1.0000 0.68712  0.68722  0.27181  Biso   1.000  H
  H459     1.0000 0.62735  0.70083  0.29520  Biso   1.000  H
  H460     1.0000 0.79353  0.72918  0.41459  Biso   1.000  H
  H461     1.0000 0.80469  0.70667  0.45139  Biso   1.000  H
  H462     1.0000 0.84812  0.70588  0.41194  Biso   1.000  H
  C490     1.0000 0.79863  0.57970  0.65836  Biso   1.000  C
  H463     1.0000 0.80733  0.64820  0.59040  Biso   1.000  H
  H464     1.0000 0.85164  0.62799  0.62095  Biso   1.000  H
  H465     1.0000 0.78195  0.63798  0.63523  Biso   1.000  H
  H466     1.0000 0.70523  0.51543  0.59836  Biso   1.000  H
  H467     1.0000 0.70470  0.53207  0.64291  Biso   1.000  H
  H468     1.0000 0.77138  0.52041  0.62589  Biso   1.000  H
  H469     1.0000 0.95368  0.59711  0.28357  Biso   1.000  H
  H470     1.0000 0.93379  0.57583  0.31935  Biso   1.000  H
  H471     1.0000 0.92585  0.56662  0.27143  Biso   1.000  H
  B23      1.0000 0.04005  0.61869  0.60630  Biso   1.000  B
  B24      1.0000 0.09114  0.57983  0.64415  Biso   1.000  B
  C491     1.0000 0.00870  0.52477  0.56249  Biso   1.000  C
  C492     1.0000 0.94026  0.56301  0.54624  Biso   1.000  C
  C493     1.0000 0.72637  0.75001  0.35529  Biso   1.000  C
  C494     1.0000 0.78499  0.72430  0.30352  Biso   1.000  C
  C495     1.0000 0.86513  0.57998  0.66690  Biso   1.000  C
  C496     1.0000 0.75706  0.57925  0.69172  Biso   1.000  C
  C497     1.0000 0.00008  0.64661  0.60732  Biso   1.000  C
  O34      1.0000 0.06797  0.60716  0.64313  Biso   1.000  O
  C498     1.0000 0.12172  0.56615  0.68863  Biso   1.000  C
  H472     1.0000 0.05012  0.51828  0.57042  Biso   1.000  H
  C499     1.0000 0.95677  0.50473  0.55500  Biso   1.000  C
  H473     1.0000 0.93750  0.58286  0.54235  Biso   1.000  H
  C500     1.0000 0.88434  0.54624  0.53952  Biso   1.000  C
  C501     1.0000 0.74684  0.77599  0.33869  Biso   1.000  C
  O35      1.0000 0.68988  0.75001  0.38890  Biso   1.000  O
  C502     1.0000 0.80248  0.74998  0.28500  Biso   1.000  C
  H474     1.0000 0.79882  0.70702  0.29217  Biso   1.000  H
  H475     1.0000 0.89364  0.58030  0.64415  Biso   1.000  H
  C503     1.0000 0.89006  0.57978  0.70880  Biso   1.000  C
  C504     1.0000 0.78184  0.57903  0.73362  Biso   1.000  C
  O36      1.0000 0.69013  0.57652  0.68452  Biso   1.000  O
  C505     1.0000 0.99764  0.66254  0.64460  Biso   1.000  C
  C506     1.0000 0.96536  0.65559  0.57068  Biso   1.000  C
  C507     1.0000 0.13123  0.53664  0.69172  Biso   1.000  C
  C508     1.0000 0.13703  0.58365  0.72352  Biso   1.000  C
  C509     1.0000 0.89275  0.51635  0.54216  Biso   1.000  C
  Br8      1.0000 0.97052  0.46585  0.56102  Biso   1.000  Br
  H476     1.0000 0.84388  0.55449  0.53356  Biso   1.000  H
  C510     1.0000 0.72949  0.80423  0.35762  Biso   1.000  C
  C511     1.0000 0.78499  0.77569  0.30352  Biso   1.000  C
  C512     1.0000 0.62275  0.74285  0.38349  Biso   1.000  C
  C513     1.0000 0.62275  0.75716  0.38349  Biso   1.000  C
  C514     1.0000 0.84277  0.75001  0.24559  Biso   1.000  C
  C515     1.0000 0.96275  0.57886  0.71820  Biso   1.000  C
  C516     1.0000 0.84844  0.57931  0.74219  Biso   1.000  C
  C517     1.0000 0.73842  0.58000  0.77121  Biso   1.000  C
  C518     1.0000 0.65946  0.60416  0.68267  Biso   1.000  C
  H477     1.0000 0.02134  0.65642  0.66967  Biso   1.000  H
  C519     1.0000 0.96064  0.68743  0.64526  Biso   1.000  C
  H478     1.0000 0.96699  0.64470  0.54515  Biso   1.000  H
  C520     1.0000 0.92835  0.68047  0.57131  Biso   1.000  C
  H479     1.0000 0.12082  0.52468  0.66782  Biso   1.000  H
  C521     1.0000 0.15605  0.52466  0.72960  Biso   1.000  C
  C522     1.0000 0.16175  0.57169  0.76140  Biso   1.000  C
  H480     1.0000 0.13050  0.60381  0.72145  Biso   1.000  H
  H481     1.0000 0.85807  0.50403  0.53585  Biso   1.000  H
  C523     1.0000 0.68765  0.82319  0.33595  Biso   1.000  C
  C524     1.0000 0.75606  0.81133  0.39770  Biso   1.000  C
  H482     1.0000 0.79882  0.79297  0.29217  Biso   1.000  H
  H483     1.0000 0.61677  0.72233  0.39050  Biso   1.000  H
  H484     1.0000 0.60819  0.74575  0.35335  Biso   1.000  H
  C525     1.0000 0.58154  0.76124  0.41200  Biso   1.000  C
  H485     1.0000 0.60819  0.75426  0.35335  Biso   1.000  H
  C526     1.0000 0.58154  0.73875  0.41200  Biso   1.000  C
  H486     1.0000 0.61677  0.77766  0.39050  Biso   1.000  H
  H487     1.0000 0.81343  0.74782  0.21997  Biso   1.000  H
  H488     1.0000 0.87196  0.73313  0.24699  Biso   1.000  H
  C527     1.0000 0.88407  0.77743  0.24049  Biso   1.000  C
  H489     1.0000 0.81343  0.75217  0.21997  Biso   1.000  H
  H490     1.0000 0.87196  0.76686  0.24699  Biso   1.000  H
  C528     1.0000 0.88407  0.72256  0.24049  Biso   1.000  C
  H491     1.0000 0.97915  0.56020  0.70822  Biso   1.000  H
  H492     1.0000 0.98287  0.59411  0.70134  Biso   1.000  H
  C529     1.0000 0.98518  0.58277  0.76542  Biso   1.000  C
  H493     1.0000 0.86540  0.57918  0.77083  Biso   1.000  H
  C530     1.0000 0.73244  0.60575  0.79301  Biso   1.000  C
  C531     1.0000 0.70623  0.55565  0.78440  Biso   1.000  C
  H494     1.0000 0.65523  0.61210  0.71160  Biso   1.000  H
  H495     1.0000 0.68431  0.61781  0.66575  Biso   1.000  H
  C532     1.0000 0.59283  0.59832  0.66100  Biso   1.000  C
  C533     1.0000 0.92597  0.69639  0.60859  Biso   1.000  C
  C534     1.0000 0.96243  0.70371  0.68981  Biso   1.000  C
  C535     1.0000 0.89038  0.68960  0.53069  Biso   1.000  C
  C536     1.0000 0.17136  0.54218  0.76449  Biso   1.000  C
  C537     1.0000 0.16474  0.49230  0.73021  Biso   1.000  C
  C538     1.0000 0.17682  0.59129  0.80021  Biso   1.000  C
  C539     1.0000 0.67248  0.84930  0.35440  Biso   1.000  C
  C540     1.0000 0.65436  0.81629  0.29271  Biso   1.000  C
  C541     1.0000 0.74085  0.83745  0.41615  Biso   1.000  C
  C542     1.0000 0.80534  0.79040  0.42121  Biso   1.000  C
  C543     1.0000 0.55675  0.74837  0.44759  Biso   1.000  C
  C544     1.0000 0.57008  0.79027  0.40369  Biso   1.000  C
  C545     1.0000 0.55675  0.75162  0.44759  Biso   1.000  C
  C546     1.0000 0.57008  0.70974  0.40369  Biso   1.000  C
  C547     1.0000 0.94376  0.78069  0.26241  Biso   1.000  C
  C548     1.0000 0.86140  0.79860  0.21229  Biso   1.000  C
  C549     1.0000 0.94376  0.71930  0.26241  Biso   1.000  C
  C550     1.0000 0.86140  0.70139  0.21229  Biso   1.000  C
  C551     1.0000 0.99283  0.60996  0.78342  Biso   1.000  C
  C552     1.0000 0.99792  0.55835  0.78998  Biso   1.000  C
  C553     1.0000 0.69434  0.60712  0.82821  Biso   1.000  C
  C554     1.0000 0.76453  0.63280  0.77982  Biso   1.000  C
  C555     1.0000 0.66813  0.55702  0.81961  Biso   1.000  C
  C556     1.0000 0.70972  0.52821  0.76172  Biso   1.000  C
  C557     1.0000 0.58565  0.58844  0.61930  Biso   1.000  C
  C558     1.0000 0.53854  0.60237  0.68465  Biso   1.000  C
  C559     1.0000 0.88947  0.72404  0.60894  Biso   1.000  C
  H496     1.0000 0.00701  0.70933  0.69787  Biso   1.000  H
  H497     1.0000 0.93515  0.72091  0.68742  Biso   1.000  H
  H498     1.0000 0.94612  0.69095  0.71166  Biso   1.000  H
  H499     1.0000 0.86683  0.70740  0.53604  Biso   1.000  H
  H500     1.0000 0.85962  0.67448  0.52202  Biso   1.000  H
  H501     1.0000 0.92035  0.69282  0.50804  Biso   1.000  H
  C560     1.0000 0.19753  0.52924  0.80572  Biso   1.000  C
  H502     1.0000 0.18239  0.48631  0.75837  Biso   1.000  H
  H503     1.0000 0.19468  0.48672  0.70848  Biso   1.000  H
  H504     1.0000 0.12284  0.48298  0.72425  Biso   1.000  H
  H505     1.0000 0.16729  0.61133  0.79237  Biso   1.000  H
  H506     1.0000 0.22259  0.58956  0.80935  Biso   1.000  H
  H507     1.0000 0.15001  0.58565  0.82366  Biso   1.000  H
  H508     1.0000 0.64392  0.86225  0.33965  Biso   1.000  H
  C561     1.0000 0.69906  0.85641  0.39451  Biso   1.000  C
  H509     1.0000 0.62717  0.83257  0.28328  Biso   1.000  H
  H510     1.0000 0.68712  0.81279  0.27181  Biso   1.000  H
  H511     1.0000 0.62735  0.79916  0.29520  Biso   1.000  H
  H512     1.0000 0.75902  0.84230  0.44358  Biso   1.000  H
  H513     1.0000 0.79353  0.77081  0.41459  Biso   1.000  H
  H514     1.0000 0.80469  0.79332  0.45139  Biso   1.000  H
  H515     1.0000 0.84812  0.79411  0.41194  Biso   1.000  H
  H516     1.0000 0.56481  0.72900  0.45320  Biso   1.000  H
  C562     1.0000 0.52008  0.76448  0.47480  Biso   1.000  C
  H517     1.0000 0.56481  0.77098  0.45320  Biso   1.000  H
  C563     1.0000 0.52008  0.73553  0.47480  Biso   1.000  C
  H518     1.0000 0.58804  0.79907  0.38056  Biso   1.000  H
  C564     1.0000 0.53167  0.80614  0.43023  Biso   1.000  C
  H519     1.0000 0.58804  0.70094  0.38056  Biso   1.000  H
  C565     1.0000 0.53167  0.69387  0.43023  Biso   1.000  C
  C566     1.0000 0.97957  0.80579  0.25751  Biso   1.000  C
  C567     1.0000 0.97278  0.75640  0.29080  Biso   1.000  C
  C568     1.0000 0.89728  0.82360  0.20710  Biso   1.000  C
  C569     1.0000 0.79498  0.79499  0.18770  Biso   1.000  C
  C570     1.0000 0.97957  0.69420  0.25751  Biso   1.000  C
  C571     1.0000 0.97278  0.74361  0.29080  Biso   1.000  C
  C572     1.0000 0.89728  0.67639  0.20710  Biso   1.000  C
  C573     1.0000 0.79498  0.70500  0.18770  Biso   1.000  C
  C574     1.0000 0.97883  0.63731  0.75681  Biso   1.000  C
  C575     1.0000 0.01303  0.61275  0.82605  Biso   1.000  C
  C576     1.0000 0.98955  0.52797  0.77010  Biso   1.000  C
  C577     1.0000 0.01822  0.56112  0.83261  Biso   1.000  C
  H520     1.0000 0.69026  0.62471  0.84313  Biso   1.000  H
  C578     1.0000 0.66225  0.58271  0.84141  Biso   1.000  C
  H521     1.0000 0.75423  0.64831  0.79938  Biso   1.000  H
  H522     1.0000 0.74899  0.63785  0.75079  Biso   1.000  H
  H523     1.0000 0.81149  0.62990  0.78052  Biso   1.000  H
  H524     1.0000 0.64615  0.54036  0.82860  Biso   1.000  H
  H525     1.0000 0.73805  0.53027  0.73776  Biso   1.000  H
  H526     1.0000 0.66633  0.52260  0.75082  Biso   1.000  H
  H527     1.0000 0.72719  0.51339  0.78119  Biso   1.000  H
  H528     1.0000 0.62204  0.58556  0.60356  Biso   1.000  H
  C579     1.0000 0.52412  0.58292  0.60114  Biso   1.000  C
  C580     1.0000 0.47714  0.59591  0.66693  Biso   1.000  C
  H529     1.0000 0.54316  0.60942  0.71233  Biso   1.000  H
  C581     1.0000 0.92306  0.75001  0.60980  Biso   1.000  C
  C582     1.0000 0.82217  0.72445  0.60888  Biso   1.000  C
  C583     1.0000 0.15845  0.51156  0.82920  Biso   1.000  C
  C584     1.0000 0.25942  0.53628  0.82162  Biso   1.000  C
  B25      1.0000 0.68154  0.88400  0.41768  Biso   1.000  B
  C585     1.0000 0.50653  0.79321  0.46569  Biso   1.000  C
  H530     1.0000 0.50443  0.75600  0.49902  Biso   1.000  H
  H531     1.0000 0.50443  0.74399  0.49902  Biso   1.000  H
  C586     1.0000 0.50653  0.70678  0.46569  Biso   1.000  C
  I14      1.0000 0.51346  0.84977  0.41889  Biso   1.000  I
  I15      1.0000 0.51346  0.65022  0.41889  Biso   1.000  I
  C587     1.0000 0.95707  0.82690  0.22899  Biso   1.000  C
  H532     1.0000 0.01845  0.80846  0.27321  Biso   1.000  H
  H533     1.0000 0.98782  0.76424  0.31776  Biso   1.000  H
  H534     1.0000 0.94007  0.74219  0.29517  Biso   1.000  H
  H535     1.0000 0.98782  0.73575  0.31776  Biso   1.000  H
  H536     1.0000 0.94007  0.75782  0.29517  Biso   1.000  H
  H537     1.0000 0.00836  0.74773  0.27713  Biso   1.000  H
  H538     1.0000 0.00836  0.75228  0.27713  Biso   1.000  H
  H539     1.0000 0.88132  0.83805  0.18907  Biso   1.000  H
  H540     1.0000 0.77648  0.77676  0.19464  Biso   1.000  H
  H541     1.0000 0.76639  0.81022  0.19544  Biso   1.000  H
  H542     1.0000 0.80096  0.79585  0.15762  Biso   1.000  H
  C588     1.0000 0.95707  0.67311  0.22899  Biso   1.000  C
  H543     1.0000 0.01845  0.69153  0.27321  Biso   1.000  H
  H544     1.0000 0.88132  0.66194  0.18907  Biso   1.000  H
  H545     1.0000 0.77648  0.72323  0.19464  Biso   1.000  H
  H546     1.0000 0.76639  0.68977  0.19544  Biso   1.000  H
  H547     1.0000 0.80096  0.70416  0.15762  Biso   1.000  H
  H548     1.0000 0.95967  0.65166  0.77424  Biso   1.000  H
  H549     1.0000 0.94949  0.63276  0.73311  Biso   1.000  H
  H550     1.0000 0.01863  0.64459  0.74655  Biso   1.000  H
  H551     1.0000 0.01810  0.63093  0.83812  Biso   1.000  H
  C589     1.0000 0.02582  0.58833  0.85065  Biso   1.000  C
  H552     1.0000 0.99091  0.51378  0.79237  Biso   1.000  H
  H553     1.0000 0.94864  0.52690  0.75433  Biso   1.000  H
  H554     1.0000 0.02398  0.52440  0.75143  Biso   1.000  H
  H555     1.0000 0.02672  0.54478  0.84908  Biso   1.000  H
  B26      1.0000 0.62224  0.58485  0.88130  Biso   1.000  B
  C590     1.0000 0.46990  0.58648  0.62500  Biso   1.000  C
  I16      1.0000 0.51128  0.57008  0.53760  Biso   1.000  I
  H556     1.0000 0.44098  0.59791  0.68312  Biso   1.000  H
  C591     1.0000 0.88947  0.77595  0.60894  Biso   1.000  C
  O37      1.0000 0.98744  0.75001  0.61009  Biso   1.000  O
  C592     1.0000 0.78864  0.74998  0.60952  Biso   1.000  C
  H557     1.0000 0.79923  0.70721  0.60840  Biso   1.000  H
  H558     1.0000 0.11617  0.50675  0.81831  Biso   1.000  H
  C593     1.0000 0.18123  0.50093  0.86839  Biso   1.000  C
  O38      1.0000 0.30003  0.55432  0.80100  Biso   1.000  O
  C594     1.0000 0.28222  0.52565  0.86090  Biso   1.000  C
  O39      1.0000 0.70165  0.88737  0.45973  Biso   1.000  O
  O40      1.0000 0.65107  0.90670  0.39693  Biso   1.000  O
  H559     1.0000 0.48078  0.80382  0.48337  Biso   1.000  H
  H560     1.0000 0.48078  0.69617  0.48337  Biso   1.000  H
  C595     1.0000 0.99996  0.85321  0.22001  Biso   1.000  C
  C596     1.0000 0.99996  0.64680  0.22001  Biso   1.000  C
  C597     1.0000 0.04851  0.59140  0.89806  Biso   1.000  C
  O41      1.0000 0.61881  0.61051  0.90290  Biso   1.000  O
  O42      1.0000 0.58760  0.56175  0.89535  Biso   1.000  O
  H561     1.0000 0.42879  0.58255  0.61296  Biso   1.000  H
  C598     1.0000 0.92597  0.80360  0.60859  Biso   1.000  C
  C599     1.0000 0.82217  0.77554  0.60888  Biso   1.000  C
  C600     1.0000 0.01776  0.74653  0.57240  Biso   1.000  C
  C601     1.0000 0.01776  0.75346  0.57240  Biso   1.000  C
  C602     1.0000 0.71415  0.75001  0.60830  Biso   1.000  C
  C603     1.0000 0.14513  0.47721  0.89232  Biso   1.000  C
  C604     1.0000 0.24312  0.50798  0.88429  Biso   1.000  C
  C605     1.0000 0.31814  0.54654  0.76156  Biso   1.000  C
  C606     1.0000 0.34890  0.53460  0.87830  Biso   1.000  C
  B27      1.0000 0.68987  0.91211  0.48092  Biso   1.000  B
  B28      1.0000 0.63516  0.93150  0.42019  Biso   1.000  B
  H562     1.0000 0.97745  0.86560  0.19971  Biso   1.000  H
  H563     1.0000 0.00928  0.86362  0.24597  Biso   1.000  H
  H564     1.0000 0.03982  0.84687  0.20863  Biso   1.000  H
  H565     1.0000 0.97745  0.63439  0.19971  Biso   1.000  H
  H566     1.0000 0.00928  0.63639  0.24597  Biso   1.000  H
  H567     1.0000 0.03982  0.65314  0.20863  Biso   1.000  H
  H568     1.0000 0.03838  0.61036  0.90784  Biso   1.000  H
  H569     1.0000 0.02672  0.57736  0.91462  Biso   1.000  H
  H570     1.0000 0.09449  0.58833  0.90111  Biso   1.000  H
  B29      1.0000 0.57851  0.61371  0.93530  Biso   1.000  B
  B30      1.0000 0.54242  0.56602  0.92702  Biso   1.000  B
  C607     1.0000 0.96064  0.81256  0.64526  Biso   1.000  C
  C608     1.0000 0.92835  0.81954  0.57131  Biso   1.000  C
  H571     1.0000 0.79923  0.79278  0.60840  Biso   1.000  H
  C609     1.0000 0.08417  0.76100  0.57281  Biso   1.000  C
  C610     1.0000 0.08417  0.73899  0.57281  Biso   1.000  C
  H572     1.0000 0.02294  0.72576  0.56682  Biso   1.000  H
  H573     1.0000 0.02294  0.77425  0.56682  Biso   1.000  H
  H574     1.0000 0.98988  0.75464  0.54885  Biso   1.000  H
  H575     1.0000 0.98988  0.74535  0.54885  Biso   1.000  H
  C611     1.0000 0.68436  0.77794  0.58890  Biso   1.000  C
  C612     1.0000 0.68436  0.72205  0.58890  Biso   1.000  C
  H576     1.0000 0.69972  0.74769  0.63771  Biso   1.000  H
  H577     1.0000 0.69784  0.73336  0.59142  Biso   1.000  H
  H578     1.0000 0.69972  0.75230  0.63771  Biso   1.000  H
  H579     1.0000 0.69784  0.76665  0.59142  Biso   1.000  H
  H580     1.0000 0.16953  0.45938  0.89111  Biso   1.000  H
  H581     1.0000 0.14487  0.48290  0.92195  Biso   1.000  H
  C613     1.0000 0.07454  0.47115  0.87629  Biso   1.000  C
  H582     1.0000 0.25869  0.50070  0.91112  Biso   1.000  H
  H583     1.0000 0.29886  0.52758  0.75449  Biso   1.000  H
  H584     1.0000 0.29960  0.56054  0.74063  Biso   1.000  H
  C614     1.0000 0.39116  0.54470  0.75602  Biso   1.000  C
  C615     1.0000 0.35394  0.55930  0.90322  Biso   1.000  C
  C616     1.0000 0.40434  0.51940  0.86909  Biso   1.000  C
  C617     1.0000 0.71776  0.91578  0.52996  Biso   1.000  C
  O43      1.0000 0.65404  0.93425  0.46324  Biso   1.000  O
  C618     1.0000 0.55177  0.93796  0.41191  Biso   1.000  C
  N9       1.0000 0.67336  0.95950  0.39783  Biso   1.000  N
  O44      1.0000 0.53944  0.59213  0.94875  Biso   1.000  O
  C619     1.0000 0.57851  0.64296  0.96130  Biso   1.000  C
  C620     1.0000 0.46965  0.55350  0.90962  Biso   1.000  C
  N10      1.0000 0.56610  0.54042  0.96522  Biso   1.000  N
  C621     1.0000 0.99764  0.83747  0.64460  Biso   1.000  C
  C622     1.0000 0.96243  0.79630  0.68981  Biso   1.000  C
  C623     1.0000 0.96536  0.84442  0.57068  Biso   1.000  C
  C624     1.0000 0.89038  0.81039  0.53069  Biso   1.000  C
  C625     1.0000 0.09144  0.78962  0.56099  Biso   1.000  C
  C626     1.0000 0.13794  0.74500  0.58680  Biso   1.000  C
  C627     1.0000 0.13794  0.75501  0.58680  Biso   1.000  C
  C628     1.0000 0.09144  0.71037  0.56099  Biso   1.000  C
  C629     1.0000 0.67934  0.78224  0.54509  Biso   1.000  C
  C630     1.0000 0.66426  0.79935  0.61611  Biso   1.000  C
  C631     1.0000 0.67934  0.71777  0.54509  Biso   1.000  C
  C632     1.0000 0.66426  0.70064  0.61611  Biso   1.000  C
  C633     1.0000 0.02312  0.48713  0.89070  Biso   1.000  C
  C634     1.0000 0.06325  0.45008  0.84542  Biso   1.000  C
  C635     1.0000 0.41691  0.52801  0.72431  Biso   1.000  C
  C636     1.0000 0.43214  0.55947  0.78482  Biso   1.000  C
  C637     1.0000 0.41421  0.56875  0.91880  Biso   1.000  C
  C638     1.0000 0.29350  0.57620  0.91529  Biso   1.000  C
  C639     1.0000 0.46462  0.52883  0.88480  Biso   1.000  C
  C640     1.0000 0.39851  0.49230  0.84322  Biso   1.000  C
  C641     1.0000 0.75006  0.89229  0.54821  Biso   1.000  C
  C642     1.0000 0.71227  0.94103  0.55309  Biso   1.000  C
  C643     1.0000 0.51596  0.92035  0.38381  Biso   1.000  C
  C644     1.0000 0.52088  0.95877  0.43517  Biso   1.000  C
  C645     1.0000 0.63945  0.98598  0.38763  Biso   1.000  C
  C646     1.0000 0.73518  0.95531  0.39881  Biso   1.000  C
  C647     1.0000 0.63032  0.66119  0.95461  Biso   1.000  C
  C648     1.0000 0.53143  0.65103  0.98889  Biso   1.000  C
  C649     1.0000 0.60473  0.52112  0.95480  Biso   1.000  C
  C650     1.0000 0.54129  0.54328  0.00361  Biso   1.000  C
  H585     1.0000 0.02134  0.84359  0.66967  Biso   1.000  H
  C651     1.0000 0.00008  0.85338  0.60732  Biso   1.000  C
  H586     1.0000 0.00701  0.79065  0.69787  Biso   1.000  H
  H587     1.0000 0.93515  0.77908  0.68742  Biso   1.000  H
  H588     1.0000 0.94612  0.80904  0.71166  Biso   1.000  H
  H589     1.0000 0.96699  0.85529  0.54515  Biso   1.000  H
  H590     1.0000 0.86683  0.79259  0.53604  Biso   1.000  H
  H591     1.0000 0.85962  0.82551  0.52202  Biso   1.000  H
  H592     1.0000 0.92035  0.80717  0.50804  Biso   1.000  H
  H593     1.0000 0.05560  0.80021  0.55099  Biso   1.000  H
  C652     1.0000 0.15236  0.80242  0.56414  Biso   1.000  C
  C653     1.0000 0.19863  0.75795  0.59072  Biso   1.000  C
  C654     1.0000 0.19863  0.74204  0.59072  Biso   1.000  C
  H594     1.0000 0.13338  0.72563  0.59349  Biso   1.000  H
  H595     1.0000 0.13338  0.77438  0.59349  Biso   1.000  H
  H596     1.0000 0.05560  0.69978  0.55099  Biso   1.000  H
  C655     1.0000 0.15236  0.69757  0.56414  Biso   1.000  C
  C656     1.0000 0.65277  0.80762  0.52862  Biso   1.000  C
  C657     1.0000 0.70517  0.75960  0.51431  Biso   1.000  C
  C658     1.0000 0.63595  0.82439  0.59961  Biso   1.000  C
  C659     1.0000 0.67603  0.79609  0.66489  Biso   1.000  C
  C660     1.0000 0.65277  0.69237  0.52862  Biso   1.000  C
  C661     1.0000 0.70517  0.74041  0.51431  Biso   1.000  C
  C662     1.0000 0.63595  0.67560  0.59961  Biso   1.000  C
  C663     1.0000 0.67603  0.70392  0.66489  Biso   1.000  C
  C664     1.0000 0.03324  0.50800  0.92852  Biso   1.000  C
  C665     1.0000 0.96114  0.48330  0.87231  Biso   1.000  C
  C666     1.0000 0.00076  0.44570  0.82790  Biso   1.000  C
  C667     1.0000 0.12022  0.43230  0.82901  Biso   1.000  C
  H597     1.0000 0.38951  0.51751  0.70574  Biso   1.000  H
  C668     1.0000 0.48362  0.52707  0.72033  Biso   1.000  C
  C669     1.0000 0.49895  0.55840  0.78100  Biso   1.000  C
  H598     1.0000 0.41501  0.57008  0.80664  Biso   1.000  H
  H599     1.0000 0.41763  0.58560  0.93581  Biso   1.000  H
  H600     1.0000 0.30677  0.59280  0.93282  Biso   1.000  H
  H601     1.0000 0.26555  0.56372  0.93151  Biso   1.000  H
  H602     1.0000 0.26974  0.58281  0.88939  Biso   1.000  H
  H603     1.0000 0.50245  0.51844  0.87849  Biso   1.000  H
  H604     1.0000 0.35294  0.48889  0.83481  Biso   1.000  H
  H605     1.0000 0.41546  0.47611  0.86024  Biso   1.000  H
  H606     1.0000 0.42338  0.49436  0.81764  Biso   1.000  H
  H607     1.0000 0.75379  0.87505  0.53241  Biso   1.000  H
  C670     1.0000 0.77674  0.89407  0.58960  Biso   1.000  C
  C671     1.0000 0.73895  0.94279  0.59451  Biso   1.000  C
  H608     1.0000 0.69016  0.95707  0.54060  Biso   1.000  H
  C672     1.0000 0.44918  0.92353  0.37915  Biso   1.000  C
  H609     1.0000 0.53707  0.90614  0.36791  Biso   1.000  H
  H610     1.0000 0.54528  0.97082  0.45432  Biso   1.000  H
  C673     1.0000 0.45405  0.96197  0.43045  Biso   1.000  C
  H611     1.0000 0.59481  0.98815  0.38900  Biso   1.000  H
  C674     1.0000 0.68301  0.00921  0.37479  Biso   1.000  C
  C675     1.0000 0.77860  0.97777  0.38779  Biso   1.000  C
  H612     1.0000 0.75178  0.93740  0.40684  Biso   1.000  H
  C676     1.0000 0.63491  0.68741  0.97561  Biso   1.000  C
  H613     1.0000 0.66246  0.65565  0.93575  Biso   1.000  H
  H614     1.0000 0.49603  0.63860  0.99351  Biso   1.000  H
  C677     1.0000 0.53612  0.67730  0.00992  Biso   1.000  C
  C678     1.0000 0.62182  0.49874  0.98450  Biso   1.000  C
  H615     1.0000 0.62212  0.52138  0.92807  Biso   1.000  H
  H616     1.0000 0.51437  0.55883  0.00858  Biso   1.000  H
  C679     1.0000 0.55503  0.52346  0.03634  Biso   1.000  C
  B31      1.0000 0.04005  0.88132  0.60630  Biso   1.000  B
  C680     1.0000 0.20573  0.78677  0.57992  Biso   1.000  C
  I17      1.0000 0.16483  0.84556  0.54777  Biso   1.000  I
  H617     1.0000 0.23455  0.74734  0.60059  Biso   1.000  H
  H618     1.0000 0.23455  0.75265  0.60059  Biso   1.000  H
  C681     1.0000 0.20573  0.71322  0.57992  Biso   1.000  C
  I18      1.0000 0.16483  0.65443  0.54777  Biso   1.000  I
  H619     1.0000 0.65045  0.81071  0.49931  Biso   1.000  H
  C682     1.0000 0.62977  0.82841  0.55580  Biso   1.000  C
  H620     1.0000 0.75167  0.75698  0.52040  Biso   1.000  H
  H621     1.0000 0.69752  0.76622  0.48490  Biso   1.000  H
  H622     1.0000 0.68271  0.74137  0.51820  Biso   1.000  H
  H623     1.0000 0.75167  0.74303  0.52040  Biso   1.000  H
  H624     1.0000 0.62124  0.83843  0.61783  Biso   1.000  H
  H625     1.0000 0.65901  0.81297  0.67926  Biso   1.000  H
  H626     1.0000 0.65396  0.77880  0.67455  Biso   1.000  H
  H627     1.0000 0.72256  0.79437  0.67193  Biso   1.000  H
  H628     1.0000 0.65045  0.68930  0.49931  Biso   1.000  H
  C683     1.0000 0.62977  0.67161  0.55580  Biso   1.000  C
  H629     1.0000 0.69752  0.73377  0.48490  Biso   1.000  H
  H630     1.0000 0.68271  0.75864  0.51820  Biso   1.000  H
  H631     1.0000 0.62124  0.66156  0.61783  Biso   1.000  H
  H632     1.0000 0.65901  0.68705  0.67926  Biso   1.000  H
  H633     1.0000 0.65396  0.72119  0.67455  Biso   1.000  H
  H634     1.0000 0.72256  0.70562  0.67193  Biso   1.000  H
  H635     1.0000 0.06503  0.52267  0.92154  Biso   1.000  H
  H636     1.0000 0.04893  0.49739  0.95385  Biso   1.000  H
  H637     1.0000 0.99202  0.51732  0.93415  Biso   1.000  H
  H638     1.0000 0.92698  0.49456  0.88123  Biso   1.000  H
  C684     1.0000 0.95004  0.46280  0.84070  Biso   1.000  C
  H639     1.0000 0.99303  0.43134  0.80766  Biso   1.000  H
  H640     1.0000 0.13776  0.41981  0.85192  Biso   1.000  H
  H641     1.0000 0.10475  0.42045  0.80480  Biso   1.000  H
  H642     1.0000 0.15413  0.44527  0.82003  Biso   1.000  H
  C685     1.0000 0.52455  0.54249  0.74840  Biso   1.000  C
  I19      1.0000 0.52371  0.50373  0.67136  Biso   1.000  I
  H643     1.0000 0.52641  0.56828  0.80024  Biso   1.000  H
  C686     1.0000 0.77115  0.91932  0.61273  Biso   1.000  C
  C687     1.0000 0.80715  0.86759  0.61092  Biso   1.000  C
  C688     1.0000 0.72915  0.97129  0.61751  Biso   1.000  C
  C689     1.0000 0.41824  0.94434  0.40241  Biso   1.000  C
  C690     1.0000 0.40848  0.90380  0.35089  Biso   1.000  C
  C691     1.0000 0.42386  0.98525  0.45601  Biso   1.000  C
  H644     1.0000 0.66517  0.02652  0.36504  Biso   1.000  H
  C692     1.0000 0.75057  0.00597  0.37689  Biso   1.000  C
  Br9      1.0000 0.86677  0.97226  0.39292  Biso   1.000  Br
  C693     1.0000 0.69670  0.70631  0.96920  Biso   1.000  C
  C694     1.0000 0.58793  0.69548  0.00320  Biso   1.000  C
  C695     1.0000 0.48031  0.68539  0.03841  Biso   1.000  C
  Br10     1.0000 0.67399  0.46864  0.97303  Biso   1.000  Br
  C696     1.0000 0.59749  0.50102  0.02732  Biso   1.000  C
  H645     1.0000 0.53694  0.52511  0.06269  Biso   1.000  H
  O45      1.0000 0.06797  0.89285  0.64313  Biso   1.000  O
  O46      1.0000 0.03615  0.89811  0.57023  Biso   1.000  O
  H646     1.0000 0.24618  0.79557  0.58317  Biso   1.000  H
  H647     1.0000 0.24618  0.70442  0.58317  Biso   1.000  H
  C697     1.0000 0.59478  0.85544  0.53732  Biso   1.000  C
  C698     1.0000 0.59478  0.64455  0.53732  Biso   1.000  C
  C699     1.0000 0.88174  0.45949  0.81872  Biso   1.000  C
  H648     1.0000 0.56915  0.54216  0.74534  Biso   1.000  H
  C700     1.0000 0.79863  0.92029  0.65836  Biso   1.000  C
  H649     1.0000 0.80733  0.85179  0.59040  Biso   1.000  H
  H650     1.0000 0.85164  0.87200  0.62095  Biso   1.000  H
  H651     1.0000 0.78195  0.86203  0.63523  Biso   1.000  H
  H652     1.0000 0.70523  0.98458  0.59836  Biso   1.000  H
  H653     1.0000 0.70470  0.96792  0.64291  Biso   1.000  H
  H654     1.0000 0.77138  0.97958  0.62589  Biso   1.000  H
  C701     1.0000 0.34448  0.94715  0.39811  Biso   1.000  C
  H655     1.0000 0.43662  0.89036  0.33659  Biso   1.000  H
  H656     1.0000 0.37874  0.89304  0.36829  Biso   1.000  H
  H657     1.0000 0.38362  0.91516  0.32958  Biso   1.000  H
  H658     1.0000 0.37693  0.98533  0.44998  Biso   1.000  H
  H659     1.0000 0.43313  0.98170  0.48647  Biso   1.000  H
  H660     1.0000 0.44183  0.00391  0.44829  Biso   1.000  H
  H661     1.0000 0.77726  0.02152  0.37144  Biso   1.000  H
  H662     1.0000 0.72383  0.69703  0.94862  Biso   1.000  H
  H663     1.0000 0.72124  0.70839  0.99654  Biso   1.000  H
  H664     1.0000 0.68348  0.72533  0.95862  Biso   1.000  H
  C702     1.0000 0.59390  0.72409  0.02582  Biso   1.000  C
  H665     1.0000 0.48898  0.70425  0.05141  Biso   1.000  H
  H666     1.0000 0.47685  0.67096  0.06087  Biso   1.000  H
  H667     1.0000 0.43962  0.68616  0.02111  Biso   1.000  H
  H668     1.0000 0.61005  0.48773  0.04825  Biso   1.000  H
  B32      1.0000 0.09114  0.92018  0.64415  Biso   1.000  B
  B33      1.0000 0.06048  0.92652  0.57185  Biso   1.000  B
  H669     1.0000 0.59459  0.85495  0.50616  Biso   1.000  H
  H670     1.0000 0.55016  0.85576  0.54637  Biso   1.000  H
  H671     1.0000 0.61752  0.87271  0.54783  Biso   1.000  H
  H672     1.0000 0.59459  0.64504  0.50616  Biso   1.000  H
  H673     1.0000 0.55016  0.64423  0.54637  Biso   1.000  H
  H674     1.0000 0.61752  0.62731  0.54783  Biso   1.000  H
  H675     1.0000 0.88235  0.44416  0.79740  Biso   1.000  H
  H676     1.0000 0.86909  0.47761  0.80473  Biso   1.000  H
  H677     1.0000 0.85051  0.45470  0.84007  Biso   1.000  H
  C703     1.0000 0.86513  0.92001  0.66690  Biso   1.000  C
  C704     1.0000 0.75706  0.92076  0.69172  Biso   1.000  C
  C705     1.0000 0.30675  0.94127  0.43246  Biso   1.000  C
  C706     1.0000 0.31526  0.95576  0.35940  Biso   1.000  C
  C707     1.0000 0.58592  0.75001  0.00409  Biso   1.000  C
  C708     1.0000 0.60502  0.72456  0.06982  Biso   1.000  C
  C709     1.0000 0.12172  0.93386  0.68863  Biso   1.000  C
  O47      1.0000 0.08855  0.93792  0.60942  Biso   1.000  O
  C710     1.0000 0.11453  0.93002  0.53050  Biso   1.000  C
  N11      1.0000 0.99765  0.94879  0.55819  Biso   1.000  N
  H678     1.0000 0.89364  0.91969  0.64415  Biso   1.000  H
  C711     1.0000 0.89006  0.92023  0.70880  Biso   1.000  C
  C712     1.0000 0.78184  0.92096  0.73362  Biso   1.000  C
  O48      1.0000 0.69013  0.92347  0.68452  Biso   1.000  O
  C713     1.0000 0.23985  0.94400  0.42809  Biso   1.000  C
  O49      1.0000 0.33435  0.93120  0.47009  Biso   1.000  O
  H679     1.0000 0.34106  0.95978  0.33595  Biso   1.000  H
  C714     1.0000 0.24835  0.95847  0.35500  Biso   1.000  C
  O50      1.0000 0.57239  0.74998  0.96219  Biso   1.000  O
  C715     1.0000 0.59390  0.77592  0.02582  Biso   1.000  C
  C716     1.0000 0.60810  0.75001  0.09190  Biso   1.000  C
  H680     1.0000 0.61035  0.70734  0.08464  Biso   1.000  H
  C717     1.0000 0.13123  0.96334  0.69172  Biso   1.000  C
  C718     1.0000 0.13703  0.91634  0.72352  Biso   1.000  C
  C719     1.0000 0.11284  0.91170  0.49551  Biso   1.000  C
  C720     1.0000 0.15834  0.95269  0.53289  Biso   1.000  C
  C721     1.0000 0.00870  0.97522  0.56249  Biso   1.000  C
  C722     1.0000 0.94026  0.93698  0.54624  Biso   1.000  C
  C723     1.0000 0.96275  0.92113  0.71820  Biso   1.000  C
  C724     1.0000 0.84844  0.92070  0.74219  Biso   1.000  C
  C725     1.0000 0.73842  0.91999  0.77121  Biso   1.000  C
  C726     1.0000 0.65946  0.89585  0.68267  Biso   1.000  C
  C727     1.0000 0.19867  0.93871  0.46540  Biso   1.000  C
  C728     1.0000 0.21066  0.95259  0.38929  Biso   1.000  C
  C729     1.0000 0.34394  0.90099  0.47047  Biso   1.000  C
  C730     1.0000 0.21746  0.96770  0.31161  Biso   1.000  C
  C731     1.0000 0.50560  0.75250  0.94910  Biso   1.000  C
  C732     1.0000 0.50560  0.74749  0.94910  Biso   1.000  C
  C733     1.0000 0.58793  0.80453  0.00320  Biso   1.000  C
  C734     1.0000 0.60502  0.77543  0.06982  Biso   1.000  C
  C735     1.0000 0.62038  0.75001  0.14030  Biso   1.000  C
  H681     1.0000 0.12082  0.97533  0.66782  Biso   1.000  H
  C736     1.0000 0.15605  0.97533  0.72960  Biso   1.000  C
  C737     1.0000 0.16175  0.92832  0.76140  Biso   1.000  C
  H682     1.0000 0.13050  0.89618  0.72145  Biso   1.000  H
  H683     1.0000 0.08300  0.89622  0.49389  Biso   1.000  H
  C738     1.0000 0.15486  0.91606  0.46302  Biso   1.000  C
  H684     1.0000 0.15948  0.96521  0.55682  Biso   1.000  H
  C739     1.0000 0.20036  0.95703  0.50039  Biso   1.000  C
  H685     1.0000 0.05012  0.98170  0.57042  Biso   1.000  H
  C740     1.0000 0.95677  0.99528  0.55500  Biso   1.000  C
  H686     1.0000 0.93750  0.91716  0.54235  Biso   1.000  H
  C741     1.0000 0.88434  0.95375  0.53952  Biso   1.000  C
  H687     1.0000 0.97915  0.93981  0.70822  Biso   1.000  H
  H688     1.0000 0.98287  0.90588  0.70134  Biso   1.000  H
  C742     1.0000 0.98518  0.91722  0.76542  Biso   1.000  C
  H689     1.0000 0.86540  0.92083  0.77083  Biso   1.000  H
  C743     1.0000 0.73244  0.89424  0.79301  Biso   1.000  C
  C744     1.0000 0.70623  0.94434  0.78440  Biso   1.000  C
  H690     1.0000 0.65523  0.88789  0.71160  Biso   1.000  H
  H691     1.0000 0.68431  0.88217  0.66575  Biso   1.000  H
  C745     1.0000 0.59283  0.90169  0.66100  Biso   1.000  C
  H692     1.0000 0.16498  0.95445  0.38632  Biso   1.000  H
  H693     1.0000 0.38516  0.89639  0.45728  Biso   1.000  H
  H694     1.0000 0.30844  0.89160  0.45336  Biso   1.000  H
  C746     1.0000 0.34575  0.88922  0.51584  Biso   1.000  C
  H695     1.0000 0.24369  0.96010  0.28860  Biso   1.000  H
  H696     1.0000 0.21780  0.98892  0.30970  Biso   1.000  H
  C747     1.0000 0.14708  0.95680  0.30473  Biso   1.000  C
  H697     1.0000 0.48440  0.76641  0.96771  Biso   1.000  H
  H698     1.0000 0.48412  0.73369  0.95187  Biso   1.000  H
  C748     1.0000 0.49822  0.76270  0.90290  Biso   1.000  C
  H699     1.0000 0.48440  0.73358  0.96771  Biso   1.000  H
  H700     1.0000 0.48412  0.76630  0.95187  Biso   1.000  H
  C749     1.0000 0.49822  0.73729  0.90290  Biso   1.000  C
  C750     1.0000 0.63491  0.81258  0.97561  Biso   1.000  C
  C751     1.0000 0.53612  0.82269  0.00992  Biso   1.000  C
  H701     1.0000 0.61035  0.79267  0.08464  Biso   1.000  H
  H702     1.0000 0.66724  0.75366  0.14728  Biso   1.000  H
  H703     1.0000 0.60577  0.73336  0.15340  Biso   1.000  H
  C752     1.0000 0.58228  0.77717  0.15840  Biso   1.000  C
  H704     1.0000 0.66724  0.74633  0.14728  Biso   1.000  H
  H705     1.0000 0.60577  0.76663  0.15340  Biso   1.000  H
  C753     1.0000 0.58228  0.72282  0.15840  Biso   1.000  C
  C754     1.0000 0.17136  0.95780  0.76449  Biso   1.000  C
  C755     1.0000 0.16474  0.00769  0.73021  Biso   1.000  C
  C756     1.0000 0.17682  0.90869  0.80021  Biso   1.000  C
  C757     1.0000 0.15044  0.89540  0.42520  Biso   1.000  C
  C758     1.0000 0.24916  0.98132  0.50421  Biso   1.000  C
  C759     1.0000 0.89275  0.98364  0.54216  Biso   1.000  C
  Br11     1.0000 0.97052  0.03416  0.56102  Biso   1.000  Br
  H706     1.0000 0.84388  0.94552  0.53356  Biso   1.000  H
  C760     1.0000 0.99283  0.89003  0.78342  Biso   1.000  C
  C761     1.0000 0.99792  0.94163  0.78998  Biso   1.000  C
  C762     1.0000 0.69434  0.89287  0.82821  Biso   1.000  C
  C763     1.0000 0.76453  0.86721  0.77982  Biso   1.000  C
  C764     1.0000 0.66813  0.94299  0.81961  Biso   1.000  C
  C765     1.0000 0.70972  0.97181  0.76172  Biso   1.000  C
  C766     1.0000 0.58565  0.91155  0.61930  Biso   1.000  C
  C767     1.0000 0.53854  0.89761  0.68465  Biso   1.000  C
  C768     1.0000 0.30949  0.90144  0.54723  Biso   1.000  C
  C769     1.0000 0.38527  0.86562  0.52540  Biso   1.000  C
  C770     1.0000 0.09445  0.97447  0.31212  Biso   1.000  C
  C771     1.0000 0.13687  0.92834  0.29243  Biso   1.000  C
  C772     1.0000 0.53684  0.78430  0.88719  Biso   1.000  C
  C773     1.0000 0.45335  0.74859  0.87572  Biso   1.000  C
  C774     1.0000 0.45335  0.75140  0.87572  Biso   1.000  C
  C775     1.0000 0.53684  0.71569  0.88719  Biso   1.000  C
  C776     1.0000 0.63032  0.83880  0.95461  Biso   1.000  C
  C777     1.0000 0.69670  0.79370  0.96920  Biso   1.000  C
  C778     1.0000 0.53143  0.84898  0.98889  Biso   1.000  C
  C779     1.0000 0.48031  0.81460  0.03841  Biso   1.000  C
  C780     1.0000 0.51499  0.77620  0.15849  Biso   1.000  C
  C781     1.0000 0.61559  0.80113  0.17452  Biso   1.000  C
  C782     1.0000 0.51499  0.72381  0.15849  Biso   1.000  C
  C783     1.0000 0.61559  0.69888  0.17452  Biso   1.000  C
  C784     1.0000 0.19753  0.97075  0.80572  Biso   1.000  C
  H707     1.0000 0.18239  0.01368  0.75837  Biso   1.000  H
  H708     1.0000 0.19468  0.01329  0.70848  Biso   1.000  H
  H709     1.0000 0.12284  0.01701  0.72425  Biso   1.000  H
  H710     1.0000 0.16729  0.88868  0.79237  Biso   1.000  H
  H711     1.0000 0.22259  0.91043  0.80935  Biso   1.000  H
  H712     1.0000 0.15001  0.91436  0.82366  Biso   1.000  H
  H713     1.0000 0.11677  0.88108  0.42969  Biso   1.000  H
  H714     1.0000 0.13952  0.90618  0.39904  Biso   1.000  H
  H715     1.0000 0.19209  0.88576  0.42265  Biso   1.000  H
  H716     1.0000 0.24339  0.99195  0.53066  Biso   1.000  H
  H717     1.0000 0.29305  0.97339  0.50453  Biso   1.000  H
  H718     1.0000 0.24262  0.99433  0.47984  Biso   1.000  H
  H719     1.0000 0.85807  0.99596  0.53585  Biso   1.000  H
  C785     1.0000 0.97883  0.86270  0.75681  Biso   1.000  C
  C786     1.0000 0.01303  0.88726  0.82605  Biso   1.000  C
  C787     1.0000 0.98955  0.97202  0.77010  Biso   1.000  C
  C788     1.0000 0.01822  0.93886  0.83261  Biso   1.000  C
  H720     1.0000 0.69026  0.87530  0.84313  Biso   1.000  H
  C789     1.0000 0.66225  0.91731  0.84141  Biso   1.000  C
  H721     1.0000 0.75423  0.85170  0.79938  Biso   1.000  H
  H722     1.0000 0.74899  0.86214  0.75079  Biso   1.000  H
  H723     1.0000 0.81149  0.87011  0.78052  Biso   1.000  H
  H724     1.0000 0.64615  0.95963  0.82860  Biso   1.000  H
  H725     1.0000 0.73805  0.96972  0.73776  Biso   1.000  H
  H726     1.0000 0.66633  0.97739  0.75082  Biso   1.000  H
  H727     1.0000 0.72719  0.98662  0.78119  Biso   1.000  H
  H728     1.0000 0.62204  0.91445  0.60356  Biso   1.000  H
  C790     1.0000 0.52412  0.91707  0.60114  Biso   1.000  C
  C791     1.0000 0.47714  0.90408  0.66693  Biso   1.000  C
  H729     1.0000 0.54316  0.89057  0.71233  Biso   1.000  H
  H730     1.0000 0.28306  0.91724  0.54082  Biso   1.000  H
  C792     1.0000 0.31259  0.89003  0.58814  Biso   1.000  C
  C793     1.0000 0.38833  0.85422  0.56634  Biso   1.000  C
  H731     1.0000 0.40952  0.85744  0.50444  Biso   1.000  H
  C794     1.0000 0.03169  0.96388  0.30626  Biso   1.000  C
  C795     1.0000 0.10466  0.00556  0.32811  Biso   1.000  C
  C796     1.0000 0.07418  0.91767  0.28688  Biso   1.000  C
  C797     1.0000 0.19518  0.90865  0.28341  Biso   1.000  C
  H732     1.0000 0.56500  0.79456  0.90561  Biso   1.000  H
  C798     1.0000 0.53345  0.79070  0.84389  Biso   1.000  C
  C799     1.0000 0.44844  0.75559  0.83271  Biso   1.000  C
  H733     1.0000 0.42662  0.73446  0.88639  Biso   1.000  H
  C800     1.0000 0.44844  0.74440  0.83271  Biso   1.000  C
  H734     1.0000 0.42662  0.76553  0.88639  Biso   1.000  H
  H735     1.0000 0.56500  0.70543  0.90561  Biso   1.000  H
  C801     1.0000 0.53345  0.70929  0.84389  Biso   1.000  C
  H736     1.0000 0.66246  0.84434  0.93575  Biso   1.000  H
  C802     1.0000 0.57851  0.85703  0.96130  Biso   1.000  C
  H737     1.0000 0.72383  0.80298  0.94862  Biso   1.000  H
  H738     1.0000 0.72124  0.79160  0.99654  Biso   1.000  H
  H739     1.0000 0.68348  0.77468  0.95862  Biso   1.000  H
  H740     1.0000 0.49603  0.86141  0.99351  Biso   1.000  H
  H741     1.0000 0.48898  0.79577  0.05141  Biso   1.000  H
  H742     1.0000 0.47685  0.82903  0.06087  Biso   1.000  H
  H743     1.0000 0.43962  0.81382  0.02111  Biso   1.000  H
  C803     1.0000 0.48101  0.79920  0.17481  Biso   1.000  C
  C804     1.0000 0.47791  0.75001  0.14040  Biso   1.000  C
  H744     1.0000 0.50865  0.76426  0.13033  Biso   1.000  H
  C805     1.0000 0.58161  0.82409  0.19090  Biso   1.000  C
  C806     1.0000 0.69070  0.80221  0.17439  Biso   1.000  C
  H745     1.0000 0.50865  0.73573  0.13033  Biso   1.000  H
  C807     1.0000 0.48101  0.70079  0.17481  Biso   1.000  C
  C808     1.0000 0.58161  0.67590  0.19090  Biso   1.000  C
  C809     1.0000 0.69070  0.69780  0.17439  Biso   1.000  C
  C810     1.0000 0.15845  0.98845  0.82920  Biso   1.000  C
  C811     1.0000 0.25942  0.96371  0.82162  Biso   1.000  C
  H746     1.0000 0.95967  0.84835  0.77424  Biso   1.000  H
  H747     1.0000 0.94949  0.86723  0.73311  Biso   1.000  H
  H748     1.0000 0.01863  0.85542  0.74655  Biso   1.000  H
  H749     1.0000 0.01810  0.86908  0.83812  Biso   1.000  H
  C812     1.0000 0.02582  0.91166  0.85065  Biso   1.000  C
  H750     1.0000 0.99091  0.98621  0.79237  Biso   1.000  H
  H751     1.0000 0.94864  0.97309  0.75433  Biso   1.000  H
  H752     1.0000 0.02398  0.97558  0.75143  Biso   1.000  H
  H753     1.0000 0.02672  0.95521  0.84908  Biso   1.000  H
  B34      1.0000 0.62224  0.91516  0.88130  Biso   1.000  B
  C813     1.0000 0.46990  0.91353  0.62500  Biso   1.000  C
  I20      1.0000 0.51128  0.92993  0.53760  Biso   1.000  I
  H754     1.0000 0.44098  0.90208  0.68312  Biso   1.000  H
  C814     1.0000 0.35207  0.86641  0.59773  Biso   1.000  C
  I21      1.0000 0.25943  0.90811  0.63618  Biso   1.000  I
  H755     1.0000 0.41481  0.83841  0.57272  Biso   1.000  H
  C815     1.0000 0.02157  0.93530  0.29463  Biso   1.000  C
  H756     1.0000 0.99652  0.97591  0.31014  Biso   1.000  H
  H757     1.0000 0.06331  0.01449  0.33146  Biso   1.000  H
  H758     1.0000 0.12878  0.00533  0.35507  Biso   1.000  H
  H759     1.0000 0.12829  0.01626  0.30791  Biso   1.000  H
  H760     1.0000 0.06732  0.89877  0.27799  Biso   1.000  H
  H761     1.0000 0.23491  0.91913  0.28873  Biso   1.000  H
  H762     1.0000 0.19488  0.89212  0.30173  Biso   1.000  H
  H763     1.0000 0.19199  0.90251  0.25426  Biso   1.000  H
  C816     1.0000 0.48911  0.77629  0.81671  Biso   1.000  C
  I22      1.0000 0.59692  0.82029  0.81840  Biso   1.000  I
  H764     1.0000 0.41794  0.74642  0.81471  Biso   1.000  H
  H765     1.0000 0.41794  0.75359  0.81471  Biso   1.000  H
  C817     1.0000 0.48911  0.72370  0.81671  Biso   1.000  C
  I23      1.0000 0.59692  0.67970  0.81840  Biso   1.000  I
  B35      1.0000 0.57851  0.88628  0.93530  Biso   1.000  B
  H766     1.0000 0.43600  0.79854  0.17493  Biso   1.000  H
  C818     1.0000 0.51427  0.82310  0.19099  Biso   1.000  C
  H767     1.0000 0.45291  0.74124  0.16286  Biso   1.000  H
  H768     1.0000 0.44843  0.75585  0.11669  Biso   1.000  H
  H769     1.0000 0.45291  0.75877  0.16286  Biso   1.000  H
  H770     1.0000 0.44843  0.74414  0.11669  Biso   1.000  H
  H771     1.0000 0.60383  0.84013  0.20167  Biso   1.000  H
  H772     1.0000 0.70676  0.78445  0.16193  Biso   1.000  H
  H773     1.0000 0.70396  0.81868  0.15754  Biso   1.000  H
  H774     1.0000 0.70868  0.80414  0.20374  Biso   1.000  H
  H775     1.0000 0.43600  0.70145  0.17493  Biso   1.000  H
  C819     1.0000 0.51427  0.67689  0.19099  Biso   1.000  C
  H776     1.0000 0.60383  0.65986  0.20167  Biso   1.000  H
  H777     1.0000 0.70676  0.71554  0.16193  Biso   1.000  H
  H778     1.0000 0.70396  0.68131  0.15754  Biso   1.000  H
  H779     1.0000 0.70868  0.69587  0.20374  Biso   1.000  H
  H780     1.0000 0.11617  0.99326  0.81831  Biso   1.000  H
  C820     1.0000 0.18123  0.99908  0.86839  Biso   1.000  C
  O51      1.0000 0.30003  0.94567  0.80100  Biso   1.000  O
  C821     1.0000 0.28222  0.97434  0.86090  Biso   1.000  C
  C822     1.0000 0.04851  0.90861  0.89806  Biso   1.000  C
  O52      1.0000 0.61881  0.88950  0.90290  Biso   1.000  O
  O53      1.0000 0.58760  0.93826  0.89535  Biso   1.000  O
  H781     1.0000 0.42879  0.91743  0.61296  Biso   1.000  H
  H782     1.0000 0.35415  0.85879  0.62506  Biso   1.000  H
  C823     1.0000 0.95219  0.92270  0.29201  Biso   1.000  C
  H783     1.0000 0.48681  0.78063  0.78778  Biso   1.000  H
  H784     1.0000 0.48681  0.71938  0.78778  Biso   1.000  H
  O54      1.0000 0.53944  0.90786  0.94875  Biso   1.000  O
  C824     1.0000 0.47629  0.84880  0.20922  Biso   1.000  C
  C825     1.0000 0.47629  0.65121  0.20922  Biso   1.000  C
  C826     1.0000 0.24312  0.99203  0.88429  Biso   1.000  C
  C827     1.0000 0.14513  0.02280  0.89232  Biso   1.000  C
  C828     1.0000 0.31814  0.95345  0.76156  Biso   1.000  C
  C829     1.0000 0.34890  0.96541  0.87830  Biso   1.000  C
  H785     1.0000 0.03838  0.88963  0.90784  Biso   1.000  H
  H786     1.0000 0.02672  0.92263  0.91462  Biso   1.000  H
  H787     1.0000 0.09449  0.91166  0.90111  Biso   1.000  H
  B36      1.0000 0.54242  0.93397  0.92702  Biso   1.000  B
  H788     1.0000 0.95368  0.90290  0.28357  Biso   1.000  H
  H789     1.0000 0.93379  0.92416  0.31935  Biso   1.000  H
  H790     1.0000 0.92585  0.93337  0.27143  Biso   1.000  H
  H791     1.0000 0.50680  0.86373  0.21916  Biso   1.000  H
  H792     1.0000 0.44671  0.85669  0.18682  Biso   1.000  H
  H793     1.0000 0.45143  0.84217  0.23305  Biso   1.000  H
  H794     1.0000 0.50680  0.63626  0.21916  Biso   1.000  H
  H795     1.0000 0.44671  0.64332  0.18682  Biso   1.000  H
  H796     1.0000 0.45143  0.65782  0.23305  Biso   1.000  H
  H797     1.0000 0.25869  0.99929  0.91112  Biso   1.000  H
  H798     1.0000 0.16953  0.04061  0.89111  Biso   1.000  H
  H799     1.0000 0.14487  0.01709  0.92195  Biso   1.000  H
  C830     1.0000 0.07454  0.02884  0.87629  Biso   1.000  C
  H800     1.0000 0.29886  0.97241  0.75449  Biso   1.000  H
  H801     1.0000 0.29960  0.93944  0.74063  Biso   1.000  H
  C831     1.0000 0.39116  0.95531  0.75602  Biso   1.000  C
  C832     1.0000 0.35394  0.94069  0.90322  Biso   1.000  C
  C833     1.0000 0.40434  0.98059  0.86909  Biso   1.000  C
  C834     1.0000 0.46965  0.94649  0.90962  Biso   1.000  C
  N12      1.0000 0.56610  0.95957  0.96522  Biso   1.000  N
  C835     1.0000 0.02312  0.01286  0.89070  Biso   1.000  C
  C836     1.0000 0.06325  0.04993  0.84542  Biso   1.000  C
  C837     1.0000 0.41691  0.97200  0.72431  Biso   1.000  C
  C838     1.0000 0.43214  0.94052  0.78482  Biso   1.000  C
  C839     1.0000 0.41421  0.93126  0.91880  Biso   1.000  C
  C840     1.0000 0.29350  0.92379  0.91529  Biso   1.000  C
  C841     1.0000 0.46462  0.97116  0.88480  Biso   1.000  C
  C842     1.0000 0.39851  0.00769  0.84322  Biso   1.000  C
  C843     1.0000 0.60473  0.97887  0.95480  Biso   1.000  C
  C844     1.0000 0.54129  0.95671  0.00361  Biso   1.000  C
  C845     1.0000 0.03324  0.99199  0.92852  Biso   1.000  C
  C846     1.0000 0.96114  0.01671  0.87231  Biso   1.000  C
  C847     1.0000 0.00076  0.05431  0.82790  Biso   1.000  C
  C848     1.0000 0.12022  0.06771  0.82901  Biso   1.000  C
  H802     1.0000 0.38951  0.98250  0.70574  Biso   1.000  H
  C849     1.0000 0.48362  0.97294  0.72033  Biso   1.000  C
  C850     1.0000 0.49895  0.94161  0.78100  Biso   1.000  C
  H803     1.0000 0.41501  0.92991  0.80664  Biso   1.000  H
  H804     1.0000 0.41763  0.91439  0.93581  Biso   1.000  H
  H805     1.0000 0.30677  0.90719  0.93282  Biso   1.000  H
  H806     1.0000 0.26555  0.93629  0.93151  Biso   1.000  H
  H807     1.0000 0.26974  0.91720  0.88939  Biso   1.000  H
  H808     1.0000 0.50245  0.98155  0.87849  Biso   1.000  H
  H809     1.0000 0.35294  0.01112  0.83481  Biso   1.000  H
  H810     1.0000 0.41546  0.02388  0.86024  Biso   1.000  H
  H811     1.0000 0.42338  0.00565  0.81764  Biso   1.000  H
  H812     1.0000 0.62212  0.97861  0.92807  Biso   1.000  H
  C851     1.0000 0.62182  0.00127  0.98450  Biso   1.000  C
  H813     1.0000 0.51437  0.94116  0.00858  Biso   1.000  H
  C852     1.0000 0.55503  0.97653  0.03634  Biso   1.000  C
  H814     1.0000 0.06503  0.97732  0.92154  Biso   1.000  H
  H815     1.0000 0.99202  0.98267  0.93415  Biso   1.000  H
  H816     1.0000 0.04893  0.00260  0.95385  Biso   1.000  H
  H817     1.0000 0.92698  0.00545  0.88123  Biso   1.000  H
  C853     1.0000 0.95004  0.03719  0.84070  Biso   1.000  C
  H818     1.0000 0.99303  0.06867  0.80766  Biso   1.000  H
  H819     1.0000 0.13776  0.08018  0.85192  Biso   1.000  H
  H820     1.0000 0.10475  0.07954  0.80480  Biso   1.000  H
  H821     1.0000 0.15413  0.05474  0.82003  Biso   1.000  H
  C854     1.0000 0.52455  0.95750  0.74840  Biso   1.000  C
  I24      1.0000 0.52371  0.99629  0.67136  Biso   1.000  I
  H822     1.0000 0.52641  0.93171  0.80024  Biso   1.000  H
  C855     1.0000 0.59749  0.99897  0.02732  Biso   1.000  C
  Br12     1.0000 0.67399  0.03137  0.97303  Biso   1.000  Br
  H823     1.0000 0.53694  0.97490  0.06269  Biso   1.000  H
  C856     1.0000 0.88174  0.04050  0.81872  Biso   1.000  C
  H824     1.0000 0.56915  0.95783  0.74534  Biso   1.000  H
  H825     1.0000 0.61005  0.01228  0.04825  Biso   1.000  H
  H826     1.0000 0.88235  0.05583  0.79740  Biso   1.000  H
  H827     1.0000 0.86909  0.02240  0.80473  Biso   1.000  H
  H828     1.0000 0.85051  0.04531  0.84007  Biso   1.000  H
