data_image0
_cell_length_a       19.875
_cell_length_b       15.081
_cell_length_c       21.318
_cell_angle_alpha    90
_cell_angle_beta     115.23
_cell_angle_gamma    90

_symmetry_space_group_name_H-M    "P 1"
_symmetry_int_tables_number       1

loop_
  _symmetry_equiv_pos_as_xyz
  'x, y, z'

loop_
  _atom_site_label
  _atom_site_occupancy
  _atom_site_fract_x
  _atom_site_fract_y
  _atom_site_fract_z
  _atom_site_thermal_displace_type
  _atom_site_B_iso_or_equiv
  _atom_site_type_symbol
  C1       1.0000 0.41843  0.54247  0.50912  Biso   1.000  C
  O1       1.0000 0.36148  0.52152  0.52773  Biso   1.000  O
  H1       1.0000 0.40492  0.52291  0.46141  Biso   1.000  H
  H2       1.0000 0.42627  0.60679  0.51207  Biso   1.000  H
  H3       1.0000 0.46422  0.51270  0.54049  Biso   1.000  H
  C2       1.0000 0.37131  0.54473  0.59390  Biso   1.000  C
  C3       1.0000 0.32121  0.50812  0.61682  Biso   1.000  C
  C4       1.0000 0.42793  0.60102  0.63632  Biso   1.000  C
  C5       1.0000 0.26118  0.44559  0.57171  Biso   1.000  C
  C6       1.0000 0.32972  0.52861  0.68299  Biso   1.000  C
  C7       1.0000 0.43599  0.62191  0.70269  Biso   1.000  C
  H4       1.0000 0.46130  0.62542  0.61962  Biso   1.000  H
  C8       1.0000 0.28519  0.34898  0.58778  Biso   1.000  C
  H5       1.0000 0.21582  0.45581  0.57892  Biso   1.000  H
  H6       1.0000 0.24900  0.45799  0.52239  Biso   1.000  H
  C9       1.0000 0.38601  0.58570  0.72598  Biso   1.000  C
  H7       1.0000 0.29660  0.50341  0.69958  Biso   1.000  H
  C10      1.0000 0.50003  0.67999  0.74999  Biso   1.000  C
  C11      1.0000 0.32512  0.30833  0.55672  Biso   1.000  C
  C12      1.0000 0.26941  0.30157  0.63580  Biso   1.000  C
  O2       1.0000 0.39628  0.60871  0.79126  Biso   1.000  O
  H8       1.0000 0.48329  0.71839  0.77820  Biso   1.000  H
  H9       1.0000 0.51671  0.71839  0.72178  Biso   1.000  H
  C13      1.0000 0.56401  0.62191  0.79728  Biso   1.000  C
  C14      1.0000 0.34742  0.21961  0.57191  Biso   1.000  C
  H10      1.0000 0.33759  0.34043  0.52478  Biso   1.000  H
  C15      1.0000 0.29031  0.21331  0.64830  Biso   1.000  C
  O3       1.0000 0.23177  0.34613  0.66805  Biso   1.000  O
  C16      1.0000 0.35142  0.56561  0.81849  Biso   1.000  C
  C17      1.0000 0.61400  0.58570  0.77400  Biso   1.000  C
  C18      1.0000 0.57209  0.60102  0.86371  Biso   1.000  C
  O4       1.0000 0.38810  0.17592  0.54205  Biso   1.000  O
  C19      1.0000 0.32931  0.17002  0.61661  Biso   1.000  C
  H11      1.0000 0.27748  0.18109  0.67988  Biso   1.000  H
  C20      1.0000 0.22281  0.30310  0.72230  Biso   1.000  C
  H12      1.0000 0.36392  0.58763  0.86552  Biso   1.000  H
  H13      1.0000 0.29889  0.57781  0.78888  Biso   1.000  H
  H14      1.0000 0.36020  0.50162  0.82020  Biso   1.000  H
  C21      1.0000 0.67028  0.52861  0.81698  Biso   1.000  C
  O5       1.0000 0.60372  0.60871  0.70871  Biso   1.000  O
  C22      1.0000 0.62870  0.54473  0.90607  Biso   1.000  C
  H15      1.0000 0.53872  0.62542  0.88040  Biso   1.000  H
  C23      1.0000 0.41291  0.22233  0.49761  Biso   1.000  C
  C24      1.0000 0.41889  0.22127  0.49978  Biso   1.000  C
  C25      1.0000 0.35239  0.07480  0.63342  Biso   1.000  C
  H16      1.0000 0.18708  0.25363  0.70368  Biso   1.000  H
  H17      1.0000 0.27109  0.27843  0.75548  Biso   1.000  H
  C26      1.0000 0.19502  0.36748  0.75792  Biso   1.000  C
  C27      1.0000 0.67882  0.50812  0.88320  Biso   1.000  C
  H18      1.0000 0.70340  0.50341  0.80039  Biso   1.000  H
  C28      1.0000 0.64858  0.56561  0.68149  Biso   1.000  C
  O6       1.0000 0.63852  0.52152  0.97224  Biso   1.000  O
  C29      1.0000 0.45591  0.15801  0.47940  Biso   1.000  C
  C30      1.0000 0.48610  0.23022  0.48931  Biso   1.000  C
  H19      1.0000 0.37001  0.24368  0.45560  Biso   1.000  H
  H20      1.0000 0.44398  0.27379  0.52187  Biso   1.000  H
  H21      1.0000 0.40820  0.28400  0.50590  Biso   1.000  H
  H22      1.0000 0.38198  0.20589  0.45239  Biso   1.000  H
  H23      1.0000 0.31571  0.04310  0.64508  Biso   1.000  H
  H24      1.0000 0.35391  0.04562  0.59240  Biso   1.000  H
  C31      1.0000 0.42893  0.06989  0.69429  Biso   1.000  C
  S1       1.0000 0.17442  0.32776  0.82554  Biso   1.000  S
  H25      1.0000 0.23263  0.41509  0.77700  Biso   1.000  H
  H26      1.0000 0.14940  0.39500  0.72261  Biso   1.000  H
  C32      1.0000 0.73884  0.44559  0.92832  Biso   1.000  C
  H27      1.0000 0.63611  0.58763  0.63450  Biso   1.000  H
  H28      1.0000 0.70111  0.57781  0.71109  Biso   1.000  H
  H29      1.0000 0.63980  0.50162  0.67977  Biso   1.000  H
  C33      1.0000 0.58160  0.54247  0.99091  Biso   1.000  C
  S2       1.0000 0.48080  0.20436  0.41433  Biso   1.000  S
  H30      1.0000 0.50149  0.14230  0.52110  Biso   1.000  H
  H31      1.0000 0.42630  0.10338  0.46151  Biso   1.000  H
  S3       1.0000 0.48230  0.11471  0.46701  Biso   1.000  S
  H32      1.0000 0.48051  0.27061  0.45078  Biso   1.000  H
  H33      1.0000 0.53052  0.24620  0.53199  Biso   1.000  H
  C34      1.0000 0.43682  0.06989  0.76108  Biso   1.000  C
  C35      1.0000 0.49272  0.07002  0.68361  Biso   1.000  C
  C36      1.0000 0.26909  0.31523  0.89560  Biso   1.000  C
  C37      1.0000 0.22312  0.22843  0.85282  Biso   1.000  C
  C38      1.0000 0.71482  0.34898  0.91219  Biso   1.000  C
  H34      1.0000 0.78420  0.45581  0.92111  Biso   1.000  H
  H35      1.0000 0.75100  0.45799  0.97758  Biso   1.000  H
  H36      1.0000 0.57373  0.60679  0.98790  Biso   1.000  H
  H37      1.0000 0.53578  0.51270  0.95948  Biso   1.000  H
  H38      1.0000 0.59511  0.52291  0.03861  Biso   1.000  H
  C39      1.0000 0.56222  0.14303  0.42392  Biso   1.000  C
  C40      1.0000 0.55493  0.13799  0.43999  Biso   1.000  C
  H39      1.0000 0.53560  0.18659  0.40587  Biso   1.000  H
  O7       1.0000 0.37141  0.07168  0.77021  Biso   1.000  O
  C41      1.0000 0.50730  0.07002  0.81641  Biso   1.000  C
  H40      1.0000 0.48840  0.07009  0.63751  Biso   1.000  H
  C42      1.0000 0.56323  0.06989  0.73889  Biso   1.000  C
  H41      1.0000 0.27541  0.35608  0.93397  Biso   1.000  H
  H42      1.0000 0.30614  0.33128  0.87791  Biso   1.000  H
  C43      1.0000 0.28211  0.22691  0.92111  Biso   1.000  C
  H43      1.0000 0.27350  0.28738  0.93407  Biso   1.000  H
  H44      1.0000 0.27642  0.18613  0.88268  Biso   1.000  H
  H45      1.0000 0.24409  0.21278  0.81968  Biso   1.000  H
  H46      1.0000 0.18712  0.18149  0.84991  Biso   1.000  H
  C44      1.0000 0.73060  0.30157  0.86417  Biso   1.000  C
  C45      1.0000 0.67490  0.30833  0.94330  Biso   1.000  C
  C46      1.0000 0.63161  0.16073  0.48381  Biso   1.000  C
  H47      1.0000 0.57064  0.15350  0.38192  Biso   1.000  H
  H48      1.0000 0.55091  0.07911  0.42439  Biso   1.000  H
  H49      1.0000 0.55720  0.08488  0.41339  Biso   1.000  H
  C47      1.0000 0.37823  0.07811  0.83959  Biso   1.000  C
  C48      1.0000 0.57112  0.06989  0.80568  Biso   1.000  C
  H50      1.0000 0.51162  0.07009  0.86251  Biso   1.000  H
  O8       1.0000 0.62859  0.07168  0.72976  Biso   1.000  O
  H51      1.0000 0.24451  0.21053  0.93801  Biso   1.000  H
  O9       1.0000 0.35329  0.21670  0.97499  Biso   1.000  O
  H52      1.0000 0.25631  0.18838  0.94159  Biso   1.000  H
  O10      1.0000 0.76825  0.34613  0.83197  Biso   1.000  O
  C49      1.0000 0.70969  0.21331  0.85168  Biso   1.000  C
  C50      1.0000 0.65261  0.21961  0.92811  Biso   1.000  C
  H53      1.0000 0.66241  0.34043  0.97520  Biso   1.000  H
  O11      1.0000 0.64672  0.21670  0.52499  Biso   1.000  O
  H54      1.0000 0.66920  0.16557  0.46499  Biso   1.000  H
  H55      1.0000 0.64318  0.10490  0.51088  Biso   1.000  H
  H56      1.0000 0.65513  0.17618  0.45260  Biso   1.000  H
  H57      1.0000 0.65633  0.10603  0.50860  Biso   1.000  H
  H58      1.0000 0.32861  0.07877  0.83892  Biso   1.000  H
  H59      1.0000 0.40623  0.02699  0.86651  Biso   1.000  H
  H60      1.0000 0.40463  0.13288  0.86091  Biso   1.000  H
  C51      1.0000 0.64764  0.07480  0.86661  Biso   1.000  C
  C52      1.0000 0.62183  0.07811  0.66038  Biso   1.000  C
  C53      1.0000 0.36841  0.16073  0.01621  Biso   1.000  C
  C54      1.0000 0.77719  0.30310  0.77768  Biso   1.000  C
  H61      1.0000 0.72252  0.18109  0.82010  Biso   1.000  H
  C55      1.0000 0.67071  0.17002  0.88341  Biso   1.000  C
  O12      1.0000 0.61193  0.17592  0.95798  Biso   1.000  O
  C56      1.0000 0.71791  0.22691  0.57892  Biso   1.000  C
  H62      1.0000 0.68429  0.04310  0.85489  Biso   1.000  H
  H63      1.0000 0.64609  0.04562  0.90758  Biso   1.000  H
  H64      1.0000 0.67142  0.07877  0.66111  Biso   1.000  H
  H65      1.0000 0.59380  0.02699  0.63352  Biso   1.000  H
  H66      1.0000 0.59540  0.13288  0.63912  Biso   1.000  H
  H67      1.0000 0.35682  0.10490  0.98909  Biso   1.000  H
  H68      1.0000 0.34367  0.10603  0.99137  Biso   1.000  H
  H69      1.0000 0.33081  0.16557  0.03498  Biso   1.000  H
  C57      1.0000 0.43781  0.14303  0.07611  Biso   1.000  C
  H70      1.0000 0.34487  0.17618  0.04738  Biso   1.000  H
  C58      1.0000 0.44508  0.13799  0.05998  Biso   1.000  C
  C59      1.0000 0.80500  0.36748  0.74210  Biso   1.000  C
  H71      1.0000 0.81292  0.25363  0.79629  Biso   1.000  H
  H72      1.0000 0.72891  0.27843  0.74449  Biso   1.000  H
  C60      1.0000 0.58711  0.22233  0.00242  Biso   1.000  C
  C61      1.0000 0.58111  0.22127  0.00019  Biso   1.000  C
  C62      1.0000 0.73091  0.31523  0.60438  Biso   1.000  C
  H73      1.0000 0.72358  0.18613  0.61729  Biso   1.000  H
  H74      1.0000 0.75552  0.21053  0.56201  Biso   1.000  H
  C63      1.0000 0.77691  0.22843  0.64721  Biso   1.000  C
  H75      1.0000 0.74369  0.18838  0.55838  Biso   1.000  H
  H76      1.0000 0.72650  0.28738  0.56590  Biso   1.000  H
  S4       1.0000 0.51925  0.20436  0.08565  Biso   1.000  S
  H77      1.0000 0.42939  0.15350  0.11811  Biso   1.000  H
  H78      1.0000 0.44909  0.07911  0.07559  Biso   1.000  H
  H79      1.0000 0.46440  0.18659  0.09410  Biso   1.000  H
  H80      1.0000 0.44280  0.08488  0.08658  Biso   1.000  H
  S5       1.0000 0.51773  0.11471  0.03301  Biso   1.000  S
  S6       1.0000 0.82558  0.32776  0.67443  Biso   1.000  S
  H81      1.0000 0.76745  0.41509  0.72302  Biso   1.000  H
  H82      1.0000 0.85063  0.39500  0.77742  Biso   1.000  H
  H83      1.0000 0.55602  0.27379  0.97810  Biso   1.000  H
  H84      1.0000 0.59180  0.28400  0.99407  Biso   1.000  H
  C64      1.0000 0.54411  0.15801  0.02062  Biso   1.000  C
  H85      1.0000 0.62999  0.24368  0.04437  Biso   1.000  H
  C65      1.0000 0.51392  0.23022  0.01072  Biso   1.000  C
  H86      1.0000 0.61803  0.20589  0.04759  Biso   1.000  H
  H87      1.0000 0.72464  0.35608  0.56600  Biso   1.000  H
  H88      1.0000 0.69394  0.33128  0.62211  Biso   1.000  H
  H89      1.0000 0.75591  0.21278  0.68029  Biso   1.000  H
  H90      1.0000 0.81290  0.18149  0.65011  Biso   1.000  H
  H91      1.0000 0.51949  0.27061  0.04919  Biso   1.000  H
  H92      1.0000 0.49851  0.14230  0.97888  Biso   1.000  H
  H93      1.0000 0.57373  0.10338  0.03851  Biso   1.000  H
  H94      1.0000 0.46948  0.24620  0.96799  Biso   1.000  H
  C66      1.0000 0.58163  0.45753  0.49092  Biso   1.000  C
  O13      1.0000 0.63850  0.47848  0.47225  Biso   1.000  O
  H95      1.0000 0.59514  0.47709  0.53862  Biso   1.000  H
  H96      1.0000 0.57371  0.39321  0.48791  Biso   1.000  H
  H97      1.0000 0.53582  0.48730  0.45949  Biso   1.000  H
  C67      1.0000 0.62868  0.45527  0.40608  Biso   1.000  C
  C68      1.0000 0.57213  0.39898  0.36371  Biso   1.000  C
  C69      1.0000 0.67880  0.49188  0.38321  Biso   1.000  C
  C70      1.0000 0.56400  0.37809  0.29729  Biso   1.000  C
  H98      1.0000 0.53870  0.37458  0.38041  Biso   1.000  H
  C71      1.0000 0.67031  0.47139  0.31699  Biso   1.000  C
  C72      1.0000 0.73880  0.55441  0.42827  Biso   1.000  C
  C73      1.0000 0.50001  0.32001  0.25000  Biso   1.000  C
  C74      1.0000 0.61403  0.41430  0.27400  Biso   1.000  C
  H99      1.0000 0.70343  0.49659  0.30040  Biso   1.000  H
  C75      1.0000 0.71480  0.65102  0.41220  Biso   1.000  C
  H100     1.0000 0.78423  0.54419  0.42112  Biso   1.000  H
  H101     1.0000 0.75098  0.54201  0.47759  Biso   1.000  H
  C76      1.0000 0.43602  0.37809  0.20270  Biso   1.000  C
  H102     1.0000 0.51670  0.28161  0.22179  Biso   1.000  H
  H103     1.0000 0.48332  0.28161  0.27820  Biso   1.000  H
  O14      1.0000 0.60375  0.39129  0.20872  Biso   1.000  O
  C77      1.0000 0.67493  0.69173  0.44331  Biso   1.000  C
  C78      1.0000 0.73058  0.69843  0.36418  Biso   1.000  C
  C79      1.0000 0.38599  0.41430  0.22599  Biso   1.000  C
  C80      1.0000 0.42789  0.39898  0.13628  Biso   1.000  C
  C81      1.0000 0.64861  0.43439  0.18149  Biso   1.000  C
  C82      1.0000 0.65264  0.78039  0.42812  Biso   1.000  C
  H104     1.0000 0.66240  0.65957  0.47520  Biso   1.000  H
  O15      1.0000 0.76828  0.65394  0.33198  Biso   1.000  O
  C83      1.0000 0.70972  0.78669  0.35168  Biso   1.000  C
  O16      1.0000 0.39626  0.39129  0.29127  Biso   1.000  O
  C84      1.0000 0.32970  0.47139  0.18300  Biso   1.000  C
  C85      1.0000 0.37129  0.45527  0.09391  Biso   1.000  C
  H105     1.0000 0.46131  0.37458  0.11958  Biso   1.000  H
  H106     1.0000 0.63614  0.41237  0.13451  Biso   1.000  H
  H107     1.0000 0.70110  0.42219  0.21110  Biso   1.000  H
  H108     1.0000 0.63978  0.49838  0.17978  Biso   1.000  H
  O17      1.0000 0.61191  0.82408  0.45799  Biso   1.000  O
  C86      1.0000 0.67070  0.82998  0.38342  Biso   1.000  C
  C87      1.0000 0.77722  0.69690  0.27769  Biso   1.000  C
  H109     1.0000 0.72250  0.81891  0.32010  Biso   1.000  H
  C88      1.0000 0.35140  0.43439  0.31850  Biso   1.000  C
  H110     1.0000 0.29659  0.49659  0.19959  Biso   1.000  H
  C89      1.0000 0.32122  0.49188  0.11678  Biso   1.000  C
  O18      1.0000 0.36151  0.47848  0.02774  Biso   1.000  O
  C90      1.0000 0.58712  0.77773  0.50238  Biso   1.000  C
  C91      1.0000 0.58109  0.77873  0.50020  Biso   1.000  C
  C92      1.0000 0.64762  0.92520  0.36662  Biso   1.000  C
  H111     1.0000 0.81290  0.74644  0.29630  Biso   1.000  H
  H112     1.0000 0.72889  0.72164  0.24450  Biso   1.000  H
  C93      1.0000 0.80503  0.63252  0.24211  Biso   1.000  C
  H113     1.0000 0.36388  0.41237  0.36548  Biso   1.000  H
  H114     1.0000 0.29892  0.42219  0.28889  Biso   1.000  H
  H115     1.0000 0.36019  0.49838  0.32021  Biso   1.000  H
  C94      1.0000 0.26122  0.55441  0.07172  Biso   1.000  C
  C95      1.0000 0.41839  0.45753  0.00907  Biso   1.000  C
  C96      1.0000 0.54412  0.84199  0.52058  Biso   1.000  C
  H116     1.0000 0.63002  0.75632  0.54438  Biso   1.000  H
  H117     1.0000 0.55600  0.72621  0.47811  Biso   1.000  H
  C97      1.0000 0.51388  0.76978  0.51067  Biso   1.000  C
  H118     1.0000 0.59178  0.71600  0.49408  Biso   1.000  H
  H119     1.0000 0.61801  0.79411  0.54759  Biso   1.000  H
  C98      1.0000 0.57111  0.93011  0.30569  Biso   1.000  C
  H120     1.0000 0.68432  0.95690  0.35490  Biso   1.000  H
  H121     1.0000 0.64612  0.95438  0.40758  Biso   1.000  H
  S7       1.0000 0.82557  0.67224  0.17444  Biso   1.000  S
  H122     1.0000 0.76741  0.58491  0.22298  Biso   1.000  H
  H123     1.0000 0.85059  0.60500  0.27738  Biso   1.000  H
  C99      1.0000 0.28522  0.65102  0.08779  Biso   1.000  C
  H124     1.0000 0.21581  0.54419  0.07892  Biso   1.000  H
  H125     1.0000 0.24898  0.54201  0.02240  Biso   1.000  H
  H126     1.0000 0.42630  0.39321  0.01208  Biso   1.000  H
  H127     1.0000 0.46420  0.48730  0.04050  Biso   1.000  H
  H128     1.0000 0.40490  0.47709  0.96142  Biso   1.000  H
  S8       1.0000 0.51923  0.79564  0.58566  Biso   1.000  S
  H129     1.0000 0.49849  0.85770  0.47889  Biso   1.000  H
  H130     1.0000 0.57371  0.89662  0.53852  Biso   1.000  H
  S9       1.0000 0.51771  0.88529  0.53302  Biso   1.000  S
  H131     1.0000 0.51952  0.72939  0.54920  Biso   1.000  H
  H132     1.0000 0.46952  0.75380  0.46800  Biso   1.000  H
  C100     1.0000 0.50734  0.92998  0.31642  Biso   1.000  C
  C101     1.0000 0.56321  0.93011  0.23890  Biso   1.000  C
  C102     1.0000 0.73089  0.68484  0.10439  Biso   1.000  C
  C103     1.0000 0.77694  0.77163  0.14722  Biso   1.000  C
  C104     1.0000 0.32508  0.69173  0.05668  Biso   1.000  C
  C105     1.0000 0.26939  0.69843  0.13581  Biso   1.000  C
  C106     1.0000 0.43779  0.85704  0.57611  Biso   1.000  C
  C107     1.0000 0.44511  0.86201  0.55999  Biso   1.000  C
  H133     1.0000 0.46443  0.81341  0.59411  Biso   1.000  H
  C108     1.0000 0.43681  0.93011  0.26109  Biso   1.000  C
  H134     1.0000 0.51161  0.92991  0.36252  Biso   1.000  H
  C109     1.0000 0.49271  0.92998  0.18362  Biso   1.000  C
  O19      1.0000 0.62862  0.92832  0.22977  Biso   1.000  O
  C110     1.0000 0.71795  0.77309  0.07892  Biso   1.000  C
  H135     1.0000 0.72462  0.64392  0.06601  Biso   1.000  H
  H136     1.0000 0.69392  0.66872  0.12212  Biso   1.000  H
  H137     1.0000 0.72654  0.71262  0.06591  Biso   1.000  H
  H138     1.0000 0.72362  0.81394  0.11730  Biso   1.000  H
  H139     1.0000 0.75589  0.78722  0.18030  Biso   1.000  H
  H140     1.0000 0.81294  0.81851  0.15012  Biso   1.000  H
  C111     1.0000 0.34740  0.78039  0.07192  Biso   1.000  C
  H141     1.0000 0.33762  0.65957  0.02479  Biso   1.000  H
  O20      1.0000 0.23176  0.65394  0.16806  Biso   1.000  O
  C112     1.0000 0.29030  0.78669  0.14831  Biso   1.000  C
  C113     1.0000 0.36839  0.83933  0.51622  Biso   1.000  C
  H142     1.0000 0.42942  0.84650  0.61812  Biso   1.000  H
  H143     1.0000 0.44913  0.92089  0.57560  Biso   1.000  H
  H144     1.0000 0.44278  0.91512  0.58659  Biso   1.000  H
  C114     1.0000 0.42891  0.93011  0.19430  Biso   1.000  C
  O21      1.0000 0.37139  0.92832  0.27022  Biso   1.000  O
  H145     1.0000 0.48843  0.92991  0.13752  Biso   1.000  H
  C115     1.0000 0.62181  0.92189  0.16039  Biso   1.000  C
  O22      1.0000 0.64670  0.78330  0.02499  Biso   1.000  O
  H146     1.0000 0.75550  0.78954  0.06202  Biso   1.000  H
  H147     1.0000 0.74373  0.81162  0.05839  Biso   1.000  H
  O23      1.0000 0.38813  0.82408  0.04205  Biso   1.000  O
  C116     1.0000 0.32929  0.82998  0.11662  Biso   1.000  C
  C117     1.0000 0.22280  0.69690  0.22230  Biso   1.000  C
  H148     1.0000 0.27751  0.81891  0.17989  Biso   1.000  H
  O24      1.0000 0.35332  0.78330  0.47500  Biso   1.000  O
  H149     1.0000 0.33079  0.83443  0.53499  Biso   1.000  H
  H150     1.0000 0.35680  0.89510  0.48910  Biso   1.000  H
  H151     1.0000 0.34491  0.82382  0.54739  Biso   1.000  H
  H152     1.0000 0.34370  0.89404  0.49138  Biso   1.000  H
  C118     1.0000 0.35242  0.92520  0.13342  Biso   1.000  C
  C119     1.0000 0.37821  0.92189  0.33960  Biso   1.000  C
  H153     1.0000 0.67140  0.92123  0.16112  Biso   1.000  H
  H154     1.0000 0.59381  0.97301  0.13348  Biso   1.000  H
  H155     1.0000 0.59541  0.86712  0.13908  Biso   1.000  H
  C120     1.0000 0.63160  0.83933  0.98382  Biso   1.000  C
  C121     1.0000 0.41290  0.77773  0.99761  Biso   1.000  C
  C122     1.0000 0.41892  0.77873  0.99979  Biso   1.000  C
  H156     1.0000 0.18711  0.74644  0.20369  Biso   1.000  H
  H157     1.0000 0.27113  0.72164  0.25549  Biso   1.000  H
  C123     1.0000 0.19498  0.63252  0.25788  Biso   1.000  C
  C124     1.0000 0.28210  0.77309  0.42112  Biso   1.000  C
  H158     1.0000 0.31569  0.95690  0.14509  Biso   1.000  H
  H159     1.0000 0.35390  0.95438  0.09241  Biso   1.000  H
  H160     1.0000 0.32862  0.92123  0.33888  Biso   1.000  H
  H161     1.0000 0.40621  0.97301  0.36651  Biso   1.000  H
  H162     1.0000 0.40461  0.86712  0.36091  Biso   1.000  H
  C125     1.0000 0.56218  0.85704  0.92388  Biso   1.000  C
  C126     1.0000 0.55491  0.86201  0.94000  Biso   1.000  C
  H163     1.0000 0.64322  0.89510  0.01089  Biso   1.000  H
  H164     1.0000 0.65631  0.89404  0.00861  Biso   1.000  H
  H165     1.0000 0.66923  0.83443  0.96500  Biso   1.000  H
  H166     1.0000 0.65511  0.82382  0.95260  Biso   1.000  H
  H167     1.0000 0.44402  0.72621  0.02188  Biso   1.000  H
  H168     1.0000 0.40819  0.71600  0.00591  Biso   1.000  H
  C127     1.0000 0.45590  0.84199  0.97941  Biso   1.000  C
  H169     1.0000 0.36999  0.75632  0.95561  Biso   1.000  H
  C128     1.0000 0.48613  0.76978  0.98932  Biso   1.000  C
  H170     1.0000 0.38201  0.79411  0.95240  Biso   1.000  H
  S10      1.0000 0.17445  0.67224  0.32555  Biso   1.000  S
  H171     1.0000 0.23261  0.58491  0.27701  Biso   1.000  H
  H172     1.0000 0.14943  0.60500  0.22262  Biso   1.000  H
  C129     1.0000 0.26912  0.68484  0.39561  Biso   1.000  C
  C130     1.0000 0.22307  0.77163  0.35277  Biso   1.000  C
  H173     1.0000 0.27348  0.71262  0.43408  Biso   1.000  H
  H174     1.0000 0.27640  0.81394  0.38269  Biso   1.000  H
  H175     1.0000 0.24449  0.78954  0.43802  Biso   1.000  H
  H176     1.0000 0.25629  0.81162  0.44160  Biso   1.000  H
  S11      1.0000 0.48078  0.79564  0.91433  Biso   1.000  S
  H177     1.0000 0.53559  0.81341  0.90588  Biso   1.000  H
  H178     1.0000 0.57062  0.84650  0.88192  Biso   1.000  H
  H179     1.0000 0.55089  0.92089  0.92439  Biso   1.000  H
  H180     1.0000 0.55719  0.91512  0.91340  Biso   1.000  H
  S12      1.0000 0.48233  0.88529  0.96702  Biso   1.000  S
  H181     1.0000 0.50152  0.85770  0.02111  Biso   1.000  H
  H182     1.0000 0.42633  0.89662  0.96152  Biso   1.000  H
  H183     1.0000 0.53050  0.75380  0.03199  Biso   1.000  H
  H184     1.0000 0.48049  0.72939  0.95079  Biso   1.000  H
  H185     1.0000 0.27540  0.64392  0.43398  Biso   1.000  H
  H186     1.0000 0.30612  0.66872  0.37792  Biso   1.000  H
  H187     1.0000 0.24412  0.78722  0.31969  Biso   1.000  H
  H188     1.0000 0.18710  0.81851  0.34992  Biso   1.000  H
  C131     1.0000 0.21794  0.72687  0.57892  Biso   1.000  C
  O25      1.0000 0.14669  0.71673  0.52499  Biso   1.000  O
  C132     1.0000 0.23089  0.81520  0.60438  Biso   1.000  C
  H189     1.0000 0.22361  0.68610  0.61729  Biso   1.000  H
  H190     1.0000 0.25549  0.71050  0.56201  Biso   1.000  H
  H191     1.0000 0.25554  0.71050  0.56201  Biso   1.000  H
  C133     1.0000 0.27689  0.72840  0.64721  Biso   1.000  C
  H192     1.0000 0.24372  0.68842  0.55838  Biso   1.000  H
  H193     1.0000 0.22653  0.78741  0.56590  Biso   1.000  H
  C134     1.0000 0.21789  0.72687  0.57892  Biso   1.000  C
  C135     1.0000 0.13164  0.66070  0.48381  Biso   1.000  C
  S13      1.0000 0.32556  0.82773  0.67443  Biso   1.000  S
  H194     1.0000 0.22461  0.85611  0.56600  Biso   1.000  H
  H195     1.0000 0.19391  0.83131  0.62211  Biso   1.000  H
  H196     1.0000 0.25589  0.71282  0.68029  Biso   1.000  H
  H197     1.0000 0.31293  0.68152  0.65011  Biso   1.000  H
  H198     1.0000 0.16922  0.66561  0.46499  Biso   1.000  H
  H199     1.0000 0.14321  0.60493  0.51088  Biso   1.000  H
  C136     1.0000 0.06224  0.64299  0.42392  Biso   1.000  C
  H200     1.0000 0.15510  0.67622  0.45260  Biso   1.000  H
  H201     1.0000 0.15631  0.60599  0.50860  Biso   1.000  H
  C137     1.0000 0.05490  0.63802  0.43999  Biso   1.000  C
  C138     1.0000 0.30503  0.86752  0.74210  Biso   1.000  C
  H202     1.0000 0.07061  0.65347  0.38192  Biso   1.000  H
  S14      1.0000 0.98078  0.70440  0.41433  Biso   1.000  S
  H203     1.0000 0.05088  0.57907  0.42439  Biso   1.000  H
  H204     1.0000 0.05094  0.57907  0.42439  Biso   1.000  H
  H205     1.0000 0.03563  0.68663  0.40587  Biso   1.000  H
  H206     1.0000 0.05723  0.58491  0.41339  Biso   1.000  H
  S15      1.0000 0.98232  0.61468  0.46701  Biso   1.000  S
  C139     1.0000 0.27721  0.80313  0.77768  Biso   1.000  C
  H207     1.0000 0.26742  0.91512  0.72302  Biso   1.000  H
  H208     1.0000 0.35061  0.89503  0.77742  Biso   1.000  H
  C140     1.0000 0.95594  0.65798  0.47940  Biso   1.000  C
  C141     1.0000 0.98613  0.73019  0.48931  Biso   1.000  C
  H209     1.0000 0.98049  0.77057  0.45078  Biso   1.000  H
  H210     1.0000 0.00152  0.64233  0.52110  Biso   1.000  H
  H211     1.0000 0.92633  0.60341  0.46151  Biso   1.000  H
  H212     1.0000 0.31290  0.75360  0.79629  Biso   1.000  H
  H213     1.0000 0.22888  0.77840  0.74449  Biso   1.000  H
  O26      1.0000 0.26828  0.84610  0.83197  Biso   1.000  O
  H214     1.0000 0.22893  0.77840  0.74449  Biso   1.000  H
  C142     1.0000 0.91289  0.72230  0.49761  Biso   1.000  C
  C143     1.0000 0.91294  0.72230  0.49761  Biso   1.000  C
  C144     1.0000 0.91892  0.72130  0.49978  Biso   1.000  C
  H215     1.0000 0.03049  0.74624  0.53199  Biso   1.000  H
  C145     1.0000 0.23062  0.80160  0.86417  Biso   1.000  C
  O27      1.0000 0.88813  0.67588  0.54205  Biso   1.000  O
  H216     1.0000 0.86999  0.74372  0.45560  Biso   1.000  H
  H217     1.0000 0.94401  0.77382  0.52187  Biso   1.000  H
  H218     1.0000 0.87004  0.74372  0.45560  Biso   1.000  H
  H219     1.0000 0.90823  0.78403  0.50590  Biso   1.000  H
  H220     1.0000 0.88200  0.70592  0.45239  Biso   1.000  H
  C146     1.0000 0.20971  0.71328  0.85168  Biso   1.000  C
  C147     1.0000 0.21484  0.84902  0.91219  Biso   1.000  C
  C148     1.0000 0.84739  0.71958  0.57191  Biso   1.000  C
  C149     1.0000 0.84744  0.71958  0.57191  Biso   1.000  C
  H221     1.0000 0.22250  0.68112  0.82010  Biso   1.000  H
  C150     1.0000 0.17074  0.66998  0.88341  Biso   1.000  C
  C151     1.0000 0.17493  0.80830  0.94330  Biso   1.000  C
  C152     1.0000 0.23882  0.94563  0.92832  Biso   1.000  C
  C153     1.0000 0.82510  0.80830  0.55672  Biso   1.000  C
  C154     1.0000 0.82929  0.66998  0.61661  Biso   1.000  C
  C155     1.0000 0.82934  0.66998  0.61661  Biso   1.000  C
  C156     1.0000 0.14761  0.57483  0.86661  Biso   1.000  C
  C157     1.0000 0.15263  0.71958  0.92811  Biso   1.000  C
  H222     1.0000 0.16239  0.84040  0.97520  Biso   1.000  H
  H223     1.0000 0.16244  0.84040  0.97520  Biso   1.000  H
  H224     1.0000 0.28423  0.95584  0.92111  Biso   1.000  H
  H225     1.0000 0.25103  0.95803  0.97758  Biso   1.000  H
  C158     1.0000 0.17879  0.00809  0.88320  Biso   1.000  C
  C159     1.0000 0.17885  0.00809  0.88320  Biso   1.000  C
  C160     1.0000 0.78521  0.84902  0.58778  Biso   1.000  C
  H226     1.0000 0.83761  0.84040  0.52478  Biso   1.000  H
  C161     1.0000 0.79029  0.71328  0.64830  Biso   1.000  C
  C162     1.0000 0.85242  0.57483  0.63342  Biso   1.000  C
  H227     1.0000 0.18432  0.54313  0.85489  Biso   1.000  H
  H228     1.0000 0.14611  0.54559  0.90758  Biso   1.000  H
  C163     1.0000 0.07110  0.56992  0.80568  Biso   1.000  C
  O28      1.0000 0.11190  0.67588  0.95798  Biso   1.000  O
  C164     1.0000 0.17031  0.02858  0.81698  Biso   1.000  C
  C165     1.0000 0.12867  0.04469  0.90607  Biso   1.000  C
  C166     1.0000 0.12872  0.04469  0.90607  Biso   1.000  C
  C167     1.0000 0.76938  0.80160  0.63580  Biso   1.000  C
  C168     1.0000 0.76121  0.94563  0.57171  Biso   1.000  C
  C169     1.0000 0.76943  0.80160  0.63580  Biso   1.000  C
  H229     1.0000 0.77751  0.68112  0.67988  Biso   1.000  H
  H230     1.0000 0.81569  0.54313  0.64508  Biso   1.000  H
  H231     1.0000 0.85389  0.54559  0.59240  Biso   1.000  H
  C170     1.0000 0.92890  0.56992  0.69429  Biso   1.000  C
  C171     1.0000 0.00733  0.56999  0.81641  Biso   1.000  C
  C172     1.0000 0.06320  0.56992  0.73889  Biso   1.000  C
  C173     1.0000 0.08714  0.72230  0.00242  Biso   1.000  C
  C174     1.0000 0.08109  0.72130  0.00019  Biso   1.000  C
  C175     1.0000 0.11402  0.08574  0.77400  Biso   1.000  C
  H232     1.0000 0.20342  0.00338  0.80039  Biso   1.000  H
  O29      1.0000 0.13850  0.02148  0.97224  Biso   1.000  O
  C176     1.0000 0.07212  0.10099  0.86371  Biso   1.000  C
  O30      1.0000 0.73180  0.84610  0.66805  Biso   1.000  O
  H233     1.0000 0.71580  0.95584  0.57892  Biso   1.000  H
  H234     1.0000 0.74898  0.95803  0.52239  Biso   1.000  H
  H235     1.0000 0.74903  0.95803  0.52239  Biso   1.000  H
  C177     1.0000 0.82123  0.00809  0.61682  Biso   1.000  C
  C178     1.0000 0.93680  0.56992  0.76108  Biso   1.000  C
  C179     1.0000 0.99270  0.56999  0.68361  Biso   1.000  C
  H236     1.0000 0.01160  0.57012  0.86251  Biso   1.000  H
  O31      1.0000 0.12862  0.57171  0.72976  Biso   1.000  O
  H237     1.0000 0.05599  0.77382  0.97810  Biso   1.000  H
  H238     1.0000 0.09177  0.78403  0.99407  Biso   1.000  H
  H239     1.0000 0.13002  0.74372  0.04437  Biso   1.000  H
  C180     1.0000 0.04414  0.65798  0.02062  Biso   1.000  C
  C181     1.0000 0.01390  0.73019  0.01072  Biso   1.000  C
  H240     1.0000 0.11800  0.70592  0.04759  Biso   1.000  H
  O32      1.0000 0.10375  0.10868  0.70871  Biso   1.000  O
  C182     1.0000 0.06399  0.12188  0.79728  Biso   1.000  C
  C183     1.0000 0.08162  0.04250  0.99091  Biso   1.000  C
  H241     1.0000 0.03870  0.12539  0.88040  Biso   1.000  H
  C184     1.0000 0.72279  0.80313  0.72230  Biso   1.000  C
  C185     1.0000 0.82970  0.02858  0.68299  Biso   1.000  C
  C186     1.0000 0.87128  0.04469  0.59390  Biso   1.000  C
  C187     1.0000 0.87133  0.04469  0.59390  Biso   1.000  C
  O33      1.0000 0.87139  0.57171  0.77021  Biso   1.000  O
  H242     1.0000 0.98843  0.57012  0.63751  Biso   1.000  H
  C188     1.0000 0.12180  0.57808  0.66038  Biso   1.000  C
  H243     1.0000 0.99849  0.64233  0.97888  Biso   1.000  H
  S16      1.0000 0.01923  0.70440  0.08565  Biso   1.000  S
  H244     1.0000 0.07370  0.60341  0.03851  Biso   1.000  H
  H245     1.0000 0.96951  0.74624  0.96799  Biso   1.000  H
  S17      1.0000 0.01770  0.61468  0.03301  Biso   1.000  S
  H246     1.0000 0.01952  0.77057  0.04919  Biso   1.000  H
  C189     1.0000 0.14861  0.06558  0.68149  Biso   1.000  C
  C190     1.0000 0.00000  0.18003  0.74999  Biso   1.000  C
  H247     1.0000 0.07371  0.10682  0.98790  Biso   1.000  H
  H248     1.0000 0.03581  0.01273  0.95948  Biso   1.000  H
  H249     1.0000 0.09513  0.02288  0.03861  Biso   1.000  H
  H250     1.0000 0.68711  0.75360  0.70368  Biso   1.000  H
  C191     1.0000 0.69500  0.86752  0.75792  Biso   1.000  C
  H251     1.0000 0.77112  0.77840  0.75548  Biso   1.000  H
  C192     1.0000 0.88598  0.08574  0.72598  Biso   1.000  C
  H252     1.0000 0.79658  0.00338  0.69958  Biso   1.000  H
  H253     1.0000 0.79663  0.00338  0.69958  Biso   1.000  H
  O34      1.0000 0.86151  0.02148  0.52773  Biso   1.000  O
  C193     1.0000 0.92791  0.10099  0.63632  Biso   1.000  C
  C194     1.0000 0.87820  0.57808  0.83959  Biso   1.000  C
  H254     1.0000 0.09382  0.52702  0.63352  Biso   1.000  H
  H255     1.0000 0.09543  0.63292  0.63912  Biso   1.000  H
  H256     1.0000 0.17144  0.57881  0.66111  Biso   1.000  H
  C195     1.0000 0.93778  0.64299  0.07611  Biso   1.000  C
  C196     1.0000 0.93783  0.64299  0.07611  Biso   1.000  C
  C197     1.0000 0.94510  0.63802  0.05998  Biso   1.000  C
  H257     1.0000 0.96442  0.68663  0.09410  Biso   1.000  H
  H258     1.0000 0.13613  0.08759  0.63450  Biso   1.000  H
  H259     1.0000 0.20114  0.07778  0.71109  Biso   1.000  H
  H260     1.0000 0.13982  0.00159  0.67977  Biso   1.000  H
  C198     1.0000 0.93601  0.12188  0.70269  Biso   1.000  C
  H261     1.0000 0.98331  0.21842  0.77820  Biso   1.000  H
  H262     1.0000 0.01669  0.21842  0.72178  Biso   1.000  H
  S18      1.0000 0.67444  0.82773  0.82554  Biso   1.000  S
  H263     1.0000 0.73260  0.91512  0.77700  Biso   1.000  H
  H264     1.0000 0.64942  0.89503  0.72261  Biso   1.000  H
  O35      1.0000 0.89626  0.10868  0.79126  Biso   1.000  O
  C199     1.0000 0.91840  0.04250  0.50912  Biso   1.000  C
  H265     1.0000 0.96133  0.12539  0.61962  Biso   1.000  H
  H266     1.0000 0.90620  0.52702  0.86651  Biso   1.000  H
  H267     1.0000 0.90460  0.63292  0.86091  Biso   1.000  H
  H268     1.0000 0.82864  0.57881  0.83892  Biso   1.000  H
  H269     1.0000 0.92941  0.65347  0.11811  Biso   1.000  H
  H270     1.0000 0.94912  0.57907  0.07559  Biso   1.000  H
  C200     1.0000 0.86844  0.66070  0.01621  Biso   1.000  C
  H271     1.0000 0.94277  0.58491  0.08658  Biso   1.000  H
  C201     1.0000 0.76912  0.81520  0.89560  Biso   1.000  C
  C202     1.0000 0.72314  0.72840  0.85282  Biso   1.000  C
  C203     1.0000 0.85140  0.06558  0.81849  Biso   1.000  C
  H272     1.0000 0.90489  0.02288  0.46141  Biso   1.000  H
  H273     1.0000 0.92630  0.10682  0.51207  Biso   1.000  H
  H274     1.0000 0.96419  0.01273  0.54049  Biso   1.000  H
  H275     1.0000 0.90494  0.02288  0.46141  Biso   1.000  H
  O36      1.0000 0.85331  0.71673  0.97499  Biso   1.000  O
  H276     1.0000 0.85679  0.60493  0.98909  Biso   1.000  H
  H277     1.0000 0.84370  0.60599  0.99137  Biso   1.000  H
  H278     1.0000 0.83078  0.66561  0.03498  Biso   1.000  H
  H279     1.0000 0.83083  0.66561  0.03498  Biso   1.000  H
  H280     1.0000 0.84490  0.67622  0.04738  Biso   1.000  H
  H281     1.0000 0.77539  0.85611  0.93397  Biso   1.000  H
  H282     1.0000 0.80611  0.83131  0.87791  Biso   1.000  H
  C204     1.0000 0.78209  0.72687  0.92111  Biso   1.000  C
  C205     1.0000 0.78214  0.72687  0.92111  Biso   1.000  C
  H283     1.0000 0.77352  0.78741  0.93407  Biso   1.000  H
  H284     1.0000 0.77639  0.68610  0.88268  Biso   1.000  H
  H285     1.0000 0.74412  0.71282  0.81968  Biso   1.000  H
  H286     1.0000 0.68710  0.68152  0.84991  Biso   1.000  H
  H287     1.0000 0.79886  0.07778  0.78888  Biso   1.000  H
  H288     1.0000 0.86394  0.08759  0.86552  Biso   1.000  H
  H289     1.0000 0.79891  0.07778  0.78888  Biso   1.000  H
  H290     1.0000 0.86023  0.00159  0.82020  Biso   1.000  H
  H291     1.0000 0.74453  0.71050  0.93801  Biso   1.000  H
  H292     1.0000 0.75633  0.68842  0.94159  Biso   1.000  H
  C206     1.0000 0.72310  0.27160  0.35277  Biso   1.000  C
  S19      1.0000 0.67443  0.17227  0.32555  Biso   1.000  S
  C207     1.0000 0.76910  0.18480  0.39561  Biso   1.000  C
  C208     1.0000 0.78212  0.27313  0.42112  Biso   1.000  C
  H293     1.0000 0.77638  0.31390  0.38269  Biso   1.000  H
  H294     1.0000 0.77643  0.31390  0.38269  Biso   1.000  H
  H295     1.0000 0.74410  0.28718  0.31969  Biso   1.000  H
  H296     1.0000 0.68713  0.31848  0.34992  Biso   1.000  H
  C209     1.0000 0.69501  0.13248  0.25788  Biso   1.000  C
  H297     1.0000 0.77542  0.14389  0.43398  Biso   1.000  H
  H298     1.0000 0.80615  0.16869  0.37792  Biso   1.000  H
  H299     1.0000 0.77351  0.21259  0.43408  Biso   1.000  H
  O37      1.0000 0.85329  0.28327  0.47500  Biso   1.000  O
  H300     1.0000 0.74452  0.28950  0.43802  Biso   1.000  H
  H301     1.0000 0.75632  0.31158  0.44160  Biso   1.000  H
  C210     1.0000 0.72282  0.19687  0.22230  Biso   1.000  C
  H302     1.0000 0.64940  0.10503  0.22262  Biso   1.000  H
  H303     1.0000 0.73259  0.08488  0.27701  Biso   1.000  H
  H304     1.0000 0.73264  0.08488  0.27701  Biso   1.000  H
  C211     1.0000 0.86842  0.33930  0.51622  Biso   1.000  C
  O38      1.0000 0.73178  0.15390  0.16806  Biso   1.000  O
  H305     1.0000 0.68709  0.24640  0.20369  Biso   1.000  H
  H306     1.0000 0.77110  0.22160  0.25549  Biso   1.000  H
  H307     1.0000 0.83081  0.33439  0.53499  Biso   1.000  H
  C212     1.0000 0.93782  0.35701  0.57611  Biso   1.000  C
  H308     1.0000 0.85677  0.39513  0.48910  Biso   1.000  H
  H309     1.0000 0.85682  0.39513  0.48910  Biso   1.000  H
  H310     1.0000 0.84488  0.32378  0.54739  Biso   1.000  H
  H311     1.0000 0.84368  0.39401  0.49138  Biso   1.000  H
  C213     1.0000 0.94508  0.36198  0.55999  Biso   1.000  C
  C214     1.0000 0.76941  0.19840  0.13581  Biso   1.000  C
  H312     1.0000 0.94910  0.42093  0.57560  Biso   1.000  H
  H313     1.0000 0.92945  0.34653  0.61812  Biso   1.000  H
  H314     1.0000 0.96441  0.31337  0.59411  Biso   1.000  H
  H315     1.0000 0.94281  0.41509  0.58659  Biso   1.000  H
  S20      1.0000 0.01926  0.29560  0.58566  Biso   1.000  S
  S21      1.0000 0.01774  0.38532  0.53302  Biso   1.000  S
  C215     1.0000 0.78519  0.15098  0.08779  Biso   1.000  C
  C216     1.0000 0.79032  0.28672  0.14831  Biso   1.000  C
  C217     1.0000 0.04410  0.34202  0.52058  Biso   1.000  C
  C218     1.0000 0.01391  0.26981  0.51067  Biso   1.000  C
  H316     1.0000 0.01950  0.22943  0.54920  Biso   1.000  H
  H317     1.0000 0.99852  0.35773  0.47889  Biso   1.000  H
  H318     1.0000 0.07373  0.39659  0.53852  Biso   1.000  H
  C219     1.0000 0.82511  0.19170  0.05668  Biso   1.000  C
  C220     1.0000 0.76124  0.05437  0.07172  Biso   1.000  C
  H319     1.0000 0.77749  0.31888  0.17989  Biso   1.000  H
  C221     1.0000 0.82932  0.33002  0.11662  Biso   1.000  C
  C222     1.0000 0.08710  0.27770  0.50238  Biso   1.000  C
  C223     1.0000 0.08112  0.27870  0.50020  Biso   1.000  C
  H320     1.0000 0.96949  0.25383  0.46800  Biso   1.000  H
  C224     1.0000 0.84742  0.28042  0.07192  Biso   1.000  C
  H321     1.0000 0.83760  0.15960  0.02479  Biso   1.000  H
  H322     1.0000 0.74901  0.04197  0.02240  Biso   1.000  H
  C225     1.0000 0.82119  0.99191  0.11678  Biso   1.000  C
  H323     1.0000 0.71583  0.04423  0.07892  Biso   1.000  H
  C226     1.0000 0.85240  0.42517  0.13342  Biso   1.000  C
  C227     1.0000 0.85245  0.42517  0.13342  Biso   1.000  C
  O39      1.0000 0.11193  0.32412  0.45799  Biso   1.000  O
  H324     1.0000 0.13000  0.25628  0.54438  Biso   1.000  H
  H325     1.0000 0.05603  0.22618  0.47811  Biso   1.000  H
  H326     1.0000 0.09181  0.21603  0.49408  Biso   1.000  H
  H327     1.0000 0.11798  0.29408  0.54759  Biso   1.000  H
  O40      1.0000 0.88811  0.32412  0.04205  Biso   1.000  O
  C228     1.0000 0.87131  0.95531  0.09391  Biso   1.000  C
  C229     1.0000 0.82973  0.97142  0.18300  Biso   1.000  C
  H328     1.0000 0.85392  0.45441  0.09241  Biso   1.000  H
  H329     1.0000 0.81572  0.45693  0.14509  Biso   1.000  H
  C230     1.0000 0.92894  0.43008  0.19430  Biso   1.000  C
  C231     1.0000 0.15262  0.28042  0.42812  Biso   1.000  C
  C232     1.0000 0.91292  0.27770  0.99761  Biso   1.000  C
  C233     1.0000 0.91890  0.27870  0.99979  Biso   1.000  C
  C234     1.0000 0.88601  0.91433  0.22599  Biso   1.000  C
  H330     1.0000 0.79661  0.99662  0.19959  Biso   1.000  H
  C235     1.0000 0.92787  0.89901  0.13628  Biso   1.000  C
  O41      1.0000 0.86154  0.97852  0.02774  Biso   1.000  O
  C236     1.0000 0.92792  0.89901  0.13628  Biso   1.000  C
  C237     1.0000 0.99273  0.43001  0.18362  Biso   1.000  C
  C238     1.0000 0.93678  0.43008  0.26109  Biso   1.000  C
  C239     1.0000 0.93683  0.43008  0.26109  Biso   1.000  C
  C240     1.0000 0.17491  0.19170  0.44331  Biso   1.000  C
  C241     1.0000 0.17072  0.33002  0.38342  Biso   1.000  C
  H331     1.0000 0.94399  0.22618  0.02188  Biso   1.000  H
  C242     1.0000 0.95592  0.34202  0.97941  Biso   1.000  C
  H332     1.0000 0.87002  0.25628  0.95561  Biso   1.000  H
  C243     1.0000 0.98611  0.26981  0.98932  Biso   1.000  C
  H333     1.0000 0.88203  0.29408  0.95240  Biso   1.000  H
  H334     1.0000 0.90821  0.21603  0.00591  Biso   1.000  H
  O42      1.0000 0.89629  0.89132  0.29127  Biso   1.000  O
  C244     1.0000 0.93600  0.87812  0.20270  Biso   1.000  C
  C245     1.0000 0.91841  0.95750  0.00907  Biso   1.000  C
  H335     1.0000 0.96129  0.87461  0.11958  Biso   1.000  H
  H336     1.0000 0.98841  0.42988  0.13752  Biso   1.000  H
  C246     1.0000 0.06324  0.43008  0.23890  Biso   1.000  C
  O43      1.0000 0.87142  0.42829  0.27022  Biso   1.000  O
  C247     1.0000 0.00731  0.43001  0.31642  Biso   1.000  C
  H337     1.0000 0.16242  0.15960  0.47520  Biso   1.000  H
  C248     1.0000 0.21482  0.15098  0.41220  Biso   1.000  C
  C249     1.0000 0.14759  0.42517  0.36662  Biso   1.000  C
  C250     1.0000 0.14764  0.42517  0.36662  Biso   1.000  C
  C251     1.0000 0.20970  0.28672  0.35168  Biso   1.000  C
  H338     1.0000 0.92631  0.39659  0.96152  Biso   1.000  H
  S22      1.0000 0.98081  0.29560  0.91433  Biso   1.000  S
  H339     1.0000 0.00150  0.35773  0.02111  Biso   1.000  H
  S23      1.0000 0.98231  0.38532  0.96702  Biso   1.000  S
  H340     1.0000 0.98052  0.22943  0.95079  Biso   1.000  H
  H341     1.0000 0.03053  0.25383  0.03199  Biso   1.000  H
  C252     1.0000 0.85138  0.93442  0.31850  Biso   1.000  C
  C253     1.0000 0.85143  0.93442  0.31850  Biso   1.000  C
  C254     1.0000 0.00003  0.81997  0.25000  Biso   1.000  C
  H342     1.0000 0.90493  0.97712  0.96142  Biso   1.000  H
  H343     1.0000 0.92633  0.89318  0.01208  Biso   1.000  H
  H344     1.0000 0.96423  0.98727  0.04050  Biso   1.000  H
  O44      1.0000 0.12860  0.42829  0.22977  Biso   1.000  O
  C255     1.0000 0.07113  0.43008  0.30569  Biso   1.000  C
  C256     1.0000 0.87823  0.42192  0.33960  Biso   1.000  C
  H345     1.0000 0.01163  0.42988  0.36252  Biso   1.000  H
  C257     1.0000 0.23060  0.19840  0.36418  Biso   1.000  C
  C258     1.0000 0.23878  0.05437  0.42827  Biso   1.000  C
  C259     1.0000 0.23883  0.05437  0.42827  Biso   1.000  C
  H346     1.0000 0.18430  0.45693  0.35490  Biso   1.000  H
  H347     1.0000 0.14610  0.45441  0.40758  Biso   1.000  H
  H348     1.0000 0.22253  0.31888  0.32010  Biso   1.000  H
  C260     1.0000 0.06220  0.35701  0.92388  Biso   1.000  C
  C261     1.0000 0.05493  0.36198  0.94000  Biso   1.000  C
  H349     1.0000 0.03561  0.31337  0.90588  Biso   1.000  H
  H350     1.0000 0.86390  0.91241  0.36548  Biso   1.000  H
  H351     1.0000 0.79890  0.92222  0.28889  Biso   1.000  H
  H352     1.0000 0.86021  0.99841  0.32021  Biso   1.000  H
  H353     1.0000 0.98330  0.78158  0.27820  Biso   1.000  H
  H354     1.0000 0.01667  0.78158  0.22179  Biso   1.000  H
  C262     1.0000 0.06402  0.87812  0.29729  Biso   1.000  C
  H355     1.0000 0.01672  0.78158  0.22179  Biso   1.000  H
  C263     1.0000 0.12183  0.42192  0.16039  Biso   1.000  C
  H356     1.0000 0.82859  0.42119  0.33888  Biso   1.000  H
  H357     1.0000 0.90624  0.47298  0.36651  Biso   1.000  H
  H358     1.0000 0.90463  0.36708  0.36091  Biso   1.000  H
  O45      1.0000 0.26826  0.15390  0.33198  Biso   1.000  O
  C264     1.0000 0.17883  0.99191  0.38321  Biso   1.000  C
  H359     1.0000 0.28421  0.04423  0.42112  Biso   1.000  H
  H360     1.0000 0.25101  0.04197  0.47759  Biso   1.000  H
  C265     1.0000 0.13162  0.33930  0.98382  Biso   1.000  C
  H361     1.0000 0.07059  0.34653  0.88192  Biso   1.000  H
  H362     1.0000 0.05092  0.42093  0.92439  Biso   1.000  H
  H363     1.0000 0.07064  0.34653  0.88192  Biso   1.000  H
  H364     1.0000 0.05721  0.41509  0.91340  Biso   1.000  H
  C266     1.0000 0.11400  0.91433  0.27400  Biso   1.000  C
  C267     1.0000 0.07210  0.89901  0.36371  Biso   1.000  C
  H365     1.0000 0.17142  0.42119  0.16112  Biso   1.000  H
  H366     1.0000 0.09378  0.47298  0.13348  Biso   1.000  H
  H367     1.0000 0.09538  0.36708  0.13908  Biso   1.000  H
  H368     1.0000 0.09383  0.47298  0.13348  Biso   1.000  H
  C268     1.0000 0.27720  0.19687  0.27769  Biso   1.000  C
  C269     1.0000 0.17034  0.97142  0.31699  Biso   1.000  C
  C270     1.0000 0.12870  0.95531  0.40608  Biso   1.000  C
  H369     1.0000 0.16920  0.33439  0.96500  Biso   1.000  H
  H370     1.0000 0.15514  0.32378  0.95260  Biso   1.000  H
  O46      1.0000 0.14672  0.28327  0.02499  Biso   1.000  O
  H371     1.0000 0.14319  0.39513  0.01089  Biso   1.000  H
  H372     1.0000 0.15634  0.39401  0.00861  Biso   1.000  H
  O47      1.0000 0.10373  0.89132  0.20872  Biso   1.000  O
  H373     1.0000 0.03873  0.87461  0.38041  Biso   1.000  H
  H374     1.0000 0.31293  0.24640  0.29630  Biso   1.000  H
  H375     1.0000 0.22892  0.22160  0.24450  Biso   1.000  H
  C271     1.0000 0.30501  0.13248  0.24211  Biso   1.000  C
  H376     1.0000 0.20341  0.99662  0.30040  Biso   1.000  H
  O48      1.0000 0.13848  0.97852  0.47225  Biso   1.000  O
  O49      1.0000 0.13853  0.97852  0.47225  Biso   1.000  O
  C272     1.0000 0.21792  0.27313  0.07892  Biso   1.000  C
  C273     1.0000 0.14859  0.93442  0.18149  Biso   1.000  C
  C274     1.0000 0.14864  0.93442  0.18149  Biso   1.000  C
  S24      1.0000 0.32559  0.17227  0.17444  Biso   1.000  S
  H377     1.0000 0.26738  0.08488  0.22298  Biso   1.000  H
  H378     1.0000 0.35061  0.10503  0.27738  Biso   1.000  H
  H379     1.0000 0.26743  0.08488  0.22298  Biso   1.000  H
  C275     1.0000 0.08160  0.95750  0.49092  Biso   1.000  C
  C276     1.0000 0.23092  0.18480  0.10439  Biso   1.000  C
  H380     1.0000 0.22359  0.31390  0.11730  Biso   1.000  H
  H381     1.0000 0.25553  0.28950  0.06202  Biso   1.000  H
  H382     1.0000 0.22364  0.31390  0.11730  Biso   1.000  H
  C277     1.0000 0.27692  0.27160  0.14722  Biso   1.000  C
  H383     1.0000 0.24370  0.31158  0.05839  Biso   1.000  H
  H384     1.0000 0.22651  0.21259  0.06591  Biso   1.000  H
  H385     1.0000 0.13612  0.91241  0.13451  Biso   1.000  H
  H386     1.0000 0.20112  0.92222  0.21110  Biso   1.000  H
  H387     1.0000 0.13981  0.99841  0.17978  Biso   1.000  H
  H388     1.0000 0.09511  0.97712  0.53862  Biso   1.000  H
  H389     1.0000 0.07369  0.89318  0.48791  Biso   1.000  H
  H390     1.0000 0.03579  0.98727  0.45949  Biso   1.000  H
  H391     1.0000 0.07374  0.89318  0.48791  Biso   1.000  H
  H392     1.0000 0.19390  0.16869  0.12212  Biso   1.000  H
  H393     1.0000 0.22465  0.14389  0.06601  Biso   1.000  H
  H394     1.0000 0.19395  0.16869  0.12212  Biso   1.000  H
  H395     1.0000 0.25592  0.28718  0.18030  Biso   1.000  H
  H396     1.0000 0.31291  0.31848  0.15012  Biso   1.000  H
