data_image0
_cell_length_a       26.102
_cell_length_b       26.791
_cell_length_c       13.13
_cell_angle_alpha    90
_cell_angle_beta     90
_cell_angle_gamma    90

_symmetry_space_group_name_H-M    "P 1"
_symmetry_int_tables_number       1

loop_
  _symmetry_equiv_pos_as_xyz
  'x, y, z'

loop_
  _atom_site_label
  _atom_site_occupancy
  _atom_site_fract_x
  _atom_site_fract_y
  _atom_site_fract_z
  _atom_site_thermal_displace_type
  _atom_site_B_iso_or_equiv
  _atom_site_type_symbol
  O1       1.0000 0.14478  0.85760  0.60876  Biso   1.000  O
  C1       1.0000 0.14968  0.85350  0.51889  Biso   1.000  C
  N1       1.0000 0.18190  0.88052  0.45849  Biso   1.000  N
  N2       1.0000 0.18190  0.88048  0.45849  Biso   1.000  N
  N3       1.0000 0.12217  0.82069  0.45758  Biso   1.000  N
  N4       1.0000 0.18186  0.88052  0.45849  Biso   1.000  N
  N5       1.0000 0.18186  0.88048  0.45849  Biso   1.000  N
  C2       1.0000 0.14148  0.82151  0.35423  Biso   1.000  C
  C3       1.0000 0.09720  0.77847  0.49878  Biso   1.000  C
  C4       1.0000 0.14148  0.82147  0.35423  Biso   1.000  C
  C5       1.0000 0.22420  0.90851  0.50023  Biso   1.000  C
  C6       1.0000 0.18221  0.86298  0.35362  Biso   1.000  C
  C7       1.0000 0.22420  0.90848  0.50023  Biso   1.000  C
  C8       1.0000 0.22416  0.90851  0.50023  Biso   1.000  C
  C9       1.0000 0.18217  0.86298  0.35362  Biso   1.000  C
  C10      1.0000 0.22416  0.90848  0.50023  Biso   1.000  C
  H1       1.0000 0.11279  0.74850  0.47152  Biso   1.000  H
  H2       1.0000 0.10191  0.77821  0.57212  Biso   1.000  H
  N6       1.0000 0.04218  0.77832  0.47563  Biso   1.000  N
  H3       1.0000 0.10191  0.77817  0.57212  Biso   1.000  H
  N7       1.0000 0.04218  0.77828  0.47563  Biso   1.000  N
  H4       1.0000 0.10187  0.77821  0.57212  Biso   1.000  H
  H5       1.0000 0.10187  0.77817  0.57212  Biso   1.000  H
  N8       1.0000 0.10509  0.83812  0.28142  Biso   1.000  N
  H6       1.0000 0.15631  0.78918  0.33488  Biso   1.000  H
  N9       1.0000 0.10509  0.83808  0.28142  Biso   1.000  N
  H7       1.0000 0.15627  0.78918  0.33488  Biso   1.000  H
  N10      1.0000 0.16248  0.89900  0.28180  Biso   1.000  N
  H8       1.0000 0.21600  0.85040  0.33343  Biso   1.000  H
  H9       1.0000 0.21596  0.85040  0.33343  Biso   1.000  H
  H10      1.0000 0.25588  0.89459  0.47433  Biso   1.000  H
  N11      1.0000 0.22289  0.96088  0.47708  Biso   1.000  N
  H11      1.0000 0.22431  0.90441  0.57357  Biso   1.000  H
  H12      1.0000 0.22431  0.90437  0.57357  Biso   1.000  H
  H13      1.0000 0.22427  0.90441  0.57357  Biso   1.000  H
  H14      1.0000 0.22427  0.90437  0.57357  Biso   1.000  H
  C11      1.0000 0.00521  0.77959  0.55187  Biso   1.000  C
  C12      1.0000 0.02130  0.76208  0.38180  Biso   1.000  C
  C13      1.0000 0.00517  0.77959  0.55187  Biso   1.000  C
  C14      1.0000 0.02126  0.76208  0.38180  Biso   1.000  C
  C15      1.0000 0.12068  0.88130  0.23206  Biso   1.000  C
  C16      1.0000 0.12068  0.88127  0.23206  Biso   1.000  C
  C17      1.0000 0.06724  0.80512  0.23633  Biso   1.000  C
  C18      1.0000 0.06724  0.80508  0.23633  Biso   1.000  C
  C19      1.0000 0.19439  0.93599  0.23938  Biso   1.000  C
  C20      1.0000 0.23879  0.98190  0.38347  Biso   1.000  C
  C21      1.0000 0.21968  0.99787  0.55301  Biso   1.000  C
  N12      1.0000 0.95920  0.77041  0.50868  Biso   1.000  N
  N13      1.0000 0.95920  0.77037  0.50868  Biso   1.000  N
  O2       1.0000 0.01280  0.78888  0.64151  Biso   1.000  O
  O3       1.0000 0.01280  0.78885  0.64151  Biso   1.000  O
  C22      1.0000 0.96314  0.75578  0.40152  Biso   1.000  C
  C23      1.0000 0.96318  0.75578  0.40152  Biso   1.000  C
  H15      1.0000 0.03670  0.73039  0.36017  Biso   1.000  H
  N14      1.0000 0.02310  0.79870  0.29992  Biso   1.000  N
  H16      1.0000 0.03666  0.73039  0.36017  Biso   1.000  H
  N15      1.0000 0.02306  0.79870  0.29992  Biso   1.000  N
  H17      1.0000 0.05651  0.81871  0.17113  Biso   1.000  H
  H18      1.0000 0.05651  0.81867  0.17113  Biso   1.000  H
  H19      1.0000 0.05647  0.81871  0.17113  Biso   1.000  H
  H20      1.0000 0.08268  0.77280  0.22376  Biso   1.000  H
  H21      1.0000 0.05647  0.81867  0.17113  Biso   1.000  H
  O4       1.0000 0.09777  0.90127  0.16268  Biso   1.000  O
  H22      1.0000 0.18006  0.94629  0.17449  Biso   1.000  H
  N16      1.0000 0.20067  0.97992  0.30297  Biso   1.000  N
  H23      1.0000 0.22776  0.92158  0.22643  Biso   1.000  H
  N17      1.0000 0.20067  0.97988  0.30297  Biso   1.000  N
  H24      1.0000 0.27136  0.96749  0.36093  Biso   1.000  H
  C24      1.0000 0.24416  0.03889  0.40427  Biso   1.000  C
  O5       1.0000 0.21056  0.98906  0.64318  Biso   1.000  O
  N18      1.0000 0.22910  0.04192  0.51051  Biso   1.000  N
  N19      1.0000 0.22910  0.04188  0.51051  Biso   1.000  N
  N20      1.0000 0.22906  0.04192  0.51051  Biso   1.000  N
  N21      1.0000 0.22906  0.04188  0.51051  Biso   1.000  N
  C25      1.0000 0.91437  0.76171  0.57091  Biso   1.000  C
  C26      1.0000 0.91437  0.76167  0.57091  Biso   1.000  C
  N22      1.0000 0.94027  0.79071  0.33206  Biso   1.000  N
  N23      1.0000 0.94023  0.79071  0.33206  Biso   1.000  N
  H25      1.0000 0.95150  0.72159  0.38972  Biso   1.000  H
  C27      1.0000 0.97445  0.81270  0.26794  Biso   1.000  C
  C28      1.0000 0.97448  0.81270  0.26794  Biso   1.000  C
  C29      1.0000 0.18600  0.02740  0.27136  Biso   1.000  C
  C30      1.0000 0.18596  0.02740  0.27136  Biso   1.000  C
  H26      1.0000 0.27940  0.05061  0.39353  Biso   1.000  H
  N24      1.0000 0.20899  0.06084  0.33321  Biso   1.000  N
  H27      1.0000 0.27937  0.05061  0.39353  Biso   1.000  H
  C31      1.0000 0.23879  0.08551  0.57220  Biso   1.000  C
  H28      1.0000 0.89966  0.72972  0.55202  Biso   1.000  H
  H29      1.0000 0.92487  0.75940  0.64158  Biso   1.000  H
  H30      1.0000 0.89966  0.72969  0.55202  Biso   1.000  H
  H31      1.0000 0.89970  0.72972  0.55202  Biso   1.000  H
  N25      1.0000 0.87568  0.79922  0.56222  Biso   1.000  N
  H32      1.0000 0.89970  0.72969  0.55202  Biso   1.000  H
  C32      1.0000 0.88556  0.79202  0.31226  Biso   1.000  C
  C33      1.0000 0.88556  0.79198  0.31226  Biso   1.000  C
  O6       1.0000 0.96487  0.83812  0.19650  Biso   1.000  O
  O7       1.0000 0.96487  0.83808  0.19650  Biso   1.000  O
  O8       1.0000 0.15826  0.03673  0.20076  Biso   1.000  O
  C34      1.0000 0.20657  0.11381  0.31401  Biso   1.000  C
  C35      1.0000 0.20657  0.11377  0.31401  Biso   1.000  C
  H33      1.0000 0.24090  0.07521  0.64288  Biso   1.000  H
  H34      1.0000 0.27189  0.09921  0.55339  Biso   1.000  H
  N26      1.0000 0.20129  0.12411  0.56413  Biso   1.000  N
  H35      1.0000 0.27189  0.09918  0.55339  Biso   1.000  H
  N27      1.0000 0.20129  0.12407  0.56413  Biso   1.000  N
  H36      1.0000 0.27186  0.09921  0.55339  Biso   1.000  H
  N28      1.0000 0.20133  0.12411  0.56413  Biso   1.000  N
  H37      1.0000 0.27186  0.09918  0.55339  Biso   1.000  H
  N29      1.0000 0.20133  0.12407  0.56413  Biso   1.000  N
  C36      1.0000 0.86369  0.83039  0.64052  Biso   1.000  C
  C37      1.0000 0.83817  0.80139  0.47989  Biso   1.000  C
  N30      1.0000 0.85737  0.82181  0.38698  Biso   1.000  N
  H38      1.0000 0.87966  0.80568  0.24494  Biso   1.000  H
  H39      1.0000 0.87239  0.75809  0.31287  Biso   1.000  H
  N31      1.0000 0.85737  0.82177  0.38698  Biso   1.000  N
  H40      1.0000 0.24128  0.12691  0.31203  Biso   1.000  H
  N32      1.0000 0.17780  0.14128  0.38842  Biso   1.000  N
  H41      1.0000 0.19140  0.11922  0.24752  Biso   1.000  H
  N33      1.0000 0.17780  0.14132  0.38842  Biso   1.000  N
  N34      1.0000 0.17776  0.14128  0.38842  Biso   1.000  N
  H42      1.0000 0.19136  0.11922  0.24752  Biso   1.000  H
  N35      1.0000 0.17776  0.14132  0.38842  Biso   1.000  N
  C38      1.0000 0.20048  0.16039  0.48210  Biso   1.000  C
  C39      1.0000 0.16957  0.13639  0.64212  Biso   1.000  C
  C40      1.0000 0.16957  0.13643  0.64212  Biso   1.000  C
  N36      1.0000 0.82216  0.85872  0.61158  Biso   1.000  N
  N37      1.0000 0.82216  0.85868  0.61158  Biso   1.000  N
  O9       1.0000 0.88637  0.83349  0.71980  Biso   1.000  O
  N38      1.0000 0.82220  0.85872  0.61158  Biso   1.000  N
  N39      1.0000 0.82220  0.85868  0.61158  Biso   1.000  N
  C41      1.0000 0.79952  0.83961  0.51790  Biso   1.000  C
  H43      1.0000 0.82212  0.76891  0.46870  Biso   1.000  H
  C42      1.0000 0.79952  0.83957  0.51790  Biso   1.000  C
  H44      1.0000 0.82212  0.76888  0.46870  Biso   1.000  H
  C43      1.0000 0.79948  0.83961  0.51790  Biso   1.000  C
  H45      1.0000 0.82208  0.76891  0.46870  Biso   1.000  H
  C44      1.0000 0.79948  0.83957  0.51790  Biso   1.000  C
  H46      1.0000 0.82208  0.76888  0.46870  Biso   1.000  H
  C45      1.0000 0.83040  0.86361  0.35788  Biso   1.000  C
  C46      1.0000 0.83040  0.86357  0.35788  Biso   1.000  C
  C47      1.0000 0.13627  0.16961  0.35948  Biso   1.000  C
  C48      1.0000 0.13627  0.16957  0.35948  Biso   1.000  C
  C49      1.0000 0.16179  0.19861  0.52011  Biso   1.000  C
  C50      1.0000 0.16179  0.19857  0.52011  Biso   1.000  C
  H47      1.0000 0.23427  0.17528  0.47037  Biso   1.000  H
  O10      1.0000 0.16619  0.11448  0.72338  Biso   1.000  O
  N40      1.0000 0.14259  0.17823  0.61302  Biso   1.000  N
  C51      1.0000 0.79339  0.88619  0.68599  Biso   1.000  C
  N41      1.0000 0.79871  0.87589  0.43587  Biso   1.000  N
  H48      1.0000 0.76569  0.82468  0.52963  Biso   1.000  H
  N42      1.0000 0.79867  0.87589  0.43587  Biso   1.000  N
  O11      1.0000 0.83381  0.88552  0.27662  Biso   1.000  O
  O12      1.0000 0.83381  0.88548  0.27662  Biso   1.000  O
  O13      1.0000 0.83377  0.88552  0.27662  Biso   1.000  O
  O14      1.0000 0.83377  0.88548  0.27662  Biso   1.000  O
  N43      1.0000 0.12428  0.20078  0.43778  Biso   1.000  N
  N44      1.0000 0.12428  0.20074  0.43778  Biso   1.000  N
  O15      1.0000 0.11359  0.16647  0.28020  Biso   1.000  O
  H49      1.0000 0.17788  0.23109  0.53130  Biso   1.000  H
  C52      1.0000 0.11444  0.20802  0.68766  Biso   1.000  C
  H50      1.0000 0.75868  0.87309  0.68797  Biso   1.000  H
  N45      1.0000 0.79097  0.93916  0.66679  Biso   1.000  N
  H51      1.0000 0.80860  0.88078  0.75248  Biso   1.000  H
  C53      1.0000 0.76121  0.91449  0.42780  Biso   1.000  C
  C54      1.0000 0.76117  0.91449  0.42780  Biso   1.000  C
  C55      1.0000 0.08559  0.23829  0.42909  Biso   1.000  C
  H52      1.0000 0.12030  0.19428  0.75506  Biso   1.000  H
  N46      1.0000 0.05973  0.20929  0.66786  Biso   1.000  N
  N47      1.0000 0.05973  0.20925  0.66786  Biso   1.000  N
  H53      1.0000 0.12758  0.24191  0.68713  Biso   1.000  H
  C56      1.0000 0.75577  0.96107  0.59566  Biso   1.000  C
  C57      1.0000 0.81400  0.97257  0.72856  Biso   1.000  C
  C58      1.0000 0.75580  0.96107  0.59566  Biso   1.000  C
  H54      1.0000 0.75910  0.92479  0.35712  Biso   1.000  H
  H55      1.0000 0.72811  0.90079  0.44661  Biso   1.000  H
  N48      1.0000 0.77090  0.95808  0.48949  Biso   1.000  N
  H56      1.0000 0.07509  0.24060  0.35842  Biso   1.000  H
  H57      1.0000 0.10026  0.27028  0.44798  Biso   1.000  H
  N49      1.0000 0.04076  0.22959  0.49132  Biso   1.000  N
  C59      1.0000 0.03682  0.24419  0.59848  Biso   1.000  C
  C60      1.0000 0.02552  0.18730  0.73206  Biso   1.000  C
  C61      1.0000 0.02552  0.18726  0.73206  Biso   1.000  C
  C62      1.0000 0.02548  0.18730  0.73206  Biso   1.000  C
  C63      1.0000 0.02548  0.18726  0.73206  Biso   1.000  C
  O16      1.0000 0.84170  0.96331  0.79916  Biso   1.000  O
  O17      1.0000 0.84170  0.96327  0.79916  Biso   1.000  O
  N50      1.0000 0.79929  0.02008  0.69703  Biso   1.000  N
  H58      1.0000 0.72060  0.94939  0.60647  Biso   1.000  H
  C64      1.0000 0.76121  0.01810  0.61653  Biso   1.000  C
  C65      1.0000 0.76117  0.01810  0.61653  Biso   1.000  C
  C66      1.0000 0.78029  0.00213  0.44699  Biso   1.000  C
  C67      1.0000 0.99475  0.22041  0.44813  Biso   1.000  C
  C68      1.0000 0.99479  0.22041  0.44813  Biso   1.000  C
  C69      1.0000 0.97866  0.23788  0.61820  Biso   1.000  C
  C70      1.0000 0.97870  0.23788  0.61820  Biso   1.000  C
  H59      1.0000 0.04850  0.27841  0.61028  Biso   1.000  H
  H60      1.0000 0.04846  0.27841  0.61028  Biso   1.000  H
  N51      1.0000 0.97686  0.20126  0.70008  Biso   1.000  N
  N52      1.0000 0.97690  0.20126  0.70008  Biso   1.000  N
  O18      1.0000 0.03509  0.16188  0.80350  Biso   1.000  O
  C71      1.0000 0.80557  0.06401  0.76062  Biso   1.000  C
  C72      1.0000 0.80557  0.06398  0.76062  Biso   1.000  C
  H61      1.0000 0.72860  0.03247  0.63907  Biso   1.000  H
  N53      1.0000 0.77711  0.03908  0.52292  Biso   1.000  N
  N54      1.0000 0.77707  0.03908  0.52292  Biso   1.000  N
  O19      1.0000 0.78936  0.01090  0.35682  Biso   1.000  O
  O20      1.0000 0.78940  0.01090  0.35682  Biso   1.000  O
  N55      1.0000 0.95778  0.22168  0.52437  Biso   1.000  N
  O21      1.0000 0.98717  0.21115  0.35849  Biso   1.000  O
  H62      1.0000 0.96326  0.26961  0.63983  Biso   1.000  H
  H63      1.0000 0.96326  0.26957  0.63983  Biso   1.000  H
  H64      1.0000 0.96330  0.26961  0.63983  Biso   1.000  H
  H65      1.0000 0.96330  0.26957  0.63983  Biso   1.000  H
  C73      1.0000 0.93276  0.19492  0.76367  Biso   1.000  C
  H66      1.0000 0.81990  0.05371  0.82551  Biso   1.000  H
  H67      1.0000 0.77216  0.07838  0.77357  Biso   1.000  H
  N56      1.0000 0.83752  0.10100  0.71820  Biso   1.000  N
  H68      1.0000 0.81990  0.05367  0.82551  Biso   1.000  H
  H69      1.0000 0.77216  0.07842  0.77357  Biso   1.000  H
  N57      1.0000 0.83752  0.10097  0.71820  Biso   1.000  N
  H70      1.0000 0.77220  0.07838  0.77357  Biso   1.000  H
  N58      1.0000 0.83748  0.10100  0.71820  Biso   1.000  N
  H71      1.0000 0.77220  0.07842  0.77357  Biso   1.000  H
  N59      1.0000 0.83748  0.10097  0.71820  Biso   1.000  N
  C74      1.0000 0.77580  0.09149  0.49977  Biso   1.000  C
  C75      1.0000 0.90277  0.22149  0.50122  Biso   1.000  C
  H72      1.0000 0.94349  0.18129  0.82887  Biso   1.000  H
  H73      1.0000 0.91725  0.22720  0.77616  Biso   1.000  H
  N60      1.0000 0.89487  0.16188  0.71858  Biso   1.000  N
  H74      1.0000 0.91729  0.22720  0.77616  Biso   1.000  H
  C76      1.0000 0.87928  0.11870  0.76786  Biso   1.000  C
  C77      1.0000 0.87928  0.11873  0.76786  Biso   1.000  C
  C78      1.0000 0.81779  0.13699  0.64638  Biso   1.000  C
  C79      1.0000 0.81779  0.13702  0.64638  Biso   1.000  C
  H75      1.0000 0.77569  0.09559  0.42643  Biso   1.000  H
  H76      1.0000 0.74408  0.10537  0.52567  Biso   1.000  H
  N61      1.0000 0.81810  0.11952  0.54151  Biso   1.000  N
  H77      1.0000 0.88717  0.25150  0.52848  Biso   1.000  H
  H78      1.0000 0.88717  0.25147  0.52848  Biso   1.000  H
  N62      1.0000 0.87779  0.17928  0.54242  Biso   1.000  N
  H79      1.0000 0.89809  0.22179  0.42788  Biso   1.000  H
  C80      1.0000 0.85848  0.17849  0.64577  Biso   1.000  C
  O22      1.0000 0.90219  0.09869  0.83732  Biso   1.000  O
  H80      1.0000 0.78396  0.14960  0.66657  Biso   1.000  H
  H81      1.0000 0.78396  0.14957  0.66657  Biso   1.000  H
  H82      1.0000 0.78400  0.14960  0.66657  Biso   1.000  H
  H83      1.0000 0.78400  0.14957  0.66657  Biso   1.000  H
  C81      1.0000 0.85028  0.14650  0.48111  Biso   1.000  C
  H84      1.0000 0.84365  0.21082  0.66512  Biso   1.000  H
  H85      1.0000 0.84369  0.21082  0.66512  Biso   1.000  H
  O23      1.0000 0.85518  0.14240  0.39117  Biso   1.000  O
  C82      1.0000 0.35848  0.82151  0.85423  Biso   1.000  C
  C83      1.0000 0.35848  0.82147  0.85423  Biso   1.000  C
  N63      1.0000 0.33748  0.89900  0.78180  Biso   1.000  N
  N64      1.0000 0.31810  0.88052  0.95849  Biso   1.000  N
  H86      1.0000 0.28400  0.85040  0.83336  Biso   1.000  H
  N65      1.0000 0.31810  0.88048  0.95849  Biso   1.000  N
  N66      1.0000 0.39487  0.83812  0.78142  Biso   1.000  N
  N67      1.0000 0.39487  0.83808  0.78142  Biso   1.000  N
  N68      1.0000 0.37779  0.82069  0.95758  Biso   1.000  N
  C84      1.0000 0.31779  0.86301  0.85362  Biso   1.000  C
  H87      1.0000 0.34369  0.78918  0.83488  Biso   1.000  H
  C85      1.0000 0.37928  0.88130  0.73206  Biso   1.000  C
  C86      1.0000 0.37928  0.88127  0.73206  Biso   1.000  C
  C87      1.0000 0.30561  0.93599  0.73938  Biso   1.000  C
  C88      1.0000 0.35028  0.85350  0.01889  Biso   1.000  C
  C89      1.0000 0.27580  0.90851  0.00023  Biso   1.000  C
  C90      1.0000 0.27580  0.90848  0.00023  Biso   1.000  C
  C91      1.0000 0.43280  0.80512  0.73633  Biso   1.000  C
  C92      1.0000 0.43280  0.80508  0.73633  Biso   1.000  C
  C93      1.0000 0.40280  0.77847  0.99878  Biso   1.000  C
  O24      1.0000 0.40219  0.90127  0.66268  Biso   1.000  O
  H88      1.0000 0.31990  0.94629  0.67449  Biso   1.000  H
  N69      1.0000 0.29929  0.97992  0.80297  Biso   1.000  N
  H89      1.0000 0.27220  0.92158  0.72643  Biso   1.000  H
  N70      1.0000 0.29929  0.97988  0.80297  Biso   1.000  N
  O25      1.0000 0.35518  0.85760  0.10876  Biso   1.000  O
  N71      1.0000 0.27711  0.96088  0.97708  Biso   1.000  N
  H90      1.0000 0.24408  0.89459  0.97426  Biso   1.000  H
  H91      1.0000 0.27569  0.90441  0.07357  Biso   1.000  H
  H92      1.0000 0.27569  0.90437  0.07357  Biso   1.000  H
  N72      1.0000 0.47690  0.79870  0.79992  Biso   1.000  N
  H93      1.0000 0.44349  0.81871  0.67106  Biso   1.000  H
  H94      1.0000 0.41729  0.77280  0.72376  Biso   1.000  H
  H95      1.0000 0.44349  0.81867  0.67106  Biso   1.000  H
  N73      1.0000 0.45778  0.77832  0.97563  Biso   1.000  N
  N74      1.0000 0.45778  0.77828  0.97563  Biso   1.000  N
  H96      1.0000 0.38721  0.74850  0.97152  Biso   1.000  H
  H97      1.0000 0.39809  0.77821  0.07212  Biso   1.000  H
  H98      1.0000 0.39809  0.77817  0.07212  Biso   1.000  H
  C94      1.0000 0.26121  0.98190  0.88347  Biso   1.000  C
  C95      1.0000 0.31400  0.02740  0.77136  Biso   1.000  C
  C96      1.0000 0.28029  0.99787  0.05301  Biso   1.000  C
  C97      1.0000 0.52548  0.81270  0.76786  Biso   1.000  C
  C98      1.0000 0.47870  0.76208  0.88180  Biso   1.000  C
  C99      1.0000 0.49479  0.77959  0.05187  Biso   1.000  C
  H99      1.0000 0.22860  0.96749  0.86093  Biso   1.000  H
  C100     1.0000 0.25580  0.03889  0.90427  Biso   1.000  C
  N75      1.0000 0.29101  0.06084  0.83321  Biso   1.000  N
  O26      1.0000 0.34170  0.03673  0.70076  Biso   1.000  O
  O27      1.0000 0.28940  0.98906  0.14318  Biso   1.000  O
  N76      1.0000 0.27090  0.04192  0.01051  Biso   1.000  N
  N77      1.0000 0.27090  0.04188  0.01051  Biso   1.000  N
  N78      1.0000 0.55973  0.79071  0.83206  Biso   1.000  N
  O28      1.0000 0.53509  0.83812  0.69650  Biso   1.000  O
  O29      1.0000 0.53509  0.83808  0.69650  Biso   1.000  O
  H100     1.0000 0.46330  0.73039  0.86017  Biso   1.000  H
  C101     1.0000 0.53678  0.75578  0.90152  Biso   1.000  C
  N79      1.0000 0.54080  0.77041  0.00868  Biso   1.000  N
  N80      1.0000 0.54080  0.77037  0.00868  Biso   1.000  N
  O30      1.0000 0.48717  0.78888  0.14151  Biso   1.000  O
  O31      1.0000 0.48717  0.78885  0.14151  Biso   1.000  O
  H101     1.0000 0.22060  0.05061  0.89353  Biso   1.000  H
  C102     1.0000 0.29339  0.11381  0.81401  Biso   1.000  C
  C103     1.0000 0.29339  0.11377  0.81401  Biso   1.000  C
  C104     1.0000 0.26121  0.08551  0.07220  Biso   1.000  C
  C105     1.0000 0.61440  0.79202  0.81234  Biso   1.000  C
  C106     1.0000 0.61440  0.79202  0.81226  Biso   1.000  C
  C107     1.0000 0.61440  0.79198  0.81234  Biso   1.000  C
  C108     1.0000 0.61440  0.79198  0.81226  Biso   1.000  C
  H102     1.0000 0.54850  0.72159  0.88972  Biso   1.000  H
  C109     1.0000 0.58559  0.76171  0.07091  Biso   1.000  C
  C110     1.0000 0.58559  0.76167  0.07091  Biso   1.000  C
  H103     1.0000 0.25868  0.12691  0.81203  Biso   1.000  H
  N81      1.0000 0.32220  0.14128  0.88842  Biso   1.000  N
  H104     1.0000 0.25868  0.12691  0.81196  Biso   1.000  H
  H105     1.0000 0.30860  0.11922  0.74752  Biso   1.000  H
  N82      1.0000 0.32220  0.14132  0.88842  Biso   1.000  N
  H106     1.0000 0.25910  0.07521  0.14288  Biso   1.000  H
  H107     1.0000 0.22811  0.09921  0.05339  Biso   1.000  H
  N83      1.0000 0.29871  0.12411  0.06413  Biso   1.000  N
  H108     1.0000 0.22811  0.09918  0.05339  Biso   1.000  H
  N84      1.0000 0.29871  0.12407  0.06413  Biso   1.000  N
  N85      1.0000 0.64259  0.82181  0.88698  Biso   1.000  N
  H109     1.0000 0.62030  0.80568  0.74494  Biso   1.000  H
  H110     1.0000 0.62758  0.75809  0.81287  Biso   1.000  H
  N86      1.0000 0.64259  0.82177  0.88698  Biso   1.000  N
  H111     1.0000 0.62030  0.80568  0.74486  Biso   1.000  H
  N87      1.0000 0.62428  0.79922  0.06222  Biso   1.000  N
  H112     1.0000 0.60030  0.72972  0.05202  Biso   1.000  H
  H113     1.0000 0.57509  0.75940  0.14158  Biso   1.000  H
  H114     1.0000 0.60030  0.72969  0.05202  Biso   1.000  H
  C111     1.0000 0.29948  0.16039  0.98210  Biso   1.000  C
  C112     1.0000 0.36369  0.16961  0.85948  Biso   1.000  C
  C113     1.0000 0.36369  0.16957  0.85948  Biso   1.000  C
  C114     1.0000 0.33040  0.13639  0.14212  Biso   1.000  C
  C115     1.0000 0.33040  0.13643  0.14212  Biso   1.000  C
  C116     1.0000 0.66179  0.80139  0.97989  Biso   1.000  C
  C117     1.0000 0.66960  0.86361  0.85788  Biso   1.000  C
  C118     1.0000 0.66960  0.86357  0.85788  Biso   1.000  C
  C119     1.0000 0.63627  0.83039  0.14052  Biso   1.000  C
  H115     1.0000 0.26569  0.17528  0.97037  Biso   1.000  H
  C120     1.0000 0.33821  0.19861  0.02011  Biso   1.000  C
  C121     1.0000 0.33821  0.19857  0.02011  Biso   1.000  C
  N88      1.0000 0.37568  0.20078  0.93778  Biso   1.000  N
  N89      1.0000 0.37568  0.20074  0.93778  Biso   1.000  N
  O32      1.0000 0.38641  0.16647  0.78020  Biso   1.000  O
  O33      1.0000 0.33381  0.11448  0.22338  Biso   1.000  O
  N90      1.0000 0.35741  0.17823  0.11302  Biso   1.000  N
  H116     1.0000 0.67788  0.76891  0.96870  Biso   1.000  H
  H117     1.0000 0.67788  0.76888  0.96870  Biso   1.000  H
  C122     1.0000 0.70048  0.83961  0.01790  Biso   1.000  C
  C123     1.0000 0.70048  0.83957  0.01790  Biso   1.000  C
  N91      1.0000 0.70129  0.87589  0.93587  Biso   1.000  N
  O34      1.0000 0.66619  0.88552  0.77662  Biso   1.000  O
  O35      1.0000 0.66619  0.88548  0.77662  Biso   1.000  O
  N92      1.0000 0.67780  0.85872  0.11158  Biso   1.000  N
  N93      1.0000 0.67780  0.85868  0.11158  Biso   1.000  N
  O36      1.0000 0.61359  0.83349  0.21980  Biso   1.000  O
  H118     1.0000 0.32208  0.23109  0.03130  Biso   1.000  H
  C124     1.0000 0.41437  0.23829  0.92909  Biso   1.000  C
  C125     1.0000 0.38560  0.20802  0.18766  Biso   1.000  C
  H119     1.0000 0.73427  0.82468  0.02963  Biso   1.000  H
  C126     1.0000 0.73879  0.91449  0.92780  Biso   1.000  C
  C127     1.0000 0.70657  0.88619  0.18599  Biso   1.000  C
  H120     1.0000 0.39970  0.27028  0.94798  Biso   1.000  H
  H121     1.0000 0.42491  0.24060  0.85842  Biso   1.000  H
  N94      1.0000 0.45920  0.22959  0.99132  Biso   1.000  N
  N95      1.0000 0.44023  0.20929  0.16794  Biso   1.000  N
  H122     1.0000 0.37970  0.19428  0.25506  Biso   1.000  H
  H123     1.0000 0.37239  0.24191  0.18713  Biso   1.000  H
  N96      1.0000 0.44023  0.20929  0.16786  Biso   1.000  N
  N97      1.0000 0.44023  0.20925  0.16794  Biso   1.000  N
  N98      1.0000 0.44023  0.20925  0.16786  Biso   1.000  N
  H124     1.0000 0.74090  0.92479  0.85712  Biso   1.000  H
  H125     1.0000 0.77189  0.90079  0.94661  Biso   1.000  H
  N99      1.0000 0.72910  0.95808  0.98949  Biso   1.000  N
  H126     1.0000 0.74128  0.87309  0.18797  Biso   1.000  H
  N100     1.0000 0.70899  0.93916  0.16679  Biso   1.000  N
  H127     1.0000 0.69140  0.88078  0.25248  Biso   1.000  H
  C128     1.0000 0.50517  0.22041  0.94806  Biso   1.000  C
  C129     1.0000 0.46318  0.24419  0.09848  Biso   1.000  C
  C130     1.0000 0.47448  0.18730  0.23206  Biso   1.000  C
  C131     1.0000 0.47448  0.18726  0.23206  Biso   1.000  C
  C132     1.0000 0.74420  0.96107  0.09573  Biso   1.000  C
  C133     1.0000 0.74420  0.96107  0.09566  Biso   1.000  C
  C134     1.0000 0.71968  0.00213  0.94699  Biso   1.000  C
  C135     1.0000 0.68600  0.97257  0.22856  Biso   1.000  C
  N101     1.0000 0.54218  0.22168  0.02437  Biso   1.000  N
  O37      1.0000 0.51280  0.21115  0.85849  Biso   1.000  O
  C136     1.0000 0.52130  0.23788  0.11820  Biso   1.000  C
  H128     1.0000 0.45150  0.27841  0.11028  Biso   1.000  H
  N102     1.0000 0.52310  0.20126  0.20008  Biso   1.000  N
  O38      1.0000 0.46491  0.16188  0.30350  Biso   1.000  O
  H129     1.0000 0.77940  0.94939  0.10647  Biso   1.000  H
  C137     1.0000 0.73879  0.01810  0.11653  Biso   1.000  C
  O39      1.0000 0.71060  0.01090  0.85682  Biso   1.000  O
  N103     1.0000 0.72289  0.03908  0.02292  Biso   1.000  N
  O40      1.0000 0.65830  0.96331  0.29916  Biso   1.000  O
  O41      1.0000 0.65830  0.96327  0.29916  Biso   1.000  O
  N104     1.0000 0.70067  0.02008  0.19703  Biso   1.000  N
  N105     1.0000 0.70067  0.02008  0.19695  Biso   1.000  N
  C138     1.0000 0.59720  0.22149  0.00122  Biso   1.000  C
  H130     1.0000 0.53670  0.26961  0.13976  Biso   1.000  H
  H131     1.0000 0.53670  0.26957  0.13976  Biso   1.000  H
  C139     1.0000 0.56720  0.19492  0.26367  Biso   1.000  C
  H132     1.0000 0.77140  0.03247  0.13907  Biso   1.000  H
  C140     1.0000 0.72420  0.09149  0.99977  Biso   1.000  C
  C141     1.0000 0.69439  0.06401  0.26062  Biso   1.000  C
  C142     1.0000 0.69439  0.06398  0.26062  Biso   1.000  C
  N106     1.0000 0.62217  0.17928  0.04242  Biso   1.000  N
  H133     1.0000 0.60187  0.22179  0.92788  Biso   1.000  H
  H134     1.0000 0.61279  0.25150  0.02848  Biso   1.000  H
  H135     1.0000 0.61279  0.25147  0.02848  Biso   1.000  H
  N107     1.0000 0.60509  0.16188  0.21858  Biso   1.000  N
  H136     1.0000 0.55647  0.18129  0.32887  Biso   1.000  H
  H137     1.0000 0.58268  0.22720  0.27616  Biso   1.000  H
  H138     1.0000 0.72427  0.09559  0.92643  Biso   1.000  H
  H139     1.0000 0.75588  0.10537  0.02567  Biso   1.000  H
  N108     1.0000 0.68190  0.11952  0.04151  Biso   1.000  N
  H140     1.0000 0.68010  0.05371  0.32551  Biso   1.000  H
  H141     1.0000 0.72780  0.07838  0.27357  Biso   1.000  H
  N109     1.0000 0.66248  0.10100  0.21820  Biso   1.000  N
  H142     1.0000 0.68010  0.05367  0.32551  Biso   1.000  H
  H143     1.0000 0.72780  0.07842  0.27357  Biso   1.000  H
  N110     1.0000 0.66248  0.10097  0.21820  Biso   1.000  N
  C143     1.0000 0.64968  0.14650  0.98111  Biso   1.000  C
  C144     1.0000 0.64148  0.17849  0.14577  Biso   1.000  C
  C145     1.0000 0.62068  0.11870  0.26794  Biso   1.000  C
  C146     1.0000 0.62068  0.11870  0.26786  Biso   1.000  C
  C147     1.0000 0.62068  0.11873  0.26794  Biso   1.000  C
  C148     1.0000 0.62068  0.11873  0.26786  Biso   1.000  C
  C149     1.0000 0.68217  0.13699  0.14638  Biso   1.000  C
  C150     1.0000 0.68217  0.13702  0.14638  Biso   1.000  C
  O42      1.0000 0.64478  0.14240  0.89117  Biso   1.000  O
  H144     1.0000 0.65627  0.21082  0.16512  Biso   1.000  H
  O43      1.0000 0.59777  0.09869  0.33732  Biso   1.000  O
  H145     1.0000 0.71600  0.14960  0.16657  Biso   1.000  H
  H146     1.0000 0.71600  0.14957  0.16657  Biso   1.000  H
  C151     1.0000 0.14148  0.67847  0.85423  Biso   1.000  C
  C152     1.0000 0.18221  0.63700  0.85362  Biso   1.000  C
  C153     1.0000 0.18217  0.63700  0.85362  Biso   1.000  C
  N111     1.0000 0.10509  0.66190  0.78142  Biso   1.000  N
  H147     1.0000 0.15631  0.71080  0.83488  Biso   1.000  H
  H148     1.0000 0.15627  0.71080  0.83488  Biso   1.000  H
  N112     1.0000 0.12217  0.67930  0.95758  Biso   1.000  N
  N113     1.0000 0.16248  0.60099  0.78180  Biso   1.000  N
  N114     1.0000 0.18190  0.61950  0.95849  Biso   1.000  N
  N115     1.0000 0.18186  0.61950  0.95849  Biso   1.000  N
  H149     1.0000 0.21600  0.64958  0.83336  Biso   1.000  H
  H150     1.0000 0.21596  0.64958  0.83336  Biso   1.000  H
  C154     1.0000 0.12068  0.61868  0.73206  Biso   1.000  C
  C155     1.0000 0.06724  0.69490  0.73633  Biso   1.000  C
  C156     1.0000 0.14968  0.64649  0.01889  Biso   1.000  C
  C157     1.0000 0.09720  0.72147  0.99878  Biso   1.000  C
  C158     1.0000 0.19439  0.56400  0.73938  Biso   1.000  C
  C159     1.0000 0.22420  0.59150  0.00023  Biso   1.000  C
  C160     1.0000 0.22416  0.59150  0.00023  Biso   1.000  C
  O44      1.0000 0.09777  0.59867  0.66268  Biso   1.000  O
  N116     1.0000 0.02310  0.70128  0.79992  Biso   1.000  N
  H151     1.0000 0.05651  0.68127  0.67106  Biso   1.000  H
  N117     1.0000 0.02306  0.70128  0.79992  Biso   1.000  N
  H152     1.0000 0.05647  0.68127  0.67106  Biso   1.000  H
  H153     1.0000 0.08268  0.72718  0.72376  Biso   1.000  H
  O45      1.0000 0.14478  0.64238  0.10876  Biso   1.000  O
  H154     1.0000 0.11279  0.75148  0.97152  Biso   1.000  H
  N118     1.0000 0.04218  0.72170  0.97563  Biso   1.000  N
  H155     1.0000 0.10191  0.72177  0.07212  Biso   1.000  H
  H156     1.0000 0.10187  0.72177  0.07212  Biso   1.000  H
  N119     1.0000 0.20067  0.52010  0.80297  Biso   1.000  N
  H157     1.0000 0.18006  0.55369  0.67449  Biso   1.000  H
  H158     1.0000 0.22776  0.57840  0.72643  Biso   1.000  H
  N120     1.0000 0.22289  0.53910  0.97708  Biso   1.000  N
  H159     1.0000 0.25588  0.60539  0.97426  Biso   1.000  H
  H160     1.0000 0.22431  0.59557  0.07357  Biso   1.000  H
  H161     1.0000 0.22427  0.59557  0.07357  Biso   1.000  H
  C161     1.0000 0.97445  0.68728  0.76786  Biso   1.000  C
  C162     1.0000 0.97448  0.68728  0.76786  Biso   1.000  C
  C163     1.0000 0.02130  0.73790  0.88180  Biso   1.000  C
  C164     1.0000 0.02126  0.73790  0.88180  Biso   1.000  C
  C165     1.0000 0.00521  0.72039  0.05187  Biso   1.000  C
  C166     1.0000 0.00517  0.72039  0.05187  Biso   1.000  C
  C167     1.0000 0.18600  0.47258  0.77136  Biso   1.000  C
  C168     1.0000 0.18596  0.47258  0.77136  Biso   1.000  C
  C169     1.0000 0.23879  0.51808  0.88347  Biso   1.000  C
  C170     1.0000 0.21968  0.50211  0.05301  Biso   1.000  C
  N121     1.0000 0.94027  0.70927  0.83206  Biso   1.000  N
  O46      1.0000 0.96487  0.66190  0.69650  Biso   1.000  O
  N122     1.0000 0.94023  0.70927  0.83206  Biso   1.000  N
  C171     1.0000 0.96314  0.74417  0.90152  Biso   1.000  C
  C172     1.0000 0.96318  0.74417  0.90152  Biso   1.000  C
  H162     1.0000 0.03670  0.76959  0.86017  Biso   1.000  H
  H163     1.0000 0.03666  0.76959  0.86017  Biso   1.000  H
  N123     1.0000 0.95920  0.72957  0.00868  Biso   1.000  N
  O47      1.0000 0.01280  0.71113  0.14151  Biso   1.000  O
  N124     1.0000 0.20899  0.43914  0.83321  Biso   1.000  N
  O48      1.0000 0.15826  0.46329  0.70076  Biso   1.000  O
  C173     1.0000 0.24416  0.46109  0.90427  Biso   1.000  C
  H164     1.0000 0.27136  0.53249  0.86093  Biso   1.000  H
  N125     1.0000 0.22910  0.45810  0.01051  Biso   1.000  N
  N126     1.0000 0.22906  0.45810  0.01051  Biso   1.000  N
  O49      1.0000 0.21056  0.51088  0.14318  Biso   1.000  O
  C174     1.0000 0.88556  0.70800  0.81234  Biso   1.000  C
  C175     1.0000 0.88556  0.70800  0.81226  Biso   1.000  C
  H165     1.0000 0.95150  0.77840  0.88972  Biso   1.000  H
  C176     1.0000 0.91437  0.73827  0.07091  Biso   1.000  C
  C177     1.0000 0.20657  0.38617  0.81401  Biso   1.000  C
  H166     1.0000 0.27940  0.44940  0.89353  Biso   1.000  H
  H167     1.0000 0.27937  0.44940  0.89353  Biso   1.000  H
  C178     1.0000 0.23879  0.41450  0.07220  Biso   1.000  C
  H168     1.0000 0.87966  0.69430  0.74494  Biso   1.000  H
  H169     1.0000 0.87239  0.74189  0.81287  Biso   1.000  H
  N127     1.0000 0.85737  0.67821  0.88698  Biso   1.000  N
  H170     1.0000 0.87966  0.69430  0.74486  Biso   1.000  H
  H171     1.0000 0.89966  0.77030  0.05202  Biso   1.000  H
  H172     1.0000 0.92487  0.74058  0.14158  Biso   1.000  H
  N128     1.0000 0.87568  0.70076  0.06222  Biso   1.000  N
  H173     1.0000 0.89970  0.77030  0.05202  Biso   1.000  H
  N129     1.0000 0.17780  0.35870  0.88842  Biso   1.000  N
  N130     1.0000 0.17776  0.35870  0.88842  Biso   1.000  N
  H174     1.0000 0.24128  0.37311  0.81203  Biso   1.000  H
  H175     1.0000 0.19140  0.38080  0.74752  Biso   1.000  H
  H176     1.0000 0.24128  0.37311  0.81196  Biso   1.000  H
  H177     1.0000 0.19136  0.38080  0.74752  Biso   1.000  H
  N131     1.0000 0.20129  0.37591  0.06413  Biso   1.000  N
  N132     1.0000 0.20133  0.37591  0.06413  Biso   1.000  N
  H178     1.0000 0.24090  0.42481  0.14288  Biso   1.000  H
  H179     1.0000 0.27189  0.40081  0.05339  Biso   1.000  H
  H180     1.0000 0.27186  0.40081  0.05339  Biso   1.000  H
  C179     1.0000 0.83040  0.63637  0.85788  Biso   1.000  C
  C180     1.0000 0.83817  0.69859  0.97989  Biso   1.000  C
  C181     1.0000 0.86369  0.66959  0.14052  Biso   1.000  C
  C182     1.0000 0.13627  0.33041  0.85948  Biso   1.000  C
  C183     1.0000 0.20048  0.33959  0.98210  Biso   1.000  C
  C184     1.0000 0.16957  0.36359  0.14212  Biso   1.000  C
  N133     1.0000 0.79871  0.62409  0.93587  Biso   1.000  N
  N134     1.0000 0.79867  0.62409  0.93587  Biso   1.000  N
  O50      1.0000 0.83381  0.61446  0.77662  Biso   1.000  O
  O51      1.0000 0.83377  0.61446  0.77662  Biso   1.000  O
  C185     1.0000 0.79952  0.66037  0.01790  Biso   1.000  C
  C186     1.0000 0.79948  0.66037  0.01790  Biso   1.000  C
  H181     1.0000 0.82212  0.73110  0.96870  Biso   1.000  H
  H182     1.0000 0.82208  0.73110  0.96870  Biso   1.000  H
  N135     1.0000 0.82216  0.64130  0.11158  Biso   1.000  N
  N136     1.0000 0.82220  0.64130  0.11158  Biso   1.000  N
  O52      1.0000 0.88637  0.66649  0.21980  Biso   1.000  O
  O53      1.0000 0.11359  0.33351  0.78020  Biso   1.000  O
  N137     1.0000 0.12428  0.29920  0.93778  Biso   1.000  N
  C187     1.0000 0.16179  0.30141  0.02011  Biso   1.000  C
  H183     1.0000 0.23427  0.32470  0.97037  Biso   1.000  H
  N138     1.0000 0.14259  0.32179  0.11302  Biso   1.000  N
  O54      1.0000 0.16619  0.38550  0.22338  Biso   1.000  O
  C188     1.0000 0.76121  0.58550  0.92780  Biso   1.000  C
  C189     1.0000 0.76117  0.58550  0.92780  Biso   1.000  C
  H184     1.0000 0.76569  0.67530  0.02963  Biso   1.000  H
  C190     1.0000 0.79339  0.61379  0.18599  Biso   1.000  C
  C191     1.0000 0.08559  0.26169  0.92909  Biso   1.000  C
  H185     1.0000 0.17788  0.26890  0.03130  Biso   1.000  H
  C192     1.0000 0.11444  0.29200  0.18766  Biso   1.000  C
  N139     1.0000 0.77090  0.54190  0.98949  Biso   1.000  N
  H186     1.0000 0.75910  0.57519  0.85712  Biso   1.000  H
  H187     1.0000 0.72811  0.59919  0.94661  Biso   1.000  H
  N140     1.0000 0.79097  0.56082  0.16679  Biso   1.000  N
  H188     1.0000 0.75868  0.62689  0.18797  Biso   1.000  H
  H189     1.0000 0.80860  0.61920  0.25248  Biso   1.000  H
  H190     1.0000 0.07509  0.25938  0.85842  Biso   1.000  H
  H191     1.0000 0.10026  0.22970  0.94798  Biso   1.000  H
  N141     1.0000 0.04076  0.27039  0.99132  Biso   1.000  N
  N142     1.0000 0.05973  0.29069  0.16794  Biso   1.000  N
  N143     1.0000 0.05973  0.29069  0.16786  Biso   1.000  N
  H192     1.0000 0.12030  0.30570  0.25506  Biso   1.000  H
  H193     1.0000 0.12758  0.25811  0.18713  Biso   1.000  H
  C193     1.0000 0.78029  0.49789  0.94699  Biso   1.000  C
  C194     1.0000 0.75577  0.53887  0.09573  Biso   1.000  C
  C195     1.0000 0.75577  0.53887  0.09566  Biso   1.000  C
  C196     1.0000 0.75580  0.53887  0.09573  Biso   1.000  C
  C197     1.0000 0.75580  0.53887  0.09566  Biso   1.000  C
  C198     1.0000 0.81400  0.52738  0.22856  Biso   1.000  C
  C199     1.0000 0.99475  0.27961  0.94806  Biso   1.000  C
  C200     1.0000 0.99479  0.27961  0.94806  Biso   1.000  C
  C201     1.0000 0.03682  0.25579  0.09848  Biso   1.000  C
  C202     1.0000 0.02552  0.31268  0.23206  Biso   1.000  C
  C203     1.0000 0.02548  0.31268  0.23206  Biso   1.000  C
  N144     1.0000 0.77711  0.46090  0.02292  Biso   1.000  N
  N145     1.0000 0.77707  0.46090  0.02292  Biso   1.000  N
  O55      1.0000 0.78936  0.48908  0.85682  Biso   1.000  O
  O56      1.0000 0.78940  0.48908  0.85682  Biso   1.000  O
  C204     1.0000 0.76121  0.48188  0.11653  Biso   1.000  C
  C205     1.0000 0.76117  0.48188  0.11653  Biso   1.000  C
  H194     1.0000 0.72060  0.55060  0.10647  Biso   1.000  H
  N146     1.0000 0.79929  0.47990  0.19703  Biso   1.000  N
  N147     1.0000 0.79929  0.47990  0.19695  Biso   1.000  N
  O57      1.0000 0.84170  0.53667  0.29916  Biso   1.000  O
  O58      1.0000 0.98717  0.28887  0.85849  Biso   1.000  O
  N148     1.0000 0.95778  0.27830  0.02437  Biso   1.000  N
  C206     1.0000 0.97866  0.26210  0.11820  Biso   1.000  C
  C207     1.0000 0.97870  0.26210  0.11820  Biso   1.000  C
  H195     1.0000 0.04850  0.22160  0.11028  Biso   1.000  H
  H196     1.0000 0.04846  0.22160  0.11028  Biso   1.000  H
  N149     1.0000 0.97686  0.29868  0.20008  Biso   1.000  N
  N150     1.0000 0.97690  0.29868  0.20008  Biso   1.000  N
  O59      1.0000 0.03509  0.33810  0.30350  Biso   1.000  O
  C208     1.0000 0.77580  0.40850  0.99977  Biso   1.000  C
  H197     1.0000 0.72860  0.46751  0.13907  Biso   1.000  H
  C209     1.0000 0.80557  0.43600  0.26062  Biso   1.000  C
  C210     1.0000 0.90277  0.27849  0.00122  Biso   1.000  C
  H198     1.0000 0.96326  0.23041  0.13976  Biso   1.000  H
  H199     1.0000 0.96330  0.23041  0.13976  Biso   1.000  H
  C211     1.0000 0.93276  0.30510  0.26367  Biso   1.000  C
  N151     1.0000 0.81810  0.38050  0.04151  Biso   1.000  N
  H200     1.0000 0.77569  0.40439  0.92643  Biso   1.000  H
  H201     1.0000 0.74408  0.39461  0.02567  Biso   1.000  H
  N152     1.0000 0.83752  0.39898  0.21820  Biso   1.000  N
  N153     1.0000 0.83748  0.39898  0.21820  Biso   1.000  N
  H202     1.0000 0.81990  0.44631  0.32551  Biso   1.000  H
  H203     1.0000 0.77216  0.42160  0.27357  Biso   1.000  H
  H204     1.0000 0.77220  0.42160  0.27357  Biso   1.000  H
  H205     1.0000 0.89809  0.27819  0.92788  Biso   1.000  H
  H206     1.0000 0.88717  0.24848  0.02848  Biso   1.000  H
  N154     1.0000 0.87779  0.32070  0.04242  Biso   1.000  N
  H207     1.0000 0.94349  0.31869  0.32887  Biso   1.000  H
  H208     1.0000 0.91725  0.27278  0.27616  Biso   1.000  H
  N155     1.0000 0.89487  0.33810  0.21858  Biso   1.000  N
  H209     1.0000 0.91729  0.27278  0.27616  Biso   1.000  H
  C212     1.0000 0.85028  0.35348  0.98111  Biso   1.000  C
  C213     1.0000 0.81779  0.36300  0.14638  Biso   1.000  C
  C214     1.0000 0.87928  0.38128  0.26794  Biso   1.000  C
  C215     1.0000 0.87928  0.38128  0.26786  Biso   1.000  C
  C216     1.0000 0.85848  0.32149  0.14577  Biso   1.000  C
  O60      1.0000 0.85518  0.35758  0.89117  Biso   1.000  O
  H210     1.0000 0.78396  0.35038  0.16657  Biso   1.000  H
  H211     1.0000 0.78400  0.35038  0.16657  Biso   1.000  H
  O61      1.0000 0.90219  0.40129  0.33732  Biso   1.000  O
  H212     1.0000 0.84365  0.28920  0.16512  Biso   1.000  H
  H213     1.0000 0.84369  0.28920  0.16512  Biso   1.000  H
  O62      1.0000 0.35518  0.64238  0.60876  Biso   1.000  O
  C217     1.0000 0.35028  0.64649  0.51889  Biso   1.000  C
  N156     1.0000 0.31810  0.61950  0.45849  Biso   1.000  N
  N157     1.0000 0.37779  0.67930  0.45758  Biso   1.000  N
  C218     1.0000 0.27580  0.59150  0.50023  Biso   1.000  C
  C219     1.0000 0.31779  0.63700  0.35362  Biso   1.000  C
  C220     1.0000 0.35848  0.67847  0.35423  Biso   1.000  C
  C221     1.0000 0.40280  0.72147  0.49878  Biso   1.000  C
  N158     1.0000 0.27711  0.53910  0.47708  Biso   1.000  N
  H214     1.0000 0.27569  0.59557  0.57357  Biso   1.000  H
  H215     1.0000 0.24408  0.60539  0.47433  Biso   1.000  H
  N159     1.0000 0.33748  0.60099  0.28180  Biso   1.000  N
  H216     1.0000 0.28400  0.64958  0.33343  Biso   1.000  H
  N160     1.0000 0.39487  0.66190  0.28142  Biso   1.000  N
  H217     1.0000 0.34369  0.71080  0.33488  Biso   1.000  H
  H218     1.0000 0.39809  0.72177  0.57212  Biso   1.000  H
  H219     1.0000 0.38721  0.75148  0.47152  Biso   1.000  H
  N161     1.0000 0.45778  0.72170  0.47563  Biso   1.000  N
  C222     1.0000 0.26121  0.51808  0.38347  Biso   1.000  C
  C223     1.0000 0.28029  0.50211  0.55301  Biso   1.000  C
  C224     1.0000 0.30561  0.56400  0.23938  Biso   1.000  C
  C225     1.0000 0.37928  0.61868  0.23206  Biso   1.000  C
  C226     1.0000 0.43280  0.69490  0.23633  Biso   1.000  C
  C227     1.0000 0.47870  0.73790  0.38180  Biso   1.000  C
  C228     1.0000 0.49479  0.72039  0.55187  Biso   1.000  C
  C229     1.0000 0.25580  0.46109  0.40427  Biso   1.000  C
  N162     1.0000 0.29929  0.52010  0.30297  Biso   1.000  N
  H220     1.0000 0.22860  0.53249  0.36093  Biso   1.000  H
  N163     1.0000 0.27090  0.45810  0.51051  Biso   1.000  N
  O63      1.0000 0.28940  0.51088  0.64318  Biso   1.000  O
  H221     1.0000 0.31990  0.55369  0.17449  Biso   1.000  H
  H222     1.0000 0.27220  0.57840  0.22643  Biso   1.000  H
  O64      1.0000 0.40219  0.59867  0.16268  Biso   1.000  O
  H223     1.0000 0.44349  0.68127  0.17113  Biso   1.000  H
  H224     1.0000 0.41729  0.72718  0.22376  Biso   1.000  H
  N164     1.0000 0.47690  0.70128  0.29992  Biso   1.000  N
  C230     1.0000 0.53678  0.74417  0.40152  Biso   1.000  C
  H225     1.0000 0.46330  0.76959  0.36017  Biso   1.000  H
  N165     1.0000 0.54080  0.72957  0.50868  Biso   1.000  N
  O65      1.0000 0.48717  0.71113  0.64151  Biso   1.000  O
  N166     1.0000 0.29101  0.43914  0.33321  Biso   1.000  N
  H226     1.0000 0.22060  0.44940  0.39353  Biso   1.000  H
  C231     1.0000 0.31400  0.47258  0.27136  Biso   1.000  C
  C232     1.0000 0.26121  0.41450  0.57220  Biso   1.000  C
  C233     1.0000 0.52548  0.68728  0.26794  Biso   1.000  C
  N167     1.0000 0.55973  0.70927  0.33206  Biso   1.000  N
  H227     1.0000 0.54850  0.77840  0.38972  Biso   1.000  H
  C234     1.0000 0.58559  0.73827  0.57091  Biso   1.000  C
  C235     1.0000 0.29339  0.38617  0.31401  Biso   1.000  C
  O66      1.0000 0.34170  0.46329  0.20076  Biso   1.000  O
  N168     1.0000 0.29871  0.37591  0.56413  Biso   1.000  N
  H228     1.0000 0.25910  0.42481  0.64288  Biso   1.000  H
  H229     1.0000 0.22811  0.40081  0.55339  Biso   1.000  H
  O67      1.0000 0.53509  0.66190  0.19650  Biso   1.000  O
  C236     1.0000 0.61440  0.70800  0.31226  Biso   1.000  C
  H230     1.0000 0.60030  0.77030  0.55202  Biso   1.000  H
  H231     1.0000 0.57509  0.74058  0.64158  Biso   1.000  H
  N169     1.0000 0.62428  0.70076  0.56222  Biso   1.000  N
  N170     1.0000 0.32220  0.35870  0.38842  Biso   1.000  N
  H232     1.0000 0.25868  0.37311  0.31203  Biso   1.000  H
  H233     1.0000 0.30860  0.38080  0.24752  Biso   1.000  H
  C237     1.0000 0.29948  0.33959  0.48210  Biso   1.000  C
  C238     1.0000 0.33040  0.36359  0.64212  Biso   1.000  C
  H234     1.0000 0.62030  0.69430  0.24494  Biso   1.000  H
  H235     1.0000 0.62758  0.74189  0.31287  Biso   1.000  H
  N171     1.0000 0.64259  0.67821  0.38698  Biso   1.000  N
  C239     1.0000 0.66179  0.69859  0.47989  Biso   1.000  C
  C240     1.0000 0.63627  0.66959  0.64052  Biso   1.000  C
  C241     1.0000 0.36369  0.33041  0.35948  Biso   1.000  C
  C242     1.0000 0.33821  0.30141  0.52011  Biso   1.000  C
  H236     1.0000 0.26569  0.32470  0.47037  Biso   1.000  H
  N172     1.0000 0.35741  0.32179  0.61302  Biso   1.000  N
  O68      1.0000 0.33381  0.38550  0.72338  Biso   1.000  O
  C243     1.0000 0.66960  0.63637  0.35788  Biso   1.000  C
  C244     1.0000 0.70048  0.66037  0.51790  Biso   1.000  C
  H237     1.0000 0.67788  0.73110  0.46870  Biso   1.000  H
  N173     1.0000 0.67780  0.64130  0.61158  Biso   1.000  N
  O69      1.0000 0.61359  0.66649  0.71980  Biso   1.000  O
  N174     1.0000 0.37568  0.29920  0.43778  Biso   1.000  N
  O70      1.0000 0.38641  0.33351  0.28020  Biso   1.000  O
  H238     1.0000 0.32208  0.26890  0.53130  Biso   1.000  H
  C245     1.0000 0.38560  0.29200  0.68766  Biso   1.000  C
  N175     1.0000 0.70129  0.62409  0.43587  Biso   1.000  N
  O71      1.0000 0.66619  0.61446  0.27662  Biso   1.000  O
  H239     1.0000 0.73427  0.67530  0.52963  Biso   1.000  H
  C246     1.0000 0.70657  0.61379  0.68599  Biso   1.000  C
  C247     1.0000 0.41437  0.26169  0.42909  Biso   1.000  C
  H240     1.0000 0.37970  0.30570  0.75506  Biso   1.000  H
  H241     1.0000 0.37239  0.25811  0.68713  Biso   1.000  H
  N176     1.0000 0.44023  0.29069  0.66786  Biso   1.000  N
  C248     1.0000 0.73879  0.58550  0.42780  Biso   1.000  C
  N177     1.0000 0.70899  0.56082  0.66679  Biso   1.000  N
  H242     1.0000 0.74128  0.62689  0.68797  Biso   1.000  H
  H243     1.0000 0.69140  0.61920  0.75248  Biso   1.000  H
  H244     1.0000 0.39970  0.22970  0.44798  Biso   1.000  H
  H245     1.0000 0.42491  0.25938  0.35842  Biso   1.000  H
  N178     1.0000 0.45920  0.27039  0.49132  Biso   1.000  N
  C249     1.0000 0.46318  0.25579  0.59848  Biso   1.000  C
  C250     1.0000 0.47448  0.31268  0.73206  Biso   1.000  C
  N179     1.0000 0.72910  0.54190  0.48949  Biso   1.000  N
  H246     1.0000 0.74090  0.57519  0.35712  Biso   1.000  H
  H247     1.0000 0.77189  0.59919  0.44661  Biso   1.000  H
  C251     1.0000 0.68600  0.52738  0.72856  Biso   1.000  C
  C252     1.0000 0.74420  0.53887  0.59566  Biso   1.000  C
  C253     1.0000 0.50517  0.27961  0.44813  Biso   1.000  C
  H248     1.0000 0.45150  0.22160  0.61028  Biso   1.000  H
  C254     1.0000 0.52130  0.26210  0.61820  Biso   1.000  C
  N180     1.0000 0.52310  0.29868  0.70008  Biso   1.000  N
  O72      1.0000 0.46491  0.33810  0.80350  Biso   1.000  O
  C255     1.0000 0.71968  0.49789  0.44699  Biso   1.000  C
  N181     1.0000 0.70067  0.47990  0.69703  Biso   1.000  N
  O73      1.0000 0.65830  0.53667  0.79916  Biso   1.000  O
  C256     1.0000 0.73879  0.48188  0.61653  Biso   1.000  C
  H249     1.0000 0.77940  0.55060  0.60647  Biso   1.000  H
  N182     1.0000 0.54218  0.27830  0.52437  Biso   1.000  N
  O74      1.0000 0.51280  0.28887  0.35849  Biso   1.000  O
  H250     1.0000 0.53670  0.23041  0.63983  Biso   1.000  H
  C257     1.0000 0.56720  0.30510  0.76367  Biso   1.000  C
  N183     1.0000 0.72289  0.46090  0.52292  Biso   1.000  N
  O75      1.0000 0.71060  0.48908  0.35682  Biso   1.000  O
  C258     1.0000 0.69439  0.43600  0.76062  Biso   1.000  C
  H251     1.0000 0.77140  0.46751  0.63907  Biso   1.000  H
  C259     1.0000 0.59720  0.27849  0.50122  Biso   1.000  C
  H252     1.0000 0.55647  0.31869  0.82887  Biso   1.000  H
  H253     1.0000 0.58268  0.27278  0.77616  Biso   1.000  H
  N184     1.0000 0.60509  0.33810  0.71858  Biso   1.000  N
  C260     1.0000 0.72420  0.40850  0.49977  Biso   1.000  C
  N185     1.0000 0.66248  0.39898  0.71820  Biso   1.000  N
  H254     1.0000 0.68010  0.44631  0.82551  Biso   1.000  H
  H255     1.0000 0.72780  0.42160  0.77357  Biso   1.000  H
  H256     1.0000 0.60187  0.27819  0.42788  Biso   1.000  H
  H257     1.0000 0.61279  0.24848  0.52848  Biso   1.000  H
  N186     1.0000 0.62217  0.32070  0.54242  Biso   1.000  N
  C261     1.0000 0.64148  0.32149  0.64577  Biso   1.000  C
  C262     1.0000 0.62068  0.38128  0.76786  Biso   1.000  C
  N187     1.0000 0.68190  0.38050  0.54151  Biso   1.000  N
  H258     1.0000 0.72427  0.40439  0.42643  Biso   1.000  H
  H259     1.0000 0.75588  0.39461  0.52567  Biso   1.000  H
  C263     1.0000 0.68217  0.36300  0.64638  Biso   1.000  C
  C264     1.0000 0.64968  0.35348  0.48111  Biso   1.000  C
  H260     1.0000 0.65627  0.28920  0.66512  Biso   1.000  H
  O76      1.0000 0.59777  0.40129  0.83732  Biso   1.000  O
  H261     1.0000 0.71600  0.35038  0.66657  Biso   1.000  H
  O77      1.0000 0.64478  0.35758  0.39117  Biso   1.000  O
  Ne1      1.0000 0.49999  0.49999  0.49999  Biso   1.000  Ne
  He1      1.0000 0.47767  0.52778  0.74417  Biso   1.000  He
  He2      1.0000 0.53504  0.48343  0.25173  Biso   1.000  He
  Ar1      1.0000 0.49999  0.49999  0.49999  Biso   1.000  Ar
  Ne2      1.0000 0.98825  0.50633  0.99947  Biso   1.000  Ne
  He3      1.0000 0.03902  0.52068  0.28315  Biso   1.000  He
  He4      1.0000 0.96798  0.48648  0.77799  Biso   1.000  He
  Ar2      1.0000 0.99137  0.50839  0.99824  Biso   1.000  Ar
  Ne3      1.0000 0.00054  0.98787  0.49532  Biso   1.000  Ne
  He5      1.0000 0.03190  0.98656  0.72139  Biso   1.000  He
  He6      1.0000 0.96777  0.01372  0.27608  Biso   1.000  He
  Ar3      1.0000 0.99386  0.99389  0.49427  Biso   1.000  Ar
  Ne4      1.0000 0.50112  0.99415  0.00255  Biso   1.000  Ne
  He7      1.0000 0.46526  0.98370  0.24566  Biso   1.000  He
  He8      1.0000 0.53499  0.01645  0.75219  Biso   1.000  He
  Ar4      1.0000 0.50771  0.99248  0.00187  Biso   1.000  Ar
