data_image0
_cell_length_a       16.81
_cell_length_b       21.079
_cell_length_c       19.17
_cell_angle_alpha    90
_cell_angle_beta     94.18
_cell_angle_gamma    90

_symmetry_space_group_name_H-M    "P 1"
_symmetry_int_tables_number       1

loop_
  _symmetry_equiv_pos_as_xyz
  'x, y, z'

loop_
  _atom_site_label
  _atom_site_occupancy
  _atom_site_fract_x
  _atom_site_fract_y
  _atom_site_fract_z
  _atom_site_thermal_displace_type
  _atom_site_B_iso_or_equiv
  _atom_site_type_symbol
  C1       1.0000 0.54182  0.56502  0.55317  Biso   1.000  C
  O1       1.0000 0.49830  0.53181  0.60359  Biso   1.000  O
  H1       1.0000 0.53274  0.61132  0.55709  Biso   1.000  H
  H2       1.0000 0.52320  0.55150  0.50531  Biso   1.000  H
  C2       1.0000 0.62821  0.55050  0.56692  Biso   1.000  C
  C3       1.0000 0.41650  0.53831  0.59778  Biso   1.000  C
  O2       1.0000 0.65703  0.58399  0.62880  Biso   1.000  O
  H3       1.0000 0.63603  0.50429  0.57367  Biso   1.000  H
  H4       1.0000 0.65794  0.56412  0.52670  Biso   1.000  H
  C4       1.0000 0.37431  0.57365  0.54616  Biso   1.000  C
  C5       1.0000 0.37543  0.50633  0.64763  Biso   1.000  C
  C6       1.0000 0.74042  0.58352  0.63727  Biso   1.000  C
  C7       1.0000 0.29170  0.57569  0.54428  Biso   1.000  C
  H5       1.0000 0.40184  0.59628  0.51237  Biso   1.000  H
  C8       1.0000 0.29300  0.50989  0.64501  Biso   1.000  C
  H6       1.0000 0.40373  0.48219  0.68319  Biso   1.000  H
  C9       1.0000 0.78322  0.62920  0.60327  Biso   1.000  C
  C10      1.0000 0.77812  0.53660  0.67859  Biso   1.000  C
  C11      1.0000 0.24929  0.54386  0.59297  Biso   1.000  C
  H7       1.0000 0.26334  0.59960  0.50860  Biso   1.000  H
  H8       1.0000 0.26560  0.48859  0.67969  Biso   1.000  H
  C12      1.0000 0.86593  0.62579  0.60997  Biso   1.000  C
  C13      1.0000 0.74112  0.68239  0.56127  Biso   1.000  C
  C14      1.0000 0.86144  0.53437  0.68398  Biso   1.000  C
  C15      1.0000 0.73124  0.48906  0.71939  Biso   1.000  C
  C16      1.0000 0.15762  0.54168  0.58507  Biso   1.000  C
  H9       1.0000 0.89622  0.65648  0.58722  Biso   1.000  H
  C17      1.0000 0.90542  0.57859  0.64920  Biso   1.000  C
  C18      1.0000 0.76170  0.74652  0.59271  Biso   1.000  C
  H10      1.0000 0.75694  0.68110  0.51258  Biso   1.000  H
  H11      1.0000 0.68272  0.67589  0.56007  Biso   1.000  H
  H12      1.0000 0.88812  0.50240  0.71160  Biso   1.000  H
  H13      1.0000 0.67402  0.49120  0.70302  Biso   1.000  H
  H14      1.0000 0.75044  0.44561  0.71060  Biso   1.000  H
  C19      1.0000 0.74080  0.50306  0.79716  Biso   1.000  C
  C20      1.0000 0.13453  0.49158  0.52853  Biso   1.000  C
  C21      1.0000 0.12123  0.60501  0.56174  Biso   1.000  C
  C22      1.0000 0.12270  0.52218  0.65244  Biso   1.000  C
  H15      1.0000 0.96201  0.57650  0.65228  Biso   1.000  H
  C23      1.0000 0.72532  0.76825  0.65166  Biso   1.000  C
  C24      1.0000 0.82100  0.78386  0.56677  Biso   1.000  C
  C25      1.0000 0.70882  0.55747  0.82609  Biso   1.000  C
  C26      1.0000 0.78940  0.46473  0.84147  Biso   1.000  C
  H16      1.0000 0.15573  0.45012  0.54380  Biso   1.000  H
  H17      1.0000 0.15700  0.50358  0.48460  Biso   1.000  H
  H18      1.0000 0.07634  0.48921  0.52121  Biso   1.000  H
  N1       1.0000 0.15205  0.66246  0.58539  Biso   1.000  N
  C27      1.0000 0.05279  0.61815  0.52199  Biso   1.000  C
  N2       1.0000 0.12702  0.56165  0.71008  Biso   1.000  N
  C28      1.0000 0.08311  0.46905  0.67137  Biso   1.000  C
  O3       1.0000 0.66718  0.72930  0.67723  Biso   1.000  O
  C29      1.0000 0.75285  0.82248  0.68806  Biso   1.000  C
  H19      1.0000 0.84685  0.76982  0.52712  Biso   1.000  H
  C30      1.0000 0.84331  0.84126  0.59763  Biso   1.000  C
  O4       1.0000 0.65779  0.59676  0.78545  Biso   1.000  O
  C31      1.0000 0.73175  0.57797  0.89435  Biso   1.000  C
  C32      1.0000 0.80835  0.48162  0.91061  Biso   1.000  C
  H20      1.0000 0.80991  0.42630  0.82410  Biso   1.000  H
  H21      1.0000 0.19614  0.66711  0.61269  Biso   1.000  H
  C33      1.0000 0.10384  0.71161  0.56007  Biso   1.000  C
  C34      1.0000 0.04130  0.68471  0.52121  Biso   1.000  C
  H22      1.0000 0.01849  0.58779  0.49872  Biso   1.000  H
  H23      1.0000 0.14952  0.59932  0.71170  Biso   1.000  H
  C35      1.0000 0.09111  0.53361  0.76468  Biso   1.000  C
  H24      1.0000 0.07071  0.43327  0.64240  Biso   1.000  H
  C36      1.0000 0.06369  0.47640  0.74183  Biso   1.000  C
  C37      1.0000 0.58983  0.75701  0.67854  Biso   1.000  C
  C38      1.0000 0.73111  0.83761  0.76212  Biso   1.000  C
  C39      1.0000 0.81010  0.85934  0.65830  Biso   1.000  C
  H25      1.0000 0.88093  0.86788  0.57717  Biso   1.000  H
  C40      1.0000 0.58074  0.57062  0.76808  Biso   1.000  C
  C41      1.0000 0.78092  0.53836  0.93629  Biso   1.000  C
  C42      1.0000 0.70830  0.64291  0.91788  Biso   1.000  C
  H26      1.0000 0.84022  0.45420  0.94048  Biso   1.000  H
  C43      1.0000 0.12494  0.78059  0.57194  Biso   1.000  C
  H27      1.0000 0.99789  0.70667  0.49778  Biso   1.000  H
  C44      1.0000 0.08440  0.56748  0.83425  Biso   1.000  C
  H28      1.0000 0.03632  0.44642  0.76829  Biso   1.000  H
  H29      1.0000 0.59521  0.79918  0.70098  Biso   1.000  H
  H30      1.0000 0.55711  0.73021  0.70778  Biso   1.000  H
  C45      1.0000 0.54660  0.76446  0.60714  Biso   1.000  C
  C46      1.0000 0.76870  0.78808  0.81223  Biso   1.000  C
  H31      1.0000 0.75081  0.88040  0.77588  Biso   1.000  H
  H32      1.0000 0.67243  0.83718  0.76400  Biso   1.000  H
  H33      1.0000 0.82681  0.89791  0.68037  Biso   1.000  H
  H34      1.0000 0.58693  0.52602  0.75307  Biso   1.000  H
  H35      1.0000 0.55493  0.59438  0.72807  Biso   1.000  H
  C47      1.0000 0.52652  0.57209  0.82787  Biso   1.000  C
  H36      1.0000 0.79600  0.55031  0.98321  Biso   1.000  H
  H37      1.0000 0.71592  0.64548  0.96951  Biso   1.000  H
  H38      1.0000 0.65124  0.65032  0.90407  Biso   1.000  H
  C48      1.0000 0.75820  0.69425  0.88556  Biso   1.000  C
  C49      1.0000 0.11860  0.80037  0.64747  Biso   1.000  C
  C50      1.0000 0.21093  0.79420  0.55233  Biso   1.000  C
  C51      1.0000 0.06699  0.82115  0.52466  Biso   1.000  C
  C52      1.0000 0.14712  0.61863  0.84523  Biso   1.000  C
  C53      1.0000 0.09681  0.51810  0.89346  Biso   1.000  C
  C54      1.0000 0.00021  0.59562  0.83770  Biso   1.000  C
  O5       1.0000 0.55222  0.73163  0.55662  Biso   1.000  O
  O6       1.0000 0.49653  0.81441  0.60809  Biso   1.000  O
  C55      1.0000 0.72304  0.74354  0.84539  Biso   1.000  C
  C56      1.0000 0.85132  0.78443  0.82279  Biso   1.000  C
  O7       1.0000 0.52408  0.61246  0.87149  Biso   1.000  O
  O8       1.0000 0.47787  0.52185  0.82374  Biso   1.000  O
  C57      1.0000 0.84091  0.69192  0.89367  Biso   1.000  C
  N3       1.0000 0.17250  0.77954  0.69972  Biso   1.000  N
  C58      1.0000 0.06689  0.83998  0.67807  Biso   1.000  C
  H39      1.0000 0.22399  0.83880  0.56201  Biso   1.000  H
  H40      1.0000 0.21482  0.78547  0.50248  Biso   1.000  H
  H41      1.0000 0.24834  0.76688  0.58010  Biso   1.000  H
  H42      1.0000 0.01210  0.81299  0.53638  Biso   1.000  H
  H43      1.0000 0.07231  0.81000  0.47560  Biso   1.000  H
  H44      1.0000 0.07949  0.86622  0.53188  Biso   1.000  H
  N4       1.0000 0.13542  0.68163  0.82755  Biso   1.000  N
  C59      1.0000 0.22540  0.61345  0.86882  Biso   1.000  C
  H45      1.0000 0.05590  0.48499  0.88718  Biso   1.000  H
  H46      1.0000 0.09272  0.53902  0.93870  Biso   1.000  H
  H47      1.0000 0.14982  0.49889  0.89210  Biso   1.000  H
  H48      1.0000 0.98924  0.62508  0.79879  Biso   1.000  H
  H49      1.0000 0.99694  0.61820  0.88211  Biso   1.000  H
  H50      1.0000 0.96074  0.56132  0.83451  Biso   1.000  H
  C60      1.0000 0.44630  0.82698  0.54412  Biso   1.000  C
  O9       1.0000 0.64027  0.74695  0.83587  Biso   1.000  O
  H51      1.0000 0.88341  0.81498  0.80161  Biso   1.000  H
  C61      1.0000 0.88761  0.73718  0.86359  Biso   1.000  C
  C62      1.0000 0.42064  0.51848  0.87661  Biso   1.000  C
  H52      1.0000 0.86615  0.65862  0.92029  Biso   1.000  H
  H53      1.0000 0.21172  0.75288  0.69350  Biso   1.000  H
  C63      1.0000 0.15713  0.80587  0.76311  Biso   1.000  C
  C64      1.0000 0.09123  0.84302  0.75046  Biso   1.000  C
  H54      1.0000 0.02280  0.86162  0.65500  Biso   1.000  H
  H55      1.0000 0.08983  0.69761  0.81019  Biso   1.000  H
  C65      1.0000 0.20420  0.71621  0.84058  Biso   1.000  C
  H56      1.0000 0.25144  0.57550  0.88441  Biso   1.000  H
  C66      1.0000 0.26165  0.67432  0.86621  Biso   1.000  C
  H57      1.0000 0.40944  0.79112  0.53361  Biso   1.000  H
  H58      1.0000 0.47974  0.83268  0.50411  Biso   1.000  H
  C67      1.0000 0.40014  0.88662  0.55631  Biso   1.000  C
  C68      1.0000 0.60230  0.76778  0.89654  Biso   1.000  C
  H59      1.0000 0.94415  0.73571  0.87107  Biso   1.000  H
  H60      1.0000 0.38791  0.55762  0.87578  Biso   1.000  H
  H61      1.0000 0.44863  0.51430  0.92358  Biso   1.000  H
  C69      1.0000 0.36855  0.46212  0.86118  Biso   1.000  C
  C70      1.0000 0.20581  0.78875  0.83069  Biso   1.000  C
  H62      1.0000 0.06575  0.86688  0.78451  Biso   1.000  H
  H63      1.0000 0.31560  0.68419  0.87970  Biso   1.000  H
  H64      1.0000 0.36840  0.88069  0.59668  Biso   1.000  H
  H65      1.0000 0.36450  0.89601  0.51478  Biso   1.000  H
  H66      1.0000 0.43724  0.92201  0.56541  Biso   1.000  H
  C71      1.0000 0.59000  0.83828  0.89518  Biso   1.000  C
  H67      1.0000 0.63583  0.75592  0.93917  Biso   1.000  H
  H68      1.0000 0.55015  0.74619  0.89822  Biso   1.000  H
  H69      1.0000 0.33661  0.46881  0.81688  Biso   1.000  H
  H70      1.0000 0.33291  0.45628  0.89900  Biso   1.000  H
  H71      1.0000 0.40173  0.42431  0.85737  Biso   1.000  H
  C72      1.0000 0.16451  0.82077  0.89063  Biso   1.000  C
  C73      1.0000 0.29320  0.80986  0.83216  Biso   1.000  C
  O10      1.0000 0.53623  0.85796  0.83739  Biso   1.000  O
  H72      1.0000 0.56840  0.85180  0.93948  Biso   1.000  H
  H73      1.0000 0.64213  0.85948  0.89189  Biso   1.000  H
  H74      1.0000 0.16499  0.86688  0.88420  Biso   1.000  H
  H75      1.0000 0.19310  0.80991  0.93540  Biso   1.000  H
  H76      1.0000 0.10934  0.80587  0.89027  Biso   1.000  H
  C74      1.0000 0.34142  0.80549  0.89408  Biso   1.000  C
  C75      1.0000 0.32969  0.83320  0.77441  Biso   1.000  C
  C76      1.0000 0.45742  0.84254  0.83964  Biso   1.000  C
  C77      1.0000 0.42251  0.82006  0.89848  Biso   1.000  C
  H77      1.0000 0.31801  0.79197  0.93519  Biso   1.000  H
  H78      1.0000 0.29863  0.83828  0.73142  Biso   1.000  H
  C78      1.0000 0.40979  0.84914  0.77766  Biso   1.000  C
  H79      1.0000 0.45374  0.81470  0.94137  Biso   1.000  H
  H80      1.0000 0.43242  0.86479  0.73707  Biso   1.000  H
  C79      1.0000 0.45820  0.43494  0.44683  Biso   1.000  C
  C80      1.0000 0.37181  0.44950  0.43308  Biso   1.000  C
  O11      1.0000 0.50172  0.46819  0.39641  Biso   1.000  O
  H81      1.0000 0.46733  0.38868  0.44291  Biso   1.000  H
  H82      1.0000 0.47681  0.44850  0.49469  Biso   1.000  H
  O12      1.0000 0.34299  0.41601  0.37115  Biso   1.000  O
  H83      1.0000 0.36399  0.49571  0.42628  Biso   1.000  H
  H84      1.0000 0.34214  0.43588  0.47330  Biso   1.000  H
  C81      1.0000 0.58352  0.46164  0.40222  Biso   1.000  C
  C82      1.0000 0.25960  0.41648  0.36273  Biso   1.000  C
  C83      1.0000 0.62571  0.42635  0.45384  Biso   1.000  C
  C84      1.0000 0.62459  0.49367  0.35237  Biso   1.000  C
  C85      1.0000 0.21680  0.37080  0.39673  Biso   1.000  C
  C86      1.0000 0.22190  0.46340  0.32141  Biso   1.000  C
  C87      1.0000 0.70832  0.42431  0.45572  Biso   1.000  C
  H85      1.0000 0.59823  0.40372  0.48758  Biso   1.000  H
  H86      1.0000 0.59629  0.51781  0.31681  Biso   1.000  H
  C88      1.0000 0.70702  0.49011  0.35499  Biso   1.000  C
  C89      1.0000 0.25890  0.31761  0.43873  Biso   1.000  C
  C90      1.0000 0.13408  0.37421  0.38998  Biso   1.000  C
  C91      1.0000 0.26883  0.51094  0.28061  Biso   1.000  C
  C92      1.0000 0.13858  0.46563  0.31602  Biso   1.000  C
  C93      1.0000 0.75073  0.45614  0.40703  Biso   1.000  C
  H87      1.0000 0.73674  0.40040  0.49140  Biso   1.000  H
  H88      1.0000 0.73442  0.51141  0.32031  Biso   1.000  H
  C94      1.0000 0.23832  0.25343  0.40729  Biso   1.000  C
  H89      1.0000 0.24313  0.31890  0.48742  Biso   1.000  H
  H90      1.0000 0.31729  0.32411  0.43988  Biso   1.000  H
  H91      1.0000 0.10379  0.34352  0.41278  Biso   1.000  H
  C95      1.0000 0.09460  0.42141  0.35080  Biso   1.000  C
  C96      1.0000 0.25922  0.49694  0.20283  Biso   1.000  C
  H92      1.0000 0.32599  0.50880  0.29698  Biso   1.000  H
  H93      1.0000 0.24964  0.55439  0.28940  Biso   1.000  H
  H94      1.0000 0.11190  0.49760  0.28840  Biso   1.000  H
  C97      1.0000 0.84240  0.45832  0.41493  Biso   1.000  C
  C98      1.0000 0.27470  0.23175  0.34829  Biso   1.000  C
  C99      1.0000 0.17902  0.21614  0.43323  Biso   1.000  C
  H95      1.0000 0.03801  0.42350  0.34772  Biso   1.000  H
  C100     1.0000 0.29119  0.44253  0.17386  Biso   1.000  C
  C101     1.0000 0.21062  0.53527  0.15848  Biso   1.000  C
  C102     1.0000 0.87731  0.47777  0.34756  Biso   1.000  C
  C103     1.0000 0.87884  0.39499  0.43825  Biso   1.000  C
  C104     1.0000 0.86554  0.50842  0.47147  Biso   1.000  C
  C105     1.0000 0.24723  0.17752  0.31194  Biso   1.000  C
  O13      1.0000 0.33284  0.27065  0.32277  Biso   1.000  O
  C106     1.0000 0.15671  0.15869  0.40237  Biso   1.000  C
  H96      1.0000 0.15323  0.23018  0.47288  Biso   1.000  H
  C107     1.0000 0.26833  0.42203  0.10565  Biso   1.000  C
  O14      1.0000 0.34222  0.40320  0.21455  Biso   1.000  O
  C108     1.0000 0.19173  0.51838  0.08939  Biso   1.000  C
  H97      1.0000 0.19011  0.57370  0.17590  Biso   1.000  H
  N5       1.0000 0.87300  0.43835  0.28992  Biso   1.000  N
  C109     1.0000 0.91691  0.53095  0.32863  Biso   1.000  C
  N6       1.0000 0.84797  0.33754  0.41461  Biso   1.000  N
  C110     1.0000 0.94723  0.38185  0.47801  Biso   1.000  C
  H98      1.0000 0.84435  0.54988  0.45620  Biso   1.000  H
  H99      1.0000 0.84302  0.49642  0.51540  Biso   1.000  H
  H100     1.0000 0.92374  0.51079  0.47879  Biso   1.000  H
  C111     1.0000 0.26891  0.16239  0.23788  Biso   1.000  C
  C112     1.0000 0.18991  0.14066  0.34170  Biso   1.000  C
  C113     1.0000 0.41024  0.24299  0.32146  Biso   1.000  C
  H101     1.0000 0.11908  0.13212  0.42277  Biso   1.000  H
  C114     1.0000 0.29171  0.35709  0.08206  Biso   1.000  C
  C115     1.0000 0.21910  0.46164  0.06371  Biso   1.000  C
  C116     1.0000 0.41934  0.42938  0.23192  Biso   1.000  C
  H102     1.0000 0.15980  0.54580  0.05952  Biso   1.000  H
  C117     1.0000 0.90891  0.46639  0.23532  Biso   1.000  C
  H103     1.0000 0.85050  0.40068  0.28830  Biso   1.000  H
  C118     1.0000 0.93633  0.52360  0.25812  Biso   1.000  C
  H104     1.0000 0.92931  0.56668  0.35760  Biso   1.000  H
  C119     1.0000 0.89624  0.28839  0.43993  Biso   1.000  C
  H105     1.0000 0.80394  0.33289  0.38731  Biso   1.000  H
  C120     1.0000 0.95872  0.31529  0.47879  Biso   1.000  C
  H106     1.0000 0.98153  0.41221  0.50128  Biso   1.000  H
  C121     1.0000 0.23131  0.21192  0.18777  Biso   1.000  C
  H107     1.0000 0.24921  0.11960  0.22412  Biso   1.000  H
  H108     1.0000 0.32759  0.16282  0.23600  Biso   1.000  H
  H109     1.0000 0.17320  0.10209  0.31958  Biso   1.000  H
  H110     1.0000 0.40481  0.20082  0.29902  Biso   1.000  H
  H111     1.0000 0.44291  0.26979  0.29222  Biso   1.000  H
  C122     1.0000 0.45342  0.23554  0.39286  Biso   1.000  C
  C123     1.0000 0.24181  0.30575  0.11439  Biso   1.000  C
  H112     1.0000 0.28409  0.35448  0.03049  Biso   1.000  H
  H113     1.0000 0.34878  0.34968  0.09587  Biso   1.000  H
  H114     1.0000 0.20401  0.44969  0.01679  Biso   1.000  H
  H115     1.0000 0.41308  0.47398  0.24687  Biso   1.000  H
  H116     1.0000 0.44509  0.40562  0.27188  Biso   1.000  H
  C124     1.0000 0.47349  0.42791  0.17208  Biso   1.000  C
  C125     1.0000 0.91562  0.43252  0.16575  Biso   1.000  C
  H117     1.0000 0.96370  0.55358  0.23171  Biso   1.000  H
  C126     1.0000 0.87514  0.21937  0.42806  Biso   1.000  C
  H118     1.0000 0.00212  0.29328  0.50217  Biso   1.000  H
  C127     1.0000 0.27698  0.25646  0.15461  Biso   1.000  C
  C128     1.0000 0.14870  0.21557  0.17721  Biso   1.000  C
  O15      1.0000 0.44780  0.26837  0.44338  Biso   1.000  O
  O16      1.0000 0.50355  0.18554  0.39191  Biso   1.000  O
  C129     1.0000 0.15911  0.30808  0.10633  Biso   1.000  C
  O17      1.0000 0.47594  0.38754  0.12846  Biso   1.000  O
  O18      1.0000 0.52215  0.47811  0.17626  Biso   1.000  O
  C130     1.0000 0.85290  0.38133  0.15477  Biso   1.000  C
  C131     1.0000 0.90320  0.48190  0.10654  Biso   1.000  C
  C132     1.0000 0.99981  0.40438  0.16230  Biso   1.000  C
  C133     1.0000 0.88142  0.19963  0.35253  Biso   1.000  C
  C134     1.0000 0.78914  0.20580  0.44762  Biso   1.000  C
  C135     1.0000 0.93303  0.17885  0.47534  Biso   1.000  C
  O19      1.0000 0.35975  0.25305  0.16413  Biso   1.000  O
  H119     1.0000 0.11661  0.18502  0.19839  Biso   1.000  H
  C136     1.0000 0.11241  0.26282  0.13636  Biso   1.000  C
  C137     1.0000 0.55372  0.17302  0.45588  Biso   1.000  C
  H120     1.0000 0.13393  0.34138  0.07971  Biso   1.000  H
  C138     1.0000 0.57938  0.48147  0.12339  Biso   1.000  C
  N7       1.0000 0.86460  0.31837  0.17245  Biso   1.000  N
  C139     1.0000 0.77462  0.38655  0.13118  Biso   1.000  C
  H121     1.0000 0.94412  0.51501  0.11282  Biso   1.000  H
  H122     1.0000 0.90730  0.46098  0.06130  Biso   1.000  H
  H123     1.0000 0.85019  0.50111  0.10790  Biso   1.000  H
  H124     1.0000 0.01084  0.37488  0.20121  Biso   1.000  H
  H125     1.0000 0.00314  0.38180  0.11789  Biso   1.000  H
  H126     1.0000 0.03934  0.43868  0.16549  Biso   1.000  H
  N8       1.0000 0.82752  0.22046  0.30028  Biso   1.000  N
  C140     1.0000 0.93313  0.16002  0.32193  Biso   1.000  C
  H127     1.0000 0.77603  0.16120  0.43799  Biso   1.000  H
  H128     1.0000 0.78520  0.21448  0.49752  Biso   1.000  H
  H129     1.0000 0.75174  0.23308  0.41990  Biso   1.000  H
  H130     1.0000 0.98791  0.18701  0.46357  Biso   1.000  H
  H131     1.0000 0.92771  0.19000  0.52440  Biso   1.000  H
  H132     1.0000 0.92053  0.13378  0.46812  Biso   1.000  H
  C141     1.0000 0.39771  0.23222  0.10340  Biso   1.000  C
  H133     1.0000 0.05592  0.26429  0.12888  Biso   1.000  H
  H134     1.0000 0.59064  0.20888  0.46639  Biso   1.000  H
  H135     1.0000 0.52034  0.16728  0.49589  Biso   1.000  H
  C142     1.0000 0.59994  0.11338  0.44369  Biso   1.000  C
  H136     1.0000 0.61211  0.44238  0.12422  Biso   1.000  H
  H137     1.0000 0.55138  0.48570  0.07642  Biso   1.000  H
  C143     1.0000 0.63153  0.53788  0.13881  Biso   1.000  C
  C144     1.0000 0.79582  0.28379  0.15942  Biso   1.000  C
  H138     1.0000 0.91025  0.30239  0.18981  Biso   1.000  H
  C145     1.0000 0.73843  0.32568  0.13379  Biso   1.000  C
  H139     1.0000 0.74863  0.42450  0.11559  Biso   1.000  H
  C146     1.0000 0.84289  0.19413  0.23688  Biso   1.000  C
  H140     1.0000 0.78830  0.24712  0.30650  Biso   1.000  H
  C147     1.0000 0.90885  0.15698  0.24954  Biso   1.000  C
  H141     1.0000 0.97722  0.13838  0.34500  Biso   1.000  H
  H142     1.0000 0.36418  0.24408  0.06078  Biso   1.000  H
  H143     1.0000 0.44992  0.25381  0.10178  Biso   1.000  H
  C148     1.0000 0.41002  0.16172  0.10482  Biso   1.000  C
  H144     1.0000 0.63162  0.11931  0.40332  Biso   1.000  H
  H145     1.0000 0.63551  0.10399  0.48517  Biso   1.000  H
  H146     1.0000 0.56284  0.07799  0.43459  Biso   1.000  H
  H147     1.0000 0.66341  0.53119  0.18312  Biso   1.000  H
  H148     1.0000 0.66711  0.54372  0.10100  Biso   1.000  H
  H149     1.0000 0.59829  0.57569  0.14258  Biso   1.000  H
  C149     1.0000 0.79420  0.21125  0.16931  Biso   1.000  C
  H150     1.0000 0.68442  0.31581  0.12030  Biso   1.000  H
  H151     1.0000 0.93433  0.13312  0.21549  Biso   1.000  H
  O20      1.0000 0.46378  0.14199  0.16261  Biso   1.000  O
  H152     1.0000 0.43162  0.14820  0.06052  Biso   1.000  H
  H153     1.0000 0.35789  0.14052  0.10811  Biso   1.000  H
  C150     1.0000 0.70681  0.19014  0.16784  Biso   1.000  C
  C151     1.0000 0.83550  0.17923  0.10937  Biso   1.000  C
  C152     1.0000 0.54260  0.15746  0.16036  Biso   1.000  C
  C153     1.0000 0.65860  0.19451  0.10592  Biso   1.000  C
  C154     1.0000 0.67033  0.16680  0.22559  Biso   1.000  C
  H154     1.0000 0.83503  0.13312  0.11580  Biso   1.000  H
  H155     1.0000 0.80692  0.19009  0.06460  Biso   1.000  H
  H156     1.0000 0.89074  0.19408  0.10968  Biso   1.000  H
  C155     1.0000 0.57750  0.17994  0.10152  Biso   1.000  C
  C156     1.0000 0.59022  0.15086  0.22234  Biso   1.000  C
  H157     1.0000 0.68201  0.20798  0.06480  Biso   1.000  H
  H158     1.0000 0.70139  0.16168  0.26858  Biso   1.000  H
  H159     1.0000 0.54633  0.18530  0.05858  Biso   1.000  H
  H160     1.0000 0.56760  0.13521  0.26288  Biso   1.000  H
  C157     1.0000 0.59002  0.66175  0.39521  Biso   1.000  C
  O21      1.0000 0.53619  0.64201  0.33736  Biso   1.000  O
  C158     1.0000 0.60233  0.73225  0.39657  Biso   1.000  C
  H161     1.0000 0.56842  0.64818  0.43951  Biso   1.000  H
  H162     1.0000 0.64210  0.64050  0.39191  Biso   1.000  H
  C159     1.0000 0.45744  0.65748  0.33966  Biso   1.000  C
  O22      1.0000 0.64023  0.75302  0.33584  Biso   1.000  O
  H163     1.0000 0.63579  0.74411  0.43920  Biso   1.000  H
  H164     1.0000 0.55011  0.75378  0.39819  Biso   1.000  H
  C160     1.0000 0.40982  0.65084  0.27768  Biso   1.000  C
  C161     1.0000 0.42253  0.67992  0.39845  Biso   1.000  C
  C162     1.0000 0.72300  0.75649  0.34536  Biso   1.000  C
  C163     1.0000 0.32971  0.66682  0.27444  Biso   1.000  C
  H165     1.0000 0.43244  0.63518  0.23709  Biso   1.000  H
  H166     1.0000 0.45370  0.68528  0.44139  Biso   1.000  H
  C164     1.0000 0.34139  0.69448  0.39411  Biso   1.000  C
  C165     1.0000 0.75823  0.80573  0.38558  Biso   1.000  C
  C166     1.0000 0.76873  0.71189  0.31225  Biso   1.000  C
  C167     1.0000 0.29323  0.69012  0.33218  Biso   1.000  C
  H167     1.0000 0.29859  0.66170  0.23139  Biso   1.000  H
  H168     1.0000 0.31803  0.70800  0.43522  Biso   1.000  H
  C168     1.0000 0.70833  0.85706  0.41791  Biso   1.000  C
  C169     1.0000 0.84093  0.80810  0.39364  Biso   1.000  C
  C170     1.0000 0.85134  0.71559  0.32282  Biso   1.000  C
  C171     1.0000 0.73113  0.66237  0.26210  Biso   1.000  C
  C172     1.0000 0.20583  0.71128  0.33067  Biso   1.000  C
  C173     1.0000 0.73171  0.92201  0.39437  Biso   1.000  C
  H169     1.0000 0.71594  0.85450  0.46948  Biso   1.000  H
  H170     1.0000 0.65120  0.84971  0.40410  Biso   1.000  H
  C174     1.0000 0.88763  0.76284  0.36362  Biso   1.000  C
  H171     1.0000 0.86611  0.84141  0.42031  Biso   1.000  H
  H172     1.0000 0.88343  0.68499  0.30158  Biso   1.000  H
  H173     1.0000 0.75083  0.61957  0.27590  Biso   1.000  H
  H174     1.0000 0.67239  0.66279  0.26398  Biso   1.000  H
  C175     1.0000 0.75281  0.67750  0.18809  Biso   1.000  C
  C176     1.0000 0.20421  0.78377  0.34055  Biso   1.000  C
  C177     1.0000 0.15709  0.69410  0.26314  Biso   1.000  C
  C178     1.0000 0.16453  0.67921  0.39061  Biso   1.000  C
  C179     1.0000 0.70879  0.94250  0.32612  Biso   1.000  C
  C180     1.0000 0.78094  0.96167  0.43632  Biso   1.000  C
  H175     1.0000 0.94411  0.76432  0.37110  Biso   1.000  H
  C181     1.0000 0.72534  0.73172  0.15168  Biso   1.000  C
  C182     1.0000 0.81013  0.64069  0.15832  Biso   1.000  C
  N9       1.0000 0.13544  0.81835  0.32758  Biso   1.000  N
  C183     1.0000 0.26161  0.82570  0.36618  Biso   1.000  C
  N10      1.0000 0.17252  0.72043  0.19975  Biso   1.000  N
  C184     1.0000 0.09120  0.65700  0.25048  Biso   1.000  C
  H176     1.0000 0.16501  0.63309  0.38417  Biso   1.000  H
  H177     1.0000 0.19312  0.69012  0.43538  Biso   1.000  H
  H178     1.0000 0.10930  0.69410  0.39029  Biso   1.000  H
  O23      1.0000 0.65775  0.90322  0.28542  Biso   1.000  O
  C185     1.0000 0.74082  0.99692  0.29719  Biso   1.000  C
  H179     1.0000 0.79602  0.94971  0.48318  Biso   1.000  H
  C186     1.0000 0.80831  0.01841  0.41059  Biso   1.000  C
  O24      1.0000 0.66714  0.77067  0.17721  Biso   1.000  O
  C187     1.0000 0.76172  0.75345  0.09268  Biso   1.000  C
  C188     1.0000 0.84333  0.65871  0.09760  Biso   1.000  C
  H180     1.0000 0.82683  0.60212  0.18040  Biso   1.000  H
  H181     1.0000 0.08980  0.80241  0.31021  Biso   1.000  H
  C189     1.0000 0.14708  0.88135  0.34526  Biso   1.000  C
  C190     1.0000 0.22542  0.88652  0.36880  Biso   1.000  C
  H182     1.0000 0.31562  0.81579  0.37967  Biso   1.000  H
  H183     1.0000 0.21168  0.74709  0.19347  Biso   1.000  H
  C191     1.0000 0.11862  0.69965  0.14744  Biso   1.000  C
  H184     1.0000 0.06571  0.63309  0.28448  Biso   1.000  H
  C192     1.0000 0.06691  0.65999  0.17804  Biso   1.000  C
  C193     1.0000 0.58070  0.92941  0.26811  Biso   1.000  C
  C194     1.0000 0.73120  0.01096  0.21936  Biso   1.000  C
  C195     1.0000 0.78942  0.03530  0.34149  Biso   1.000  C
  H185     1.0000 0.84024  0.04578  0.44050  Biso   1.000  H
  C196     1.0000 0.58980  0.74301  0.17857  Biso   1.000  C
  C197     1.0000 0.82101  0.71612  0.06674  Biso   1.000  C
  C198     1.0000 0.74109  0.81759  0.06130  Biso   1.000  C
  H186     1.0000 0.88090  0.63210  0.07720  Biso   1.000  H
  C199     1.0000 0.08441  0.93254  0.33422  Biso   1.000  C
  H187     1.0000 0.25140  0.92447  0.38438  Biso   1.000  H
  C200     1.0000 0.12490  0.71939  0.07192  Biso   1.000  C
  H188     1.0000 0.02282  0.63841  0.15498  Biso   1.000  H
  H189     1.0000 0.58689  0.97400  0.25310  Biso   1.000  H
  H190     1.0000 0.55489  0.90559  0.22810  Biso   1.000  H
  C201     1.0000 0.52654  0.92789  0.32789  Biso   1.000  C
  C202     1.0000 0.77814  0.96342  0.17857  Biso   1.000  C
  H191     1.0000 0.67398  0.00878  0.20299  Biso   1.000  H
  H192     1.0000 0.75040  0.05441  0.21058  Biso   1.000  H
  H193     1.0000 0.80992  0.07368  0.32408  Biso   1.000  H
  H194     1.0000 0.59523  0.70079  0.20100  Biso   1.000  H
  H195     1.0000 0.55713  0.76982  0.20780  Biso   1.000  H
  C203     1.0000 0.54662  0.73552  0.10717  Biso   1.000  C
  H196     1.0000 0.84681  0.73021  0.02709  Biso   1.000  H
  C204     1.0000 0.78318  0.87077  0.10325  Biso   1.000  C
  H197     1.0000 0.75691  0.81892  0.01261  Biso   1.000  H
  H198     1.0000 0.68269  0.82409  0.06010  Biso   1.000  H
  C205     1.0000 0.09113  0.96636  0.26471  Biso   1.000  C
  C206     1.0000 0.09684  0.98193  0.39348  Biso   1.000  C
  C207     1.0000 0.00023  0.90441  0.33767  Biso   1.000  C
  C208     1.0000 0.10380  0.78837  0.06004  Biso   1.000  C
  C209     1.0000 0.21090  0.70577  0.05236  Biso   1.000  C
  C210     1.0000 0.06701  0.67887  0.02469  Biso   1.000  C
  O25      1.0000 0.52410  0.88757  0.37152  Biso   1.000  O
  O26      1.0000 0.47789  0.97813  0.32376  Biso   1.000  O
  C211     1.0000 0.74044  0.91650  0.13725  Biso   1.000  C
  C212     1.0000 0.86140  0.96561  0.18401  Biso   1.000  C
  O27      1.0000 0.55218  0.76835  0.05665  Biso   1.000  O
  O28      1.0000 0.49649  0.68556  0.10806  Biso   1.000  O
  C213     1.0000 0.86590  0.87424  0.11000  Biso   1.000  C
  N11      1.0000 0.12698  0.93837  0.21011  Biso   1.000  N
  C214     1.0000 0.06371  0.02363  0.24185  Biso   1.000  C
  H199     1.0000 0.09268  0.96100  0.43867  Biso   1.000  H
  H200     1.0000 0.05592  0.01499  0.38721  Biso   1.000  H
  H201     1.0000 0.14978  0.00109  0.39207  Biso   1.000  H
  H202     1.0000 0.98920  0.87490  0.29881  Biso   1.000  H
  H203     1.0000 0.99690  0.88178  0.38208  Biso   1.000  H
  H204     1.0000 0.96070  0.93871  0.33448  Biso   1.000  H
  N12      1.0000 0.15207  0.83752  0.08541  Biso   1.000  N
  C215     1.0000 0.04132  0.81531  0.02118  Biso   1.000  C
  H205     1.0000 0.22401  0.66118  0.06198  Biso   1.000  H
  H206     1.0000 0.21478  0.71450  0.00251  Biso   1.000  H
  H207     1.0000 0.24830  0.73310  0.08008  Biso   1.000  H
  H208     1.0000 0.01213  0.68699  0.03640  Biso   1.000  H
  H209     1.0000 0.07951  0.63381  0.03191  Biso   1.000  H
  H210     1.0000 0.07227  0.68998  0.97563  Biso   1.000  H
  C216     1.0000 0.42060  0.98150  0.37659  Biso   1.000  C
  O29      1.0000 0.65699  0.91598  0.12882  Biso   1.000  O
  C217     1.0000 0.90544  0.92139  0.14922  Biso   1.000  C
  H211     1.0000 0.88814  0.99758  0.21162  Biso   1.000  H
  C218     1.0000 0.44632  0.67299  0.04409  Biso   1.000  C
  H212     1.0000 0.89618  0.84349  0.08719  Biso   1.000  H
  H213     1.0000 0.14948  0.90071  0.21167  Biso   1.000  H
  C219     1.0000 0.12273  0.97780  0.15247  Biso   1.000  C
  C220     1.0000 0.08313  0.03093  0.17140  Biso   1.000  C
  H214     1.0000 0.03628  0.05361  0.26832  Biso   1.000  H
  H215     1.0000 0.19610  0.83291  0.11272  Biso   1.000  H
  C221     1.0000 0.12119  0.89497  0.06172  Biso   1.000  C
  C222     1.0000 0.05281  0.88183  0.02202  Biso   1.000  C
  H216     1.0000 0.99791  0.79330  0.99780  Biso   1.000  H
  H217     1.0000 0.38793  0.94241  0.37580  Biso   1.000  H
  H218     1.0000 0.44860  0.98567  0.42361  Biso   1.000  H
  C223     1.0000 0.36851  0.03791  0.36121  Biso   1.000  C
  C224     1.0000 0.62823  0.94948  0.06695  Biso   1.000  C
  H219     1.0000 0.96204  0.92348  0.15231  Biso   1.000  H
  H220     1.0000 0.40939  0.70890  0.03358  Biso   1.000  H
  H221     1.0000 0.47970  0.66730  0.00408  Biso   1.000  H
  C225     1.0000 0.40010  0.61341  0.05628  Biso   1.000  C
  C226     1.0000 0.15758  0.95830  0.08510  Biso   1.000  C
  H222     1.0000 0.07073  0.06670  0.14242  Biso   1.000  H
  H223     1.0000 0.01851  0.91219  0.99869  Biso   1.000  H
  H224     1.0000 0.33663  0.03122  0.31691  Biso   1.000  H
  H225     1.0000 0.33293  0.04369  0.39897  Biso   1.000  H
  H226     1.0000 0.40169  0.07572  0.35739  Biso   1.000  H
  C227     1.0000 0.54178  0.93496  0.05319  Biso   1.000  C
  H227     1.0000 0.63599  0.99568  0.07370  Biso   1.000  H
  H228     1.0000 0.65790  0.93591  0.02668  Biso   1.000  H
  H229     1.0000 0.36842  0.61929  0.09671  Biso   1.000  H
  H230     1.0000 0.36453  0.60401  0.01480  Biso   1.000  H
  H231     1.0000 0.43720  0.57802  0.06538  Biso   1.000  H
  C228     1.0000 0.24931  0.95612  0.09300  Biso   1.000  C
  C229     1.0000 0.13449  0.00844  0.02851  Biso   1.000  C
  O30      1.0000 0.49832  0.96821  0.10361  Biso   1.000  O
  H232     1.0000 0.53271  0.88870  0.05712  Biso   1.000  H
  H233     1.0000 0.52322  0.94848  0.00528  Biso   1.000  H
  C230     1.0000 0.29173  0.92428  0.04430  Biso   1.000  C
  C231     1.0000 0.29302  0.99013  0.14504  Biso   1.000  C
  H234     1.0000 0.15702  0.99639  0.98462  Biso   1.000  H
  H235     1.0000 0.15569  0.04991  0.04378  Biso   1.000  H
  H236     1.0000 0.07630  0.01082  0.02118  Biso   1.000  H
  C232     1.0000 0.41652  0.96167  0.09781  Biso   1.000  C
  H237     1.0000 0.26329  0.90037  0.00858  Biso   1.000  H
  C233     1.0000 0.37433  0.92632  0.04618  Biso   1.000  C
  C234     1.0000 0.37539  0.99364  0.14760  Biso   1.000  C
  H238     1.0000 0.26562  0.01139  0.17972  Biso   1.000  H
  H239     1.0000 0.40180  0.90370  0.01240  Biso   1.000  H
  H240     1.0000 0.40369  0.01779  0.18322  Biso   1.000  H
  C235     1.0000 0.41000  0.33825  0.60479  Biso   1.000  C
  C236     1.0000 0.39769  0.26775  0.60343  Biso   1.000  C
  O31      1.0000 0.46383  0.35799  0.66264  Biso   1.000  O
  H241     1.0000 0.43160  0.35182  0.56049  Biso   1.000  H
  H242     1.0000 0.35792  0.35950  0.60809  Biso   1.000  H
  O32      1.0000 0.35978  0.24698  0.66410  Biso   1.000  O
  H243     1.0000 0.36422  0.25589  0.56080  Biso   1.000  H
  H244     1.0000 0.44991  0.24622  0.60181  Biso   1.000  H
  C237     1.0000 0.54263  0.34252  0.66034  Biso   1.000  C
  C238     1.0000 0.27702  0.24351  0.65458  Biso   1.000  C
  C239     1.0000 0.57755  0.32008  0.60155  Biso   1.000  C
  C240     1.0000 0.59020  0.34916  0.72232  Biso   1.000  C
  C241     1.0000 0.24179  0.19427  0.61441  Biso   1.000  C
  C242     1.0000 0.23129  0.28811  0.68774  Biso   1.000  C
  H245     1.0000 0.54631  0.31472  0.55861  Biso   1.000  H
  C243     1.0000 0.65863  0.30552  0.60589  Biso   1.000  C
  C244     1.0000 0.67031  0.33318  0.72556  Biso   1.000  C
  H246     1.0000 0.56764  0.36482  0.76291  Biso   1.000  H
  C245     1.0000 0.29169  0.14294  0.58209  Biso   1.000  C
  C246     1.0000 0.15909  0.19190  0.60636  Biso   1.000  C
  C247     1.0000 0.14873  0.28441  0.67718  Biso   1.000  C
  C248     1.0000 0.26889  0.33759  0.73790  Biso   1.000  C
  H247     1.0000 0.68204  0.29200  0.56478  Biso   1.000  H
  C249     1.0000 0.70685  0.30988  0.66782  Biso   1.000  C
  H248     1.0000 0.70143  0.33830  0.76861  Biso   1.000  H
  C250     1.0000 0.26831  0.07799  0.60563  Biso   1.000  C
  H249     1.0000 0.28413  0.14550  0.53052  Biso   1.000  H
  H250     1.0000 0.34882  0.15029  0.59590  Biso   1.000  H
  C251     1.0000 0.11239  0.23716  0.63638  Biso   1.000  C
  H251     1.0000 0.13391  0.15859  0.57968  Biso   1.000  H
  H252     1.0000 0.11659  0.31501  0.69841  Biso   1.000  H
  H253     1.0000 0.24924  0.38038  0.72410  Biso   1.000  H
  H254     1.0000 0.32762  0.33721  0.73597  Biso   1.000  H
  C252     1.0000 0.24720  0.32250  0.81191  Biso   1.000  C
  C253     1.0000 0.79424  0.28872  0.66928  Biso   1.000  C
  C254     1.0000 0.29123  0.05745  0.67388  Biso   1.000  C
  C255     1.0000 0.21913  0.03833  0.56368  Biso   1.000  C
  H255     1.0000 0.05591  0.23568  0.62890  Biso   1.000  H
  C256     1.0000 0.27474  0.26828  0.84832  Biso   1.000  C
  C257     1.0000 0.18989  0.35931  0.84168  Biso   1.000  C
  C258     1.0000 0.79580  0.21623  0.65945  Biso   1.000  C
  C259     1.0000 0.84293  0.30585  0.73686  Biso   1.000  C
  C260     1.0000 0.83554  0.32079  0.60934  Biso   1.000  C
  O33      1.0000 0.34227  0.09678  0.71458  Biso   1.000  O
  C261     1.0000 0.25919  0.00308  0.70281  Biso   1.000  C
  H256     1.0000 0.20399  0.05029  0.51682  Biso   1.000  H
  C262     1.0000 0.19171  0.98159  0.58941  Biso   1.000  C
  O34      1.0000 0.33287  0.22933  0.82274  Biso   1.000  O
  C263     1.0000 0.23830  0.24655  0.90732  Biso   1.000  C
  C264     1.0000 0.15674  0.34129  0.90235  Biso   1.000  C
  H257     1.0000 0.17324  0.39788  0.81960  Biso   1.000  H
  N13      1.0000 0.86464  0.18165  0.67242  Biso   1.000  N
  C265     1.0000 0.73841  0.17430  0.63382  Biso   1.000  C
  N14      1.0000 0.82755  0.27957  0.80025  Biso   1.000  N
  C266     1.0000 0.90882  0.34300  0.74952  Biso   1.000  C
  H258     1.0000 0.83500  0.36691  0.61577  Biso   1.000  H
  H259     1.0000 0.80689  0.30988  0.56457  Biso   1.000  H
  H260     1.0000 0.89072  0.30590  0.60971  Biso   1.000  H
  C267     1.0000 0.41931  0.07059  0.73189  Biso   1.000  C
  C268     1.0000 0.26882  0.98904  0.78064  Biso   1.000  C
  C269     1.0000 0.21060  0.96470  0.65851  Biso   1.000  C
  H261     1.0000 0.15983  0.95422  0.55950  Biso   1.000  H
  C270     1.0000 0.41022  0.25699  0.82143  Biso   1.000  C
  C271     1.0000 0.25893  0.18241  0.93870  Biso   1.000  C
  C272     1.0000 0.17900  0.28388  0.93321  Biso   1.000  C
  H262     1.0000 0.11912  0.36790  0.92280  Biso   1.000  H
  H263     1.0000 0.91022  0.19759  0.68978  Biso   1.000  H
  C273     1.0000 0.85294  0.11865  0.65474  Biso   1.000  C
  C274     1.0000 0.77459  0.11343  0.63115  Biso   1.000  C
  H264     1.0000 0.68440  0.18421  0.62027  Biso   1.000  H
  H265     1.0000 0.78833  0.25291  0.80647  Biso   1.000  H
  C275     1.0000 0.88145  0.30035  0.85250  Biso   1.000  C
  H266     1.0000 0.93431  0.36691  0.71552  Biso   1.000  H
  C276     1.0000 0.93311  0.34001  0.82196  Biso   1.000  C
  H267     1.0000 0.41313  0.02600  0.74690  Biso   1.000  H
  H268     1.0000 0.44513  0.09441  0.77190  Biso   1.000  H
  C277     1.0000 0.47354  0.07211  0.67211  Biso   1.000  C
  C278     1.0000 0.22194  0.03658  0.82143  Biso   1.000  C
  H269     1.0000 0.32604  0.99122  0.79701  Biso   1.000  H
  H270     1.0000 0.24961  0.94559  0.78937  Biso   1.000  H
  H271     1.0000 0.19009  0.92628  0.67587  Biso   1.000  H
  H272     1.0000 0.40484  0.29921  0.79900  Biso   1.000  H
  H273     1.0000 0.44295  0.23018  0.79220  Biso   1.000  H
  C279     1.0000 0.45339  0.26448  0.89283  Biso   1.000  C
  C280     1.0000 0.21684  0.12923  0.89675  Biso   1.000  C
  H274     1.0000 0.24311  0.18108  0.98739  Biso   1.000  H
  H275     1.0000 0.31733  0.17591  0.93990  Biso   1.000  H
  H276     1.0000 0.15321  0.26979  0.97291  Biso   1.000  H
  C281     1.0000 0.91560  0.06746  0.66572  Biso   1.000  C
  H277     1.0000 0.74861  0.07548  0.61562  Biso   1.000  H
  C282     1.0000 0.87512  0.28061  0.92803  Biso   1.000  C
  H278     1.0000 0.97726  0.36159  0.84497  Biso   1.000  H
  O35      1.0000 0.47592  0.11243  0.62848  Biso   1.000  O
  O36      1.0000 0.52212  0.02187  0.67624  Biso   1.000  O
  C283     1.0000 0.25964  0.08350  0.86275  Biso   1.000  C
  C284     1.0000 0.13862  0.03435  0.81599  Biso   1.000  C
  O37      1.0000 0.44784  0.23165  0.94335  Biso   1.000  O
  O38      1.0000 0.50353  0.31444  0.89194  Biso   1.000  O
  C285     1.0000 0.13412  0.12576  0.89000  Biso   1.000  C
  C286     1.0000 0.90895  0.03364  0.73529  Biso   1.000  C
  C287     1.0000 0.90324  0.01807  0.60652  Biso   1.000  C
  C288     1.0000 0.99985  0.09559  0.66227  Biso   1.000  C
  C289     1.0000 0.89622  0.21163  0.93995  Biso   1.000  C
  C290     1.0000 0.78912  0.29423  0.94764  Biso   1.000  C
  C291     1.0000 0.93300  0.32113  0.97531  Biso   1.000  C
  C292     1.0000 0.57942  0.01850  0.62341  Biso   1.000  C
  O39      1.0000 0.34303  0.08402  0.87117  Biso   1.000  O
  C293     1.0000 0.09463  0.07861  0.85078  Biso   1.000  C
  H279     1.0000 0.11193  0.00242  0.78838  Biso   1.000  H
  C294     1.0000 0.55370  0.32701  0.95591  Biso   1.000  C
  H280     1.0000 0.10384  0.15651  0.91281  Biso   1.000  H
  N15      1.0000 0.87304  0.06163  0.78989  Biso   1.000  N
  C295     1.0000 0.93631  0.97637  0.75815  Biso   1.000  C
  H281     1.0000 0.90733  0.03900  0.56127  Biso   1.000  H
  H282     1.0000 0.94410  0.98501  0.61279  Biso   1.000  H
  H283     1.0000 0.85023  0.99891  0.60788  Biso   1.000  H
  H284     1.0000 0.01081  0.12510  0.70119  Biso   1.000  H
  H285     1.0000 0.00312  0.11822  0.61792  Biso   1.000  H
  H286     1.0000 0.03932  0.06129  0.66552  Biso   1.000  H
  N16      1.0000 0.84800  0.16248  0.91459  Biso   1.000  N
  C296     1.0000 0.95876  0.18469  0.97882  Biso   1.000  C
  H287     1.0000 0.77600  0.33882  0.93797  Biso   1.000  H
  H288     1.0000 0.78523  0.28550  0.99749  Biso   1.000  H
  H289     1.0000 0.75172  0.26690  0.91987  Biso   1.000  H
  H290     1.0000 0.98795  0.31301  0.96360  Biso   1.000  H
  H291     1.0000 0.92051  0.36619  0.96809  Biso   1.000  H
  H292     1.0000 0.92774  0.30998  0.02437  Biso   1.000  H
  H293     1.0000 0.61215  0.05759  0.62420  Biso   1.000  H
  H294     1.0000 0.55142  0.01428  0.57639  Biso   1.000  H
  C297     1.0000 0.63150  0.96209  0.63879  Biso   1.000  C
  C298     1.0000 0.37185  0.05052  0.93305  Biso   1.000  C
  H295     1.0000 0.03804  0.07652  0.84769  Biso   1.000  H
  H296     1.0000 0.59062  0.29110  0.96637  Biso   1.000  H
  H297     1.0000 0.52032  0.33270  0.99587  Biso   1.000  H
  C299     1.0000 0.59992  0.38659  0.94367  Biso   1.000  C
  C300     1.0000 0.87735  0.02220  0.84753  Biso   1.000  C
  H298     1.0000 0.85053  0.09929  0.78827  Biso   1.000  H
  C301     1.0000 0.91694  0.96907  0.82860  Biso   1.000  C
  H299     1.0000 0.96373  0.94639  0.73168  Biso   1.000  H
  C302     1.0000 0.87883  0.10503  0.93828  Biso   1.000  C
  H300     1.0000 0.80391  0.16709  0.88728  Biso   1.000  H
  C303     1.0000 0.94721  0.11817  0.97798  Biso   1.000  C
  H301     1.0000 0.00210  0.20670  0.00220  Biso   1.000  H
  H302     1.0000 0.66344  0.96878  0.68309  Biso   1.000  H
  H303     1.0000 0.66715  0.95631  0.60097  Biso   1.000  H
  H304     1.0000 0.59833  0.92428  0.64261  Biso   1.000  H
  C304     1.0000 0.45824  0.06504  0.94681  Biso   1.000  C
  H305     1.0000 0.36403  0.00432  0.92630  Biso   1.000  H
  H306     1.0000 0.34212  0.06409  0.97327  Biso   1.000  H
  H307     1.0000 0.63160  0.38071  0.90329  Biso   1.000  H
  H308     1.0000 0.63555  0.39599  0.98520  Biso   1.000  H
  H309     1.0000 0.56281  0.42198  0.93457  Biso   1.000  H
  C305     1.0000 0.84244  0.04170  0.91490  Biso   1.000  C
  H310     1.0000 0.92935  0.93330  0.85758  Biso   1.000  H
  H311     1.0000 0.98151  0.08781  0.00131  Biso   1.000  H
  O40      1.0000 0.50176  0.03179  0.89639  Biso   1.000  O
  H312     1.0000 0.46731  0.11130  0.94288  Biso   1.000  H
  H313     1.0000 0.47685  0.05152  0.99472  Biso   1.000  H
  C306     1.0000 0.75071  0.04388  0.90700  Biso   1.000  C
  C307     1.0000 0.86552  0.99156  0.97144  Biso   1.000  C
  C308     1.0000 0.58350  0.03833  0.90219  Biso   1.000  C
  C309     1.0000 0.70835  0.07572  0.95570  Biso   1.000  C
  C310     1.0000 0.70700  0.00987  0.85496  Biso   1.000  C
  H314     1.0000 0.84432  0.95009  0.95617  Biso   1.000  H
  H315     1.0000 0.92372  0.98918  0.97882  Biso   1.000  H
  H316     1.0000 0.84306  0.00361  0.01538  Biso   1.000  H
  C311     1.0000 0.62574  0.07368  0.95382  Biso   1.000  C
  C312     1.0000 0.62463  0.00636  0.85240  Biso   1.000  C
  H317     1.0000 0.73672  0.09958  0.99137  Biso   1.000  H
  H318     1.0000 0.73440  0.98861  0.82028  Biso   1.000  H
  H319     1.0000 0.59821  0.09630  0.98760  Biso   1.000  H
  H320     1.0000 0.59633  0.98221  0.81678  Biso   1.000  H
  Ne1      1.0000 0.54502  0.33153  0.27758  Biso   1.000  Ne
  He1      1.0000 0.66918  0.29477  0.47993  Biso   1.000  He
  He2      1.0000 0.73108  0.11455  0.35528  Biso   1.000  He
  He3      1.0000 0.85208  0.32114  0.30360  Biso   1.000  He
  He4      1.0000 0.56864  0.30071  0.12428  Biso   1.000  He
  Ar1      1.0000 0.61080  0.32702  0.28289  Biso   1.000  Ar
  Ne2      1.0000 0.54503  0.16847  0.77758  Biso   1.000  Ne
  He5      1.0000 0.65822  0.20382  0.95292  Biso   1.000  He
  He6      1.0000 0.73196  0.38729  0.85501  Biso   1.000  He
  He7      1.0000 0.84951  0.17989  0.78342  Biso   1.000  He
  He8      1.0000 0.00000  0.00000  0.00000  Biso   1.000  He
  He9      1.0000 0.56940  0.20016  0.63291  Biso   1.000  He
  Ar2      1.0000 0.60976  0.17276  0.78360  Biso   1.000  Ar
  Ne3      1.0000 0.45500  0.66847  0.72241  Biso   1.000  Ne
  He10     1.0000 0.43371  0.69185  0.93409  Biso   1.000  He
  He11     1.0000 0.00000  0.00000  0.00000  Biso   1.000  He
  He12     1.0000 0.21011  0.67089  0.72416  Biso   1.000  He
  He13     1.0000 0.34101  0.70381  0.54513  Biso   1.000  He
  Ar3      1.0000 0.39025  0.67277  0.71640  Biso   1.000  Ar
  Ne4      1.0000 0.45500  0.83153  0.22242  Biso   1.000  Ne
  He14     1.0000 0.43131  0.80058  0.37451  Biso   1.000  He
  He15     1.0000 0.14516  0.82093  0.19640  Biso   1.000  He
  He16     1.0000 0.41652  0.64625  0.15915  Biso   1.000  He
  He17     1.0000 0.26856  0.61378  0.14482  Biso   1.000  He
  He18     1.0000 0.33072  0.79475  0.01948  Biso   1.000  He
  Ar4      1.0000 0.38915  0.82652  0.21613  Biso   1.000  Ar
