data_image0
_cell_length_a       19.931
_cell_length_b       23.719
_cell_length_c       20.402
_cell_angle_alpha    90
_cell_angle_beta     116.02
_cell_angle_gamma    90

_symmetry_space_group_name_H-M    "P 1"
_symmetry_int_tables_number       1

loop_
  _symmetry_equiv_pos_as_xyz
  'x, y, z'

loop_
  _atom_site_label
  _atom_site_occupancy
  _atom_site_fract_x
  _atom_site_fract_y
  _atom_site_fract_z
  _atom_site_thermal_displace_type
  _atom_site_B_iso_or_equiv
  _atom_site_type_symbol
  C1       1.0000 0.55203  0.45204  0.46084  Biso   1.000  C
  C2       1.0000 0.59699  0.42417  0.42598  Biso   1.000  C
  H1       1.0000 0.50294  0.43320  0.44404  Biso   1.000  H
  H2       1.0000 0.54326  0.49209  0.44600  Biso   1.000  H
  C3       1.0000 0.59430  0.44795  0.54347  Biso   1.000  C
  C4       1.0000 0.61583  0.36764  0.43956  Biso   1.000  C
  C5       1.0000 0.62463  0.45445  0.38464  Biso   1.000  C
  C6       1.0000 0.66697  0.46861  0.58138  Biso   1.000  C
  C7       1.0000 0.56498  0.41650  0.58241  Biso   1.000  C
  C8       1.0000 0.66110  0.34205  0.41278  Biso   1.000  C
  H3       1.0000 0.59749  0.34622  0.46754  Biso   1.000  H
  O1       1.0000 0.61332  0.51250  0.37777  Biso   1.000  O
  C9       1.0000 0.67002  0.42949  0.35655  Biso   1.000  C
  O2       1.0000 0.69916  0.50158  0.54647  Biso   1.000  O
  C10      1.0000 0.71275  0.45234  0.65261  Biso   1.000  C
  C11      1.0000 0.60738  0.40411  0.65539  Biso   1.000  C
  H4       1.0000 0.51497  0.40331  0.55852  Biso   1.000  H
  C12      1.0000 0.68724  0.37274  0.37144  Biso   1.000  C
  H5       1.0000 0.67419  0.30339  0.42293  Biso   1.000  H
  C13      1.0000 0.55625  0.53236  0.31068  Biso   1.000  C
  C14      1.0000 0.70468  0.46385  0.31608  Biso   1.000  C
  C15      1.0000 0.66731  0.55656  0.52651  Biso   1.000  C
  C16      1.0000 0.68152  0.42046  0.68943  Biso   1.000  C
  C17      1.0000 0.79547  0.46385  0.68397  Biso   1.000  C
  H6       1.0000 0.58577  0.38450  0.68201  Biso   1.000  H
  H7       1.0000 0.71777  0.35469  0.35273  Biso   1.000  H
  C18      1.0000 0.57178  0.59349  0.30381  Biso   1.000  C
  H8       1.0000 0.50666  0.52802  0.31030  Biso   1.000  H
  H9       1.0000 0.55642  0.51060  0.26939  Biso   1.000  H
  C19      1.0000 0.78735  0.45234  0.34744  Biso   1.000  C
  H10      1.0000 0.68066  0.45381  0.26372  Biso   1.000  H
  H11      1.0000 0.69612  0.50449  0.32050  Biso   1.000  H
  H12      1.0000 0.61225  0.55310  0.50120  Biso   1.000  H
  H13      1.0000 0.68405  0.57338  0.49182  Biso   1.000  H
  C20      1.0000 0.68824  0.59539  0.59087  Biso   1.000  C
  H14      1.0000 0.71149  0.40971  0.73862  Biso   1.000  H
  H15      1.0000 0.81949  0.45381  0.73633  Biso   1.000  H
  H16      1.0000 0.80398  0.50449  0.67955  Biso   1.000  H
  C21      1.0000 0.83013  0.42949  0.64350  Biso   1.000  C
  O3       1.0000 0.56092  0.62482  0.35840  Biso   1.000  O
  H17      1.0000 0.62376  0.59809  0.31051  Biso   1.000  H
  H18      1.0000 0.53764  0.60749  0.25472  Biso   1.000  H
  C22      1.0000 0.83318  0.46861  0.41867  Biso   1.000  C
  C23      1.0000 0.81858  0.42046  0.31062  Biso   1.000  C
  O4       1.0000 0.74598  0.59665  0.64459  Biso   1.000  O
  O5       1.0000 0.63044  0.62844  0.58350  Biso   1.000  O
  O6       1.0000 0.63837  0.63898  0.55143  Biso   1.000  O
  C24      1.0000 0.81291  0.37274  0.62861  Biso   1.000  C
  C25      1.0000 0.87552  0.45445  0.61541  Biso   1.000  C
  C26      1.0000 0.56887  0.68220  0.35677  Biso   1.000  C
  O7       1.0000 0.80099  0.50158  0.45358  Biso   1.000  O
  C27      1.0000 0.90585  0.44795  0.45658  Biso   1.000  C
  H19      1.0000 0.78866  0.40971  0.26143  Biso   1.000  H
  C28      1.0000 0.89277  0.40411  0.34466  Biso   1.000  C
  C29      1.0000 0.64502  0.67119  0.63897  Biso   1.000  C
  C30      1.0000 0.65477  0.69000  0.59545  Biso   1.000  C
  H20      1.0000 0.78238  0.35469  0.64732  Biso   1.000  H
  C31      1.0000 0.83905  0.34205  0.58727  Biso   1.000  C
  C32      1.0000 0.90316  0.42417  0.57407  Biso   1.000  C
  O8       1.0000 0.88681  0.51250  0.62223  Biso   1.000  O
  C33      1.0000 0.54051  0.71369  0.39653  Biso   1.000  C
  C34      1.0000 0.60244  0.70968  0.31902  Biso   1.000  C
  C35      1.0000 0.83284  0.55656  0.47354  Biso   1.000  C
  C36      1.0000 0.94812  0.45204  0.53921  Biso   1.000  C
  C37      1.0000 0.93515  0.41650  0.41758  Biso   1.000  C
  H21      1.0000 0.91435  0.38450  0.31799  Biso   1.000  H
  H22      1.0000 0.67785  0.70100  0.63510  Biso   1.000  H
  H23      1.0000 0.66959  0.65429  0.68834  Biso   1.000  H
  C38      1.0000 0.57028  0.69531  0.62528  Biso   1.000  C
  H24      1.0000 0.63741  0.64821  0.67443  Biso   1.000  H
  H25      1.0000 0.63459  0.72360  0.56414  Biso   1.000  H
  H26      1.0000 0.70927  0.69472  0.62441  Biso   1.000  H
  C39      1.0000 0.61726  0.68190  0.64443  Biso   1.000  C
  C40      1.0000 0.88432  0.36764  0.56049  Biso   1.000  C
  H27      1.0000 0.82596  0.30339  0.57712  Biso   1.000  H
  C41      1.0000 0.94390  0.53236  0.68937  Biso   1.000  C
  C42      1.0000 0.54330  0.77204  0.39593  Biso   1.000  C
  H28      1.0000 0.51919  0.69510  0.42424  Biso   1.000  H
  H29      1.0000 0.62362  0.68869  0.29312  Biso   1.000  H
  C43      1.0000 0.60495  0.76837  0.31935  Biso   1.000  C
  H30      1.0000 0.88788  0.55310  0.49880  Biso   1.000  H
  H31      1.0000 0.81610  0.57338  0.50823  Biso   1.000  H
  C44      1.0000 0.81191  0.59539  0.40918  Biso   1.000  C
  H32      1.0000 0.99716  0.43320  0.55601  Biso   1.000  H
  H33      1.0000 0.95689  0.49209  0.55405  Biso   1.000  H
  H34      1.0000 0.98518  0.40331  0.44153  Biso   1.000  H
  H35      1.0000 0.54666  0.71158  0.57625  Biso   1.000  H
  H36      1.0000 0.57709  0.72469  0.66134  Biso   1.000  H
  H37      1.0000 0.53848  0.66529  0.62932  Biso   1.000  H
  H38      1.0000 0.62658  0.71491  0.67612  Biso   1.000  H
  H39      1.0000 0.56347  0.67739  0.61470  Biso   1.000  H
  H40      1.0000 0.90266  0.34622  0.53251  Biso   1.000  H
  C45      1.0000 0.92837  0.59349  0.69624  Biso   1.000  C
  H41      1.0000 0.99349  0.52802  0.68975  Biso   1.000  H
  H42      1.0000 0.94370  0.51060  0.73061  Biso   1.000  H
  C46      1.0000 0.57469  0.80071  0.35655  Biso   1.000  C
  H43      1.0000 0.52327  0.79299  0.42304  Biso   1.000  H
  H44      1.0000 0.62803  0.78688  0.29333  Biso   1.000  H
  O9       1.0000 0.75417  0.59665  0.35546  Biso   1.000  O
  O10      1.0000 0.86971  0.62844  0.41655  Biso   1.000  O
  O11      1.0000 0.86178  0.63898  0.44862  Biso   1.000  O
  O12      1.0000 0.93923  0.62482  0.64165  Biso   1.000  O
  H45      1.0000 0.87639  0.59809  0.68954  Biso   1.000  H
  H46      1.0000 0.96251  0.60749  0.74533  Biso   1.000  H
  C47      1.0000 0.57079  0.86542  0.35099  Biso   1.000  C
  C48      1.0000 0.85513  0.67119  0.36108  Biso   1.000  C
  C49      1.0000 0.84538  0.69000  0.40460  Biso   1.000  C
  C50      1.0000 0.93128  0.68220  0.64328  Biso   1.000  C
  C51      1.0000 0.57429  0.89064  0.42069  Biso   1.000  C
  C52      1.0000 0.49491  0.88073  0.28782  Biso   1.000  C
  C53      1.0000 0.63222  0.88954  0.33473  Biso   1.000  C
  H47      1.0000 0.82223  0.70100  0.36489  Biso   1.000  H
  H48      1.0000 0.83056  0.65429  0.31171  Biso   1.000  H
  C54      1.0000 0.92987  0.69531  0.37477  Biso   1.000  C
  H49      1.0000 0.86274  0.64821  0.32562  Biso   1.000  H
  H50      1.0000 0.86556  0.72360  0.43591  Biso   1.000  H
  H51      1.0000 0.79088  0.69472  0.37564  Biso   1.000  H
  C55      1.0000 0.88284  0.68190  0.35562  Biso   1.000  C
  C56      1.0000 0.95964  0.71369  0.60352  Biso   1.000  C
  C57      1.0000 0.89763  0.70968  0.68097  Biso   1.000  C
  N1       1.0000 0.63014  0.87622  0.48740  Biso   1.000  N
  C58      1.0000 0.52770  0.92732  0.43313  Biso   1.000  C
  H52      1.0000 0.48974  0.92179  0.28379  Biso   1.000  H
  H53      1.0000 0.45462  0.86479  0.29721  Biso   1.000  H
  H54      1.0000 0.49215  0.86530  0.24212  Biso   1.000  H
  N2       1.0000 0.70576  0.87550  0.37602  Biso   1.000  N
  C59      1.0000 0.63006  0.92715  0.28253  Biso   1.000  C
  H55      1.0000 0.95344  0.71158  0.42380  Biso   1.000  H
  H56      1.0000 0.92306  0.72469  0.33871  Biso   1.000  H
  H57      1.0000 0.96167  0.66529  0.37073  Biso   1.000  H
  H58      1.0000 0.87357  0.71491  0.32393  Biso   1.000  H
  H59      1.0000 0.93665  0.67739  0.38529  Biso   1.000  H
  C60      1.0000 0.95685  0.77204  0.60412  Biso   1.000  C
  H60      1.0000 0.98096  0.69510  0.57581  Biso   1.000  H
  H61      1.0000 0.87648  0.68869  0.70694  Biso   1.000  H
  C61      1.0000 0.89520  0.76837  0.68070  Biso   1.000  C
  H62      1.0000 0.66737  0.85328  0.49422  Biso   1.000  H
  C62      1.0000 0.61965  0.90278  0.54227  Biso   1.000  C
  C63      1.0000 0.55647  0.93474  0.50938  Biso   1.000  C
  H63      1.0000 0.48404  0.94452  0.39702  Biso   1.000  H
  H64      1.0000 0.72196  0.85210  0.41333  Biso   1.000  H
  C64      1.0000 0.75056  0.90333  0.35066  Biso   1.000  C
  H65      1.0000 0.58655  0.94418  0.24610  Biso   1.000  H
  C65      1.0000 0.70405  0.93592  0.29257  Biso   1.000  C
  C66      1.0000 0.92546  0.80071  0.64350  Biso   1.000  C
  H66      1.0000 0.97689  0.79299  0.57701  Biso   1.000  H
  H67      1.0000 0.87207  0.78688  0.70672  Biso   1.000  H
  C67      1.0000 0.66745  0.88975  0.62223  Biso   1.000  C
  H68      1.0000 0.53543  0.95788  0.53360  Biso   1.000  H
  C68      1.0000 0.83270  0.88975  0.37782  Biso   1.000  C
  H69      1.0000 0.71906  0.96012  0.26432  Biso   1.000  H
  C69      1.0000 0.92936  0.86542  0.64906  Biso   1.000  C
  C70      1.0000 0.74954  0.90333  0.64939  Biso   1.000  C
  C71      1.0000 0.63675  0.92306  0.66750  Biso   1.000  C
  C72      1.0000 0.65992  0.82613  0.63428  Biso   1.000  C
  C73      1.0000 0.88047  0.90278  0.45773  Biso   1.000  C
  C74      1.0000 0.86340  0.92306  0.33255  Biso   1.000  C
  C75      1.0000 0.84021  0.82613  0.36571  Biso   1.000  C
  C76      1.0000 0.86793  0.88954  0.66532  Biso   1.000  C
  C77      1.0000 0.92586  0.89064  0.57936  Biso   1.000  C
  C78      1.0000 0.00524  0.88073  0.71223  Biso   1.000  C
  N3       1.0000 0.79440  0.87550  0.62403  Biso   1.000  N
  C79      1.0000 0.79610  0.93592  0.70748  Biso   1.000  C
  H70      1.0000 0.63948  0.96349  0.65916  Biso   1.000  H
  H71      1.0000 0.66660  0.91471  0.71932  Biso   1.000  H
  H72      1.0000 0.58471  0.91231  0.65294  Biso   1.000  H
  H73      1.0000 0.60730  0.81690  0.61945  Biso   1.000  H
  H74      1.0000 0.68918  0.81711  0.68605  Biso   1.000  H
  H75      1.0000 0.67858  0.80421  0.60510  Biso   1.000  H
  N4       1.0000 0.86996  0.87622  0.51265  Biso   1.000  N
  C80      1.0000 0.94368  0.93474  0.49067  Biso   1.000  C
  H76      1.0000 0.86067  0.96349  0.34090  Biso   1.000  H
  H77      1.0000 0.83355  0.91471  0.28073  Biso   1.000  H
  H78      1.0000 0.91544  0.91231  0.34711  Biso   1.000  H
  H79      1.0000 0.89285  0.81690  0.38060  Biso   1.000  H
  H80      1.0000 0.81097  0.81711  0.31401  Biso   1.000  H
  H81      1.0000 0.82155  0.80421  0.39489  Biso   1.000  H
  C81      1.0000 0.87009  0.92715  0.71752  Biso   1.000  C
  C82      1.0000 0.97245  0.92732  0.56692  Biso   1.000  C
  H82      1.0000 0.01039  0.92179  0.71621  Biso   1.000  H
  H83      1.0000 0.04548  0.86479  0.70284  Biso   1.000  H
  H84      1.0000 0.00800  0.86530  0.75793  Biso   1.000  H
  H85      1.0000 0.77819  0.85210  0.58672  Biso   1.000  H
  H86      1.0000 0.78109  0.96012  0.73573  Biso   1.000  H
  H87      1.0000 0.83279  0.85328  0.50583  Biso   1.000  H
  H88      1.0000 0.96464  0.95788  0.46640  Biso   1.000  H
  H89      1.0000 0.91360  0.94418  0.75395  Biso   1.000  H
  H90      1.0000 0.01606  0.94452  0.60303  Biso   1.000  H
  C83      1.0000 0.44810  0.54796  0.53921  Biso   1.000  C
  C84      1.0000 0.40314  0.57583  0.57407  Biso   1.000  C
  H91      1.0000 0.49718  0.56680  0.55601  Biso   1.000  H
  H92      1.0000 0.45687  0.50791  0.55405  Biso   1.000  H
  C85      1.0000 0.40582  0.55205  0.45658  Biso   1.000  C
  C86      1.0000 0.37549  0.54555  0.61541  Biso   1.000  C
  C87      1.0000 0.38429  0.63236  0.56049  Biso   1.000  C
  C88      1.0000 0.33316  0.53139  0.41867  Biso   1.000  C
  C89      1.0000 0.43512  0.58350  0.41758  Biso   1.000  C
  O13      1.0000 0.38678  0.48750  0.62223  Biso   1.000  O
  C90      1.0000 0.33016  0.57051  0.64350  Biso   1.000  C
  C91      1.0000 0.33902  0.65795  0.58727  Biso   1.000  C
  H93      1.0000 0.40264  0.65378  0.53251  Biso   1.000  H
  C92      1.0000 0.28737  0.54766  0.34744  Biso   1.000  C
  O14      1.0000 0.30097  0.49842  0.45358  Biso   1.000  O
  C93      1.0000 0.39274  0.59589  0.34466  Biso   1.000  C
  H94      1.0000 0.48516  0.59669  0.44153  Biso   1.000  H
  C94      1.0000 0.44388  0.46764  0.68937  Biso   1.000  C
  C95      1.0000 0.29545  0.53615  0.68397  Biso   1.000  C
  C96      1.0000 0.31288  0.62726  0.62861  Biso   1.000  C
  H95      1.0000 0.32599  0.69661  0.57712  Biso   1.000  H
  C97      1.0000 0.20465  0.53615  0.31608  Biso   1.000  C
  C98      1.0000 0.31860  0.57954  0.31062  Biso   1.000  C
  C99      1.0000 0.33281  0.44344  0.47354  Biso   1.000  C
  H96      1.0000 0.41433  0.61550  0.31799  Biso   1.000  H
  C100     1.0000 0.42835  0.40651  0.69624  Biso   1.000  C
  H97      1.0000 0.49347  0.47198  0.68975  Biso   1.000  H
  H98      1.0000 0.44368  0.48940  0.73061  Biso   1.000  H
  C101     1.0000 0.21278  0.54766  0.65261  Biso   1.000  C
  H99      1.0000 0.31946  0.54619  0.73633  Biso   1.000  H
  H100     1.0000 0.30400  0.49551  0.67955  Biso   1.000  H
  H101     1.0000 0.28235  0.64531  0.64732  Biso   1.000  H
  C102     1.0000 0.16999  0.57051  0.35655  Biso   1.000  C
  H102     1.0000 0.18064  0.54619  0.26372  Biso   1.000  H
  H103     1.0000 0.19615  0.49551  0.32050  Biso   1.000  H
  H104     1.0000 0.28863  0.59029  0.26143  Biso   1.000  H
  H105     1.0000 0.38785  0.44690  0.49880  Biso   1.000  H
  H106     1.0000 0.31608  0.42662  0.50823  Biso   1.000  H
  C103     1.0000 0.31189  0.40461  0.40918  Biso   1.000  C
  O15      1.0000 0.43925  0.37518  0.64165  Biso   1.000  O
  H107     1.0000 0.37637  0.40191  0.68954  Biso   1.000  H
  H108     1.0000 0.46248  0.39251  0.74533  Biso   1.000  H
  C104     1.0000 0.16694  0.53139  0.58138  Biso   1.000  C
  C105     1.0000 0.18155  0.57954  0.68943  Biso   1.000  C
  C106     1.0000 0.12461  0.54555  0.38464  Biso   1.000  C
  C107     1.0000 0.18722  0.62726  0.37144  Biso   1.000  C
  O16      1.0000 0.25415  0.40335  0.35546  Biso   1.000  O
  O17      1.0000 0.36968  0.37156  0.41655  Biso   1.000  O
  O18      1.0000 0.36176  0.36102  0.44862  Biso   1.000  O
  C108     1.0000 0.43126  0.31780  0.64328  Biso   1.000  C
  C109     1.0000 0.09428  0.55205  0.54347  Biso   1.000  C
  O19      1.0000 0.19913  0.49842  0.54647  Biso   1.000  O
  C110     1.0000 0.10736  0.59589  0.65539  Biso   1.000  C
  H109     1.0000 0.21147  0.59029  0.73862  Biso   1.000  H
  O20      1.0000 0.11329  0.48750  0.37777  Biso   1.000  O
  C111     1.0000 0.09696  0.57583  0.42598  Biso   1.000  C
  H110     1.0000 0.21775  0.64531  0.35273  Biso   1.000  H
  C112     1.0000 0.16108  0.65795  0.41278  Biso   1.000  C
  C113     1.0000 0.35511  0.32881  0.36108  Biso   1.000  C
  C114     1.0000 0.34535  0.31000  0.40460  Biso   1.000  C
  C115     1.0000 0.45961  0.28631  0.60352  Biso   1.000  C
  C116     1.0000 0.39766  0.29032  0.68097  Biso   1.000  C
  C117     1.0000 0.05205  0.54796  0.46084  Biso   1.000  C
  C118     1.0000 0.06496  0.58350  0.58241  Biso   1.000  C
  C119     1.0000 0.16729  0.44344  0.52651  Biso   1.000  C
  H111     1.0000 0.08575  0.61550  0.68201  Biso   1.000  H
  C120     1.0000 0.05622  0.46764  0.31068  Biso   1.000  C
  C121     1.0000 0.11581  0.63236  0.43956  Biso   1.000  C
  H112     1.0000 0.17416  0.69661  0.42293  Biso   1.000  H
  H113     1.0000 0.32225  0.29900  0.36489  Biso   1.000  H
  H114     1.0000 0.33053  0.34571  0.31171  Biso   1.000  H
  C122     1.0000 0.42984  0.30469  0.37477  Biso   1.000  C
  H115     1.0000 0.36277  0.35179  0.32562  Biso   1.000  H
  H116     1.0000 0.36553  0.27640  0.43591  Biso   1.000  H
  H117     1.0000 0.29085  0.30528  0.37564  Biso   1.000  H
  C123     1.0000 0.38286  0.31810  0.35562  Biso   1.000  C
  C124     1.0000 0.45687  0.22796  0.60412  Biso   1.000  C
  H118     1.0000 0.48099  0.30490  0.57581  Biso   1.000  H
  C125     1.0000 0.39518  0.23163  0.68070  Biso   1.000  C
  H119     1.0000 0.37650  0.31131  0.70694  Biso   1.000  H
  H120     1.0000 0.00297  0.56680  0.44404  Biso   1.000  H
  H121     1.0000 0.04324  0.50791  0.44600  Biso   1.000  H
  H122     1.0000 0.01494  0.59669  0.55852  Biso   1.000  H
  H123     1.0000 0.11222  0.44690  0.50120  Biso   1.000  H
  H124     1.0000 0.18407  0.42662  0.49182  Biso   1.000  H
  C126     1.0000 0.18821  0.40461  0.59087  Biso   1.000  C
  C127     1.0000 0.07180  0.40651  0.30381  Biso   1.000  C
  H125     1.0000 0.00663  0.47198  0.31030  Biso   1.000  H
  H126     1.0000 0.05640  0.48940  0.26939  Biso   1.000  H
  H127     1.0000 0.09746  0.65378  0.46754  Biso   1.000  H
  H128     1.0000 0.45347  0.28842  0.42380  Biso   1.000  H
  H129     1.0000 0.42303  0.27531  0.33871  Biso   1.000  H
  H130     1.0000 0.46165  0.33471  0.37073  Biso   1.000  H
  H131     1.0000 0.37355  0.28509  0.32393  Biso   1.000  H
  H132     1.0000 0.43663  0.32261  0.38529  Biso   1.000  H
  C128     1.0000 0.42544  0.19929  0.64350  Biso   1.000  C
  H133     1.0000 0.47686  0.20701  0.57701  Biso   1.000  H
  H134     1.0000 0.37209  0.21312  0.70672  Biso   1.000  H
  O21      1.0000 0.24596  0.40335  0.64459  Biso   1.000  O
  O22      1.0000 0.13042  0.37156  0.58350  Biso   1.000  O
  O23      1.0000 0.13834  0.36102  0.55143  Biso   1.000  O
  O24      1.0000 0.06090  0.37518  0.35840  Biso   1.000  O
  H135     1.0000 0.12373  0.40191  0.31051  Biso   1.000  H
  H136     1.0000 0.03762  0.39251  0.25472  Biso   1.000  H
  C129     1.0000 0.42934  0.13458  0.64906  Biso   1.000  C
  C130     1.0000 0.14499  0.32881  0.63897  Biso   1.000  C
  C131     1.0000 0.15475  0.31000  0.59545  Biso   1.000  C
  C132     1.0000 0.06884  0.31780  0.35677  Biso   1.000  C
  C133     1.0000 0.42583  0.10936  0.57936  Biso   1.000  C
  C134     1.0000 0.50522  0.11927  0.71223  Biso   1.000  C
  C135     1.0000 0.36790  0.11046  0.66532  Biso   1.000  C
  H137     1.0000 0.17787  0.29900  0.63510  Biso   1.000  H
  H138     1.0000 0.16957  0.34571  0.68834  Biso   1.000  H
  C136     1.0000 0.07026  0.30469  0.62528  Biso   1.000  C
  H139     1.0000 0.13738  0.35179  0.67443  Biso   1.000  H
  H140     1.0000 0.13457  0.27640  0.56414  Biso   1.000  H
  H141     1.0000 0.20925  0.30528  0.62441  Biso   1.000  H
  C137     1.0000 0.11729  0.31810  0.64443  Biso   1.000  C
  C138     1.0000 0.04049  0.28631  0.39653  Biso   1.000  C
  C139     1.0000 0.10247  0.29032  0.31902  Biso   1.000  C
  N5       1.0000 0.36999  0.12378  0.51265  Biso   1.000  N
  C140     1.0000 0.47243  0.07268  0.56692  Biso   1.000  C
  H142     1.0000 0.51037  0.07821  0.71621  Biso   1.000  H
  H143     1.0000 0.54551  0.13521  0.70284  Biso   1.000  H
  H144     1.0000 0.50798  0.13470  0.75793  Biso   1.000  H
  N6       1.0000 0.29437  0.12450  0.62403  Biso   1.000  N
  C141     1.0000 0.37007  0.07285  0.71752  Biso   1.000  C
  H145     1.0000 0.04668  0.28842  0.57625  Biso   1.000  H
  H146     1.0000 0.07707  0.27531  0.66134  Biso   1.000  H
  H147     1.0000 0.03845  0.33471  0.62932  Biso   1.000  H
  H148     1.0000 0.12655  0.28509  0.67612  Biso   1.000  H
  H149     1.0000 0.06345  0.32261  0.61470  Biso   1.000  H
  C142     1.0000 0.04328  0.22796  0.39593  Biso   1.000  C
  H150     1.0000 0.01916  0.30490  0.42424  Biso   1.000  H
  C143     1.0000 0.10492  0.23163  0.31935  Biso   1.000  C
  H151     1.0000 0.12365  0.31131  0.29312  Biso   1.000  H
  C144     1.0000 0.38045  0.09722  0.45773  Biso   1.000  C
  H152     1.0000 0.33276  0.14672  0.50583  Biso   1.000  H
  C145     1.0000 0.44366  0.06526  0.49067  Biso   1.000  C
  H153     1.0000 0.51609  0.05548  0.60303  Biso   1.000  H
  H154     1.0000 0.27817  0.14790  0.58672  Biso   1.000  H
  C146     1.0000 0.24957  0.09667  0.64939  Biso   1.000  C
  H155     1.0000 0.41357  0.05582  0.75395  Biso   1.000  H
  C147     1.0000 0.29607  0.06408  0.70748  Biso   1.000  C
  C148     1.0000 0.07471  0.19929  0.35655  Biso   1.000  C
  H156     1.0000 0.02324  0.20701  0.42304  Biso   1.000  H
  H157     1.0000 0.12806  0.21312  0.29333  Biso   1.000  H
  C149     1.0000 0.33272  0.11025  0.37782  Biso   1.000  C
  H158     1.0000 0.46467  0.04212  0.46640  Biso   1.000  H
  C150     1.0000 0.16743  0.11025  0.62223  Biso   1.000  C
  H159     1.0000 0.28106  0.03988  0.73573  Biso   1.000  H
  C151     1.0000 0.07076  0.13458  0.35099  Biso   1.000  C
  C152     1.0000 0.34018  0.17387  0.36571  Biso   1.000  C
  C153     1.0000 0.25059  0.09667  0.35066  Biso   1.000  C
  C154     1.0000 0.36337  0.07694  0.33255  Biso   1.000  C
  C155     1.0000 0.11963  0.09722  0.54227  Biso   1.000  C
  C156     1.0000 0.13678  0.07694  0.66750  Biso   1.000  C
  C157     1.0000 0.15990  0.17387  0.63428  Biso   1.000  C
  C158     1.0000 0.13225  0.11046  0.33473  Biso   1.000  C
  C159     1.0000 0.07427  0.10936  0.42069  Biso   1.000  C
  C160     1.0000 0.99493  0.11927  0.28782  Biso   1.000  C
  H160     1.0000 0.39283  0.18310  0.38060  Biso   1.000  H
  H161     1.0000 0.31094  0.18289  0.31401  Biso   1.000  H
  H162     1.0000 0.32152  0.19579  0.39489  Biso   1.000  H
  N7       1.0000 0.20573  0.12450  0.37602  Biso   1.000  N
  C161     1.0000 0.20403  0.06408  0.29257  Biso   1.000  C
  H163     1.0000 0.36065  0.03651  0.34090  Biso   1.000  H
  H164     1.0000 0.33353  0.08529  0.28073  Biso   1.000  H
  H165     1.0000 0.41547  0.08769  0.34711  Biso   1.000  H
  N8       1.0000 0.13016  0.12378  0.48740  Biso   1.000  N
  C162     1.0000 0.05644  0.06526  0.50938  Biso   1.000  C
  H166     1.0000 0.13950  0.03651  0.65916  Biso   1.000  H
  H167     1.0000 0.16657  0.08529  0.71932  Biso   1.000  H
  H168     1.0000 0.08468  0.08769  0.65294  Biso   1.000  H
  H169     1.0000 0.10727  0.18310  0.61945  Biso   1.000  H
  H170     1.0000 0.18916  0.18289  0.68605  Biso   1.000  H
  H171     1.0000 0.17855  0.19579  0.60510  Biso   1.000  H
  C163     1.0000 0.13003  0.07285  0.28253  Biso   1.000  C
  C164     1.0000 0.02767  0.07268  0.43313  Biso   1.000  C
  H172     1.0000 0.98971  0.07821  0.28379  Biso   1.000  H
  H173     1.0000 0.95464  0.13521  0.29721  Biso   1.000  H
  H174     1.0000 0.99217  0.13470  0.24212  Biso   1.000  H
  H175     1.0000 0.22193  0.14790  0.41333  Biso   1.000  H
  H176     1.0000 0.21904  0.03988  0.26432  Biso   1.000  H
  H177     1.0000 0.16734  0.14672  0.49422  Biso   1.000  H
  H178     1.0000 0.03546  0.04212  0.53360  Biso   1.000  H
  H179     1.0000 0.08653  0.05582  0.24610  Biso   1.000  H
  H180     1.0000 0.98406  0.05548  0.39702  Biso   1.000  H
  C165     1.0000 0.63011  0.57283  0.78253  Biso   1.000  C
  C166     1.0000 0.70411  0.56406  0.79257  Biso   1.000  C
  H181     1.0000 0.58663  0.55580  0.74615  Biso   1.000  H
  C167     1.0000 0.63228  0.61048  0.83473  Biso   1.000  C
  H182     1.0000 0.58658  0.55580  0.74615  Biso   1.000  H
  H183     1.0000 0.71911  0.53990  0.76431  Biso   1.000  H
  H184     1.0000 0.71906  0.53990  0.76431  Biso   1.000  H
  C168     1.0000 0.75061  0.59669  0.85066  Biso   1.000  C
  C169     1.0000 0.57086  0.63460  0.85104  Biso   1.000  C
  N9       1.0000 0.70583  0.62452  0.87607  Biso   1.000  N
  N10      1.0000 0.70578  0.62452  0.87607  Biso   1.000  N
  C170     1.0000 0.83277  0.61023  0.87787  Biso   1.000  C
  C171     1.0000 0.57434  0.60938  0.92069  Biso   1.000  C
  C172     1.0000 0.49496  0.61925  0.78782  Biso   1.000  C
  C173     1.0000 0.57476  0.69931  0.85660  Biso   1.000  C
  H185     1.0000 0.72201  0.64792  0.91333  Biso   1.000  H
  C174     1.0000 0.88055  0.59720  0.95778  Biso   1.000  C
  C175     1.0000 0.84028  0.67385  0.86577  Biso   1.000  C
  C176     1.0000 0.86347  0.57692  0.83260  Biso   1.000  C
  C177     1.0000 0.86340  0.57692  0.83255  Biso   1.000  C
  N11      1.0000 0.63024  0.62376  0.98740  Biso   1.000  N
  N12      1.0000 0.63019  0.62376  0.98740  Biso   1.000  N
  C178     1.0000 0.52770  0.57271  0.93313  Biso   1.000  C
  H186     1.0000 0.48981  0.57819  0.78384  Biso   1.000  H
  H187     1.0000 0.49220  0.63468  0.74212  Biso   1.000  H
  H188     1.0000 0.45469  0.63519  0.79726  Biso   1.000  H
  C179     1.0000 0.60502  0.73161  0.81940  Biso   1.000  C
  C180     1.0000 0.54333  0.72798  0.89598  Biso   1.000  C
  C181     1.0000 0.94373  0.56529  0.99067  Biso   1.000  C
  N13      1.0000 0.86996  0.62376  0.01265  Biso   1.000  N
  N14      1.0000 0.86989  0.62376  0.01260  Biso   1.000  N
  H189     1.0000 0.89293  0.68308  0.88066  Biso   1.000  H
  H190     1.0000 0.82162  0.69581  0.89495  Biso   1.000  H
  H191     1.0000 0.81099  0.68291  0.81406  Biso   1.000  H
  H192     1.0000 0.83361  0.58531  0.78073  Biso   1.000  H
  H193     1.0000 0.91557  0.58771  0.84717  Biso   1.000  H
  H194     1.0000 0.86070  0.53649  0.84095  Biso   1.000  H
  H195     1.0000 0.91549  0.58771  0.84711  Biso   1.000  H
  H196     1.0000 0.66744  0.64670  0.99427  Biso   1.000  H
  C182     1.0000 0.61960  0.59720  0.04227  Biso   1.000  C
  H197     1.0000 0.48416  0.55550  0.89707  Biso   1.000  H
  H198     1.0000 0.48409  0.55550  0.89702  Biso   1.000  H
  C183     1.0000 0.55642  0.56529  0.00938  Biso   1.000  C
  C184     1.0000 0.55639  0.56529  0.00932  Biso   1.000  C
  C185     1.0000 0.60257  0.79029  0.81908  Biso   1.000  C
  C186     1.0000 0.60252  0.79029  0.81908  Biso   1.000  C
  H199     1.0000 0.62808  0.71310  0.79333  Biso   1.000  H
  H200     1.0000 0.52332  0.70699  0.92304  Biso   1.000  H
  C187     1.0000 0.54054  0.78629  0.89658  Biso   1.000  C
  H201     1.0000 0.96477  0.54210  0.96645  Biso   1.000  H
  H202     1.0000 0.96472  0.54210  0.96645  Biso   1.000  H
  C188     1.0000 0.97240  0.57271  0.06692  Biso   1.000  C
  C189     1.0000 0.97238  0.57271  0.06687  Biso   1.000  C
  H203     1.0000 0.83271  0.64670  0.00578  Biso   1.000  H
  C190     1.0000 0.92581  0.60938  0.07936  Biso   1.000  C
  C191     1.0000 0.66733  0.61023  0.12217  Biso   1.000  C
  H204     1.0000 0.53543  0.54210  0.03359  Biso   1.000  H
  H205     1.0000 0.53538  0.54210  0.03359  Biso   1.000  H
  C192     1.0000 0.56894  0.81783  0.85682  Biso   1.000  C
  H206     1.0000 0.62375  0.81129  0.79317  Biso   1.000  H
  H207     1.0000 0.62367  0.81129  0.79311  Biso   1.000  H
  H208     1.0000 0.51919  0.80488  0.92424  Biso   1.000  H
  H209     1.0000 0.01599  0.55550  0.10297  Biso   1.000  H
  C193     1.0000 0.92929  0.63460  0.14901  Biso   1.000  C
  C194     1.0000 0.74954  0.59669  0.14939  Biso   1.000  C
  C195     1.0000 0.63668  0.57692  0.16744  Biso   1.000  C
  C196     1.0000 0.65987  0.67385  0.13428  Biso   1.000  C
  C197     1.0000 0.74949  0.59669  0.14939  Biso   1.000  C
  O25      1.0000 0.56097  0.87516  0.85840  Biso   1.000  O
  O26      1.0000 0.56092  0.87516  0.85840  Biso   1.000  O
  C198     1.0000 0.92539  0.69931  0.14344  Biso   1.000  C
  C199     1.0000 0.86785  0.61048  0.16526  Biso   1.000  C
  C200     1.0000 0.92534  0.69931  0.14344  Biso   1.000  C
  C201     1.0000 0.86780  0.61048  0.16526  Biso   1.000  C
  C202     1.0000 0.00519  0.61925  0.21222  Biso   1.000  C
  C203     1.0000 0.00514  0.61925  0.21222  Biso   1.000  C
  N15      1.0000 0.79432  0.62452  0.12397  Biso   1.000  N
  C204     1.0000 0.79605  0.56406  0.20748  Biso   1.000  C
  C205     1.0000 0.79597  0.56406  0.20742  Biso   1.000  C
  H210     1.0000 0.66655  0.58531  0.21931  Biso   1.000  H
  H211     1.0000 0.58463  0.58771  0.15288  Biso   1.000  H
  H212     1.0000 0.63941  0.53649  0.15910  Biso   1.000  H
  H213     1.0000 0.58458  0.58771  0.15288  Biso   1.000  H
  H214     1.0000 0.60723  0.68308  0.11939  Biso   1.000  H
  H215     1.0000 0.68911  0.68291  0.18599  Biso   1.000  H
  H216     1.0000 0.67853  0.69581  0.10510  Biso   1.000  H
  C206     1.0000 0.57183  0.90653  0.80380  Biso   1.000  C
  C207     1.0000 0.89513  0.73161  0.18064  Biso   1.000  C
  C208     1.0000 0.95677  0.72798  0.10406  Biso   1.000  C
  C209     1.0000 0.87004  0.57283  0.21751  Biso   1.000  C
  H217     1.0000 0.01034  0.57819  0.21621  Biso   1.000  H
  H218     1.0000 0.04541  0.63519  0.20279  Biso   1.000  H
  H219     1.0000 0.00793  0.63468  0.25788  Biso   1.000  H
  H220     1.0000 0.77814  0.64792  0.08672  Biso   1.000  H
  H221     1.0000 0.77807  0.64792  0.08667  Biso   1.000  H
  H222     1.0000 0.78101  0.53990  0.23568  Biso   1.000  H
  H223     1.0000 0.53769  0.89249  0.75472  Biso   1.000  H
  H224     1.0000 0.62383  0.90189  0.81057  Biso   1.000  H
  H225     1.0000 0.62381  0.90189  0.81051  Biso   1.000  H
  C210     1.0000 0.55625  0.96766  0.81068  Biso   1.000  C
  H226     1.0000 0.97684  0.70699  0.07701  Biso   1.000  H
  C211     1.0000 0.95956  0.78629  0.10346  Biso   1.000  C
  H227     1.0000 0.87207  0.71310  0.20671  Biso   1.000  H
  C212     1.0000 0.89758  0.79029  0.18097  Biso   1.000  C
  H228     1.0000 0.87202  0.71310  0.20671  Biso   1.000  H
  H229     1.0000 0.91352  0.55580  0.25389  Biso   1.000  H
  O27      1.0000 0.61339  0.98748  0.87782  Biso   1.000  O
  H230     1.0000 0.55650  0.98942  0.76944  Biso   1.000  H
  H231     1.0000 0.50668  0.97201  0.81035  Biso   1.000  H
  C213     1.0000 0.93121  0.81783  0.14323  Biso   1.000  C
  H232     1.0000 0.98091  0.80488  0.07581  Biso   1.000  H
  H233     1.0000 0.87640  0.81129  0.20688  Biso   1.000  H
  C214     1.0000 0.62471  0.04558  0.88469  Biso   1.000  C
  O28      1.0000 0.93918  0.87516  0.14164  Biso   1.000  O
  C215     1.0000 0.67009  0.07049  0.85660  Biso   1.000  C
  C216     1.0000 0.59704  0.07585  0.92598  Biso   1.000  C
  C217     1.0000 0.67004  0.07049  0.85660  Biso   1.000  C
  C218     1.0000 0.92832  0.90653  0.19624  Biso   1.000  C
  C219     1.0000 0.92827  0.90653  0.19624  Biso   1.000  C
  C220     1.0000 0.70475  0.03613  0.81613  Biso   1.000  C
  C221     1.0000 0.68732  0.12724  0.87149  Biso   1.000  C
  C222     1.0000 0.68727  0.12724  0.87149  Biso   1.000  C
  C223     1.0000 0.61588  0.13238  0.93956  Biso   1.000  C
  C224     1.0000 0.55210  0.04798  0.96089  Biso   1.000  C
  H234     1.0000 0.87632  0.90189  0.18948  Biso   1.000  H
  H235     1.0000 0.96246  0.89249  0.24533  Biso   1.000  H
  C225     1.0000 0.94385  0.96766  0.18937  Biso   1.000  C
  H236     1.0000 0.96243  0.89249  0.24528  Biso   1.000  H
  H237     1.0000 0.69625  0.99549  0.82055  Biso   1.000  H
  H238     1.0000 0.69620  0.99549  0.82055  Biso   1.000  H
  H239     1.0000 0.68071  0.04621  0.76371  Biso   1.000  H
  C226     1.0000 0.78740  0.04764  0.84744  Biso   1.000  C
  H240     1.0000 0.68066  0.04621  0.76371  Biso   1.000  H
  C227     1.0000 0.66118  0.15793  0.91284  Biso   1.000  C
  H241     1.0000 0.71777  0.14528  0.85273  Biso   1.000  H
  H242     1.0000 0.59749  0.15380  0.96754  Biso   1.000  H
  H243     1.0000 0.54334  0.00788  0.94605  Biso   1.000  H
  H244     1.0000 0.50299  0.06678  0.94403  Biso   1.000  H
  C228     1.0000 0.59420  0.05207  0.04347  Biso   1.000  C
  O29      1.0000 0.88676  0.98748  0.12223  Biso   1.000  O
  H245     1.0000 0.99342  0.97201  0.18970  Biso   1.000  H
  H246     1.0000 0.94360  0.98942  0.23060  Biso   1.000  H
  C229     1.0000 0.83326  0.03137  0.91873  Biso   1.000  C
  C230     1.0000 0.83323  0.03137  0.91867  Biso   1.000  C
  C231     1.0000 0.81863  0.07956  0.81062  Biso   1.000  C
  H247     1.0000 0.67424  0.19659  0.92293  Biso   1.000  H
  H248     1.0000 0.67419  0.19659  0.92293  Biso   1.000  H
  C232     1.0000 0.66689  0.03137  0.08132  Biso   1.000  C
  C233     1.0000 0.56493  0.08352  0.08241  Biso   1.000  C
  C234     1.0000 0.87544  0.04558  0.11535  Biso   1.000  C
  O30      1.0000 0.80107  0.99844  0.95363  Biso   1.000  O
  C235     1.0000 0.90590  0.05207  0.95658  Biso   1.000  C
  H249     1.0000 0.78871  0.09031  0.76142  Biso   1.000  H
  C236     1.0000 0.89282  0.09591  0.84466  Biso   1.000  C
  O31      1.0000 0.69903  0.99844  0.04641  Biso   1.000  O
  C237     1.0000 0.71275  0.04764  0.15261  Biso   1.000  C
  C238     1.0000 0.71268  0.04764  0.15255  Biso   1.000  C
  C239     1.0000 0.60734  0.09591  0.15539  Biso   1.000  C
  H250     1.0000 0.51492  0.09672  0.05852  Biso   1.000  H
  H251     1.0000 0.51489  0.09672  0.05847  Biso   1.000  H
  C240     1.0000 0.90311  0.07585  0.07407  Biso   1.000  C
  C241     1.0000 0.83006  0.07049  0.14344  Biso   1.000  C
  C242     1.0000 0.83289  0.94346  0.97354  Biso   1.000  C
  C243     1.0000 0.93522  0.08352  0.91764  Biso   1.000  C
  C244     1.0000 0.94805  0.04798  0.03916  Biso   1.000  C
  C245     1.0000 0.94800  0.04798  0.03916  Biso   1.000  C
  H252     1.0000 0.91443  0.11552  0.81804  Biso   1.000  H
  C246     1.0000 0.66727  0.94346  0.02650  Biso   1.000  C
  C247     1.0000 0.68152  0.07956  0.18942  Biso   1.000  C
  C248     1.0000 0.79540  0.03613  0.18392  Biso   1.000  C
  C249     1.0000 0.68147  0.07956  0.18942  Biso   1.000  C
  H253     1.0000 0.58572  0.11552  0.18201  Biso   1.000  H
  C250     1.0000 0.88422  0.13238  0.06048  Biso   1.000  C
  C251     1.0000 0.81284  0.12724  0.12855  Biso   1.000  C
  C252     1.0000 0.81199  0.90463  0.90924  Biso   1.000  C
  H254     1.0000 0.88790  0.94692  0.99885  Biso   1.000  H
  H255     1.0000 0.81598  0.92660  0.00818  Biso   1.000  H
  H256     1.0000 0.98523  0.09672  0.94153  Biso   1.000  H
  H257     1.0000 0.95682  0.00788  0.05399  Biso   1.000  H
  H258     1.0000 0.99711  0.06678  0.05601  Biso   1.000  H
  H259     1.0000 0.68417  0.92660  0.99187  Biso   1.000  H
  H260     1.0000 0.68412  0.92660  0.99187  Biso   1.000  H
  H261     1.0000 0.61220  0.94692  0.00120  Biso   1.000  H
  C253     1.0000 0.68816  0.90463  0.09081  Biso   1.000  C
  H262     1.0000 0.71144  0.09031  0.23862  Biso   1.000  H
  H263     1.0000 0.80390  0.99549  0.17950  Biso   1.000  H
  H264     1.0000 0.81944  0.04621  0.23633  Biso   1.000  H
  H265     1.0000 0.81941  0.04621  0.23628  Biso   1.000  H
  C254     1.0000 0.83897  0.15793  0.08721  Biso   1.000  C
  H266     1.0000 0.90261  0.15380  0.03250  Biso   1.000  H
  H267     1.0000 0.78233  0.14528  0.14732  Biso   1.000  H
  O32      1.0000 0.75422  0.90337  0.85546  Biso   1.000  O
  O33      1.0000 0.86976  0.87154  0.91654  Biso   1.000  O
  O34      1.0000 0.86178  0.86100  0.94862  Biso   1.000  O
  O35      1.0000 0.74593  0.90337  0.14459  Biso   1.000  O
  O36      1.0000 0.63039  0.87154  0.08350  Biso   1.000  O
  O37      1.0000 0.63830  0.86100  0.05138  Biso   1.000  O
  H268     1.0000 0.82596  0.19659  0.07712  Biso   1.000  H
  H269     1.0000 0.82589  0.19659  0.07707  Biso   1.000  H
  C255     1.0000 0.85513  0.82879  0.86107  Biso   1.000  C
  C256     1.0000 0.84540  0.80998  0.90465  Biso   1.000  C
  C257     1.0000 0.64497  0.82879  0.13897  Biso   1.000  C
  C258     1.0000 0.64494  0.82879  0.13892  Biso   1.000  C
  C259     1.0000 0.65470  0.80998  0.09539  Biso   1.000  C
  C260     1.0000 0.92994  0.80467  0.87482  Biso   1.000  C
  H270     1.0000 0.82230  0.79898  0.86495  Biso   1.000  H
  H271     1.0000 0.83061  0.84569  0.81171  Biso   1.000  H
  H272     1.0000 0.86279  0.85181  0.82562  Biso   1.000  H
  H273     1.0000 0.86563  0.77638  0.93596  Biso   1.000  H
  H274     1.0000 0.79093  0.80530  0.87564  Biso   1.000  H
  C261     1.0000 0.88289  0.81812  0.85562  Biso   1.000  C
  H275     1.0000 0.66952  0.84569  0.18828  Biso   1.000  H
  C262     1.0000 0.57021  0.80467  0.12523  Biso   1.000  C
  H276     1.0000 0.67780  0.79898  0.13510  Biso   1.000  H
  H277     1.0000 0.63736  0.85181  0.17443  Biso   1.000  H
  H278     1.0000 0.63452  0.77638  0.06408  Biso   1.000  H
  H279     1.0000 0.70922  0.80530  0.12441  Biso   1.000  H
  C263     1.0000 0.61726  0.81812  0.14443  Biso   1.000  C
  H280     1.0000 0.96172  0.83469  0.87073  Biso   1.000  H
  H281     1.0000 0.95352  0.78840  0.92385  Biso   1.000  H
  H282     1.0000 0.92311  0.77529  0.83871  Biso   1.000  H
  H283     1.0000 0.87362  0.78511  0.82393  Biso   1.000  H
  H284     1.0000 0.93673  0.82259  0.88535  Biso   1.000  H
  H285     1.0000 0.57702  0.77529  0.16128  Biso   1.000  H
  H286     1.0000 0.53843  0.83469  0.12932  Biso   1.000  H
  H287     1.0000 0.54658  0.78840  0.07619  Biso   1.000  H
  H288     1.0000 0.62653  0.78511  0.17612  Biso   1.000  H
  H289     1.0000 0.56342  0.82259  0.11470  Biso   1.000  H
  C264     1.0000 0.37002  0.42717  0.21752  Biso   1.000  C
  C265     1.0000 0.29600  0.43594  0.20743  Biso   1.000  C
  C266     1.0000 0.36783  0.38952  0.16527  Biso   1.000  C
  H290     1.0000 0.41350  0.44420  0.25390  Biso   1.000  H
  C267     1.0000 0.24951  0.40331  0.14939  Biso   1.000  C
  C268     1.0000 0.24946  0.40331  0.14939  Biso   1.000  C
  H291     1.0000 0.28106  0.46010  0.23574  Biso   1.000  H
  H292     1.0000 0.28099  0.46010  0.23568  Biso   1.000  H
  N16      1.0000 0.29430  0.37548  0.12398  Biso   1.000  N
  C269     1.0000 0.42926  0.36540  0.14901  Biso   1.000  C
  C270     1.0000 0.16735  0.38977  0.12218  Biso   1.000  C
  H293     1.0000 0.27812  0.35208  0.08672  Biso   1.000  H
  H294     1.0000 0.27809  0.35208  0.08667  Biso   1.000  H
  C271     1.0000 0.42578  0.39062  0.07936  Biso   1.000  C
  C272     1.0000 0.50517  0.38075  0.21223  Biso   1.000  C
  C273     1.0000 0.42536  0.30069  0.14345  Biso   1.000  C
  C274     1.0000 0.15984  0.32615  0.13429  Biso   1.000  C
  C275     1.0000 0.11958  0.40280  0.04227  Biso   1.000  C
  C276     1.0000 0.13665  0.42308  0.16745  Biso   1.000  C
  N17      1.0000 0.36994  0.37624  0.01265  Biso   1.000  N
  C277     1.0000 0.47243  0.42729  0.06692  Biso   1.000  C
  N18      1.0000 0.36986  0.37624  0.01260  Biso   1.000  N
  C278     1.0000 0.47235  0.42729  0.06687  Biso   1.000  C
  H295     1.0000 0.51031  0.42181  0.21621  Biso   1.000  H
  H296     1.0000 0.50793  0.36532  0.25794  Biso   1.000  H
  H297     1.0000 0.54538  0.36481  0.20279  Biso   1.000  H
  H298     1.0000 0.50790  0.36532  0.25788  Biso   1.000  H
  C279     1.0000 0.39510  0.26839  0.18065  Biso   1.000  C
  C280     1.0000 0.45675  0.27202  0.10407  Biso   1.000  C
  H299     1.0000 0.10720  0.31692  0.11940  Biso   1.000  H
  H300     1.0000 0.17850  0.30419  0.10510  Biso   1.000  H
  H301     1.0000 0.18908  0.31709  0.18599  Biso   1.000  H
  N19      1.0000 0.13021  0.37624  0.98740  Biso   1.000  N
  N20      1.0000 0.13016  0.37624  0.98740  Biso   1.000  N
  C281     1.0000 0.05637  0.43471  0.00933  Biso   1.000  C
  H302     1.0000 0.16652  0.41469  0.21932  Biso   1.000  H
  H303     1.0000 0.08461  0.41229  0.15288  Biso   1.000  H
  H304     1.0000 0.13938  0.46351  0.15910  Biso   1.000  H
  H305     1.0000 0.33269  0.35330  0.00578  Biso   1.000  H
  C282     1.0000 0.38052  0.40280  0.95778  Biso   1.000  C
  H306     1.0000 0.51601  0.44450  0.10298  Biso   1.000  H
  C283     1.0000 0.44371  0.43471  0.99067  Biso   1.000  C
  C284     1.0000 0.39761  0.20971  0.18097  Biso   1.000  C
  H307     1.0000 0.37204  0.28690  0.20672  Biso   1.000  H
  H308     1.0000 0.37199  0.28690  0.20672  Biso   1.000  H
  H309     1.0000 0.47681  0.29301  0.07702  Biso   1.000  H
  C285     1.0000 0.45954  0.21371  0.10347  Biso   1.000  C
  H310     1.0000 0.16741  0.35330  0.99427  Biso   1.000  H
  C286     1.0000 0.07432  0.39062  0.92069  Biso   1.000  C
  C287     1.0000 0.02772  0.42729  0.93313  Biso   1.000  C
  H311     1.0000 0.03541  0.45790  0.03360  Biso   1.000  H
  H312     1.0000 0.03536  0.45790  0.03360  Biso   1.000  H
  C288     1.0000 0.33280  0.38977  0.87788  Biso   1.000  C
  C289     1.0000 0.33275  0.38977  0.87788  Biso   1.000  C
  H313     1.0000 0.46474  0.45790  0.96646  Biso   1.000  H
  H314     1.0000 0.46469  0.45790  0.96646  Biso   1.000  H
  C290     1.0000 0.43118  0.18217  0.14323  Biso   1.000  C
  H315     1.0000 0.37638  0.18871  0.20688  Biso   1.000  H
  H316     1.0000 0.48089  0.19512  0.07582  Biso   1.000  H
  C291     1.0000 0.07084  0.36540  0.85104  Biso   1.000  C
  H317     1.0000 0.98414  0.44450  0.89708  Biso   1.000  H
  H318     1.0000 0.98406  0.44450  0.89702  Biso   1.000  H
  C292     1.0000 0.25063  0.40331  0.85066  Biso   1.000  C
  C293     1.0000 0.34026  0.32615  0.86577  Biso   1.000  C
  C294     1.0000 0.36342  0.42308  0.83255  Biso   1.000  C
  O38      1.0000 0.43915  0.12484  0.14165  Biso   1.000  O
  C295     1.0000 0.99498  0.38075  0.78783  Biso   1.000  C
  C296     1.0000 0.13232  0.38952  0.83479  Biso   1.000  C
  C297     1.0000 0.07474  0.30069  0.85661  Biso   1.000  C
  C298     1.0000 0.13225  0.38952  0.83473  Biso   1.000  C
  N21      1.0000 0.20580  0.37548  0.87608  Biso   1.000  N
  C299     1.0000 0.20408  0.43594  0.79257  Biso   1.000  C
  H319     1.0000 0.36072  0.46351  0.84095  Biso   1.000  H
  H320     1.0000 0.41554  0.41229  0.84717  Biso   1.000  H
  H321     1.0000 0.33358  0.41469  0.78074  Biso   1.000  H
  H322     1.0000 0.41547  0.41229  0.84712  Biso   1.000  H
  H323     1.0000 0.39295  0.31692  0.88066  Biso   1.000  H
  H324     1.0000 0.31102  0.31709  0.81406  Biso   1.000  H
  H325     1.0000 0.32160  0.30419  0.89495  Biso   1.000  H
  H326     1.0000 0.39290  0.31692  0.88066  Biso   1.000  H
  C300     1.0000 0.42830  0.09347  0.19625  Biso   1.000  C
  H327     1.0000 0.95472  0.36481  0.79726  Biso   1.000  H
  H328     1.0000 0.99217  0.36532  0.74212  Biso   1.000  H
  H329     1.0000 0.98984  0.42181  0.78385  Biso   1.000  H
  C301     1.0000 0.04335  0.27202  0.89599  Biso   1.000  C
  C302     1.0000 0.10500  0.26839  0.81941  Biso   1.000  C
  C303     1.0000 0.13008  0.42717  0.78254  Biso   1.000  C
  H330     1.0000 0.22198  0.35208  0.91333  Biso   1.000  H
  H331     1.0000 0.21909  0.46010  0.76432  Biso   1.000  H
  H332     1.0000 0.37629  0.09811  0.18948  Biso   1.000  H
  H333     1.0000 0.46243  0.10751  0.24534  Biso   1.000  H
  C304     1.0000 0.44388  0.03234  0.18937  Biso   1.000  C
  H334     1.0000 0.46241  0.10751  0.24528  Biso   1.000  H
  C305     1.0000 0.44383  0.03234  0.18937  Biso   1.000  C
  H335     1.0000 0.02329  0.29301  0.92304  Biso   1.000  H
  C306     1.0000 0.04056  0.21371  0.89659  Biso   1.000  C
  C307     1.0000 0.10249  0.20971  0.81908  Biso   1.000  C
  H336     1.0000 0.12806  0.28690  0.79334  Biso   1.000  H
  H337     1.0000 0.08660  0.44420  0.74616  Biso   1.000  H
  H338     1.0000 0.44363  0.01058  0.23061  Biso   1.000  H
  O39      1.0000 0.38678  0.01252  0.12223  Biso   1.000  O
  H339     1.0000 0.49344  0.02799  0.18970  Biso   1.000  H
  O40      1.0000 0.38673  0.01252  0.12223  Biso   1.000  O
  H340     1.0000 0.49339  0.02799  0.18970  Biso   1.000  H
  H341     1.0000 0.01921  0.19512  0.92424  Biso   1.000  H
  C308     1.0000 0.06892  0.18217  0.85682  Biso   1.000  C
  H342     1.0000 0.12372  0.18871  0.79317  Biso   1.000  H
  H343     1.0000 0.12370  0.18871  0.79312  Biso   1.000  H
  C309     1.0000 0.37542  0.95442  0.11536  Biso   1.000  C
  O41      1.0000 0.06095  0.12484  0.85841  Biso   1.000  O
  C310     1.0000 0.33008  0.92951  0.14345  Biso   1.000  C
  C311     1.0000 0.40309  0.92415  0.07407  Biso   1.000  C
  C312     1.0000 0.33003  0.92951  0.14345  Biso   1.000  C
  C313     1.0000 0.07185  0.09347  0.80381  Biso   1.000  C
  C314     1.0000 0.07180  0.09347  0.80381  Biso   1.000  C
  C315     1.0000 0.29537  0.96387  0.18392  Biso   1.000  C
  C316     1.0000 0.31286  0.87276  0.12856  Biso   1.000  C
  C317     1.0000 0.31281  0.87276  0.12856  Biso   1.000  C
  C318     1.0000 0.38424  0.86762  0.06049  Biso   1.000  C
  C319     1.0000 0.44802  0.95202  0.03916  Biso   1.000  C
  H344     1.0000 0.12381  0.09811  0.81057  Biso   1.000  H
  H345     1.0000 0.03767  0.10751  0.75472  Biso   1.000  H
  C320     1.0000 0.05627  0.03234  0.81068  Biso   1.000  C
  H346     1.0000 0.12378  0.09811  0.81052  Biso   1.000  H
  C321     1.0000 0.21273  0.95236  0.15261  Biso   1.000  C
  H347     1.0000 0.31946  0.95379  0.23634  Biso   1.000  H
  C322     1.0000 0.21265  0.95236  0.15256  Biso   1.000  C
  H348     1.0000 0.31939  0.95379  0.23628  Biso   1.000  H
  H349     1.0000 0.30388  0.00451  0.17950  Biso   1.000  H
  H350     1.0000 0.28235  0.85472  0.14732  Biso   1.000  H
  C323     1.0000 0.33895  0.84207  0.08721  Biso   1.000  C
  H351     1.0000 0.28230  0.85472  0.14732  Biso   1.000  H
  H352     1.0000 0.40264  0.84620  0.03251  Biso   1.000  H
  H353     1.0000 0.40259  0.84620  0.03251  Biso   1.000  H
  C324     1.0000 0.40587  0.94793  0.95658  Biso   1.000  C
  H354     1.0000 0.45679  0.99212  0.05400  Biso   1.000  H
  H355     1.0000 0.49708  0.93322  0.05602  Biso   1.000  H
  O42      1.0000 0.11337  0.01252  0.87782  Biso   1.000  O
  H356     1.0000 0.00671  0.02799  0.81035  Biso   1.000  H
  H357     1.0000 0.05647  0.01058  0.76945  Biso   1.000  H
  C325     1.0000 0.16687  0.96863  0.08132  Biso   1.000  C
  C326     1.0000 0.18145  0.92044  0.18943  Biso   1.000  C
  H358     1.0000 0.32594  0.80341  0.07712  Biso   1.000  H
  H359     1.0000 0.32586  0.80341  0.07707  Biso   1.000  H
  C327     1.0000 0.33323  0.96863  0.91873  Biso   1.000  C
  C328     1.0000 0.33321  0.96863  0.91868  Biso   1.000  C
  C329     1.0000 0.43519  0.91648  0.91764  Biso   1.000  C
  C330     1.0000 0.12468  0.95442  0.88470  Biso   1.000  C
  C331     1.0000 0.09423  0.94793  0.04347  Biso   1.000  C
  O43      1.0000 0.19906  0.00156  0.04642  Biso   1.000  O
  C332     1.0000 0.10736  0.90409  0.15539  Biso   1.000  C
  C333     1.0000 0.10731  0.90409  0.15539  Biso   1.000  C
  H360     1.0000 0.21142  0.90969  0.23863  Biso   1.000  H
  C334     1.0000 0.28742  0.95236  0.84744  Biso   1.000  C
  C335     1.0000 0.28737  0.95236  0.84744  Biso   1.000  C
  O44      1.0000 0.30109  0.00156  0.95364  Biso   1.000  O
  O45      1.0000 0.30104  0.00156  0.95364  Biso   1.000  O
  C336     1.0000 0.39279  0.90409  0.84466  Biso   1.000  C
  H361     1.0000 0.48521  0.90328  0.94153  Biso   1.000  H
  C337     1.0000 0.09701  0.92415  0.92598  Biso   1.000  C
  C338     1.0000 0.17007  0.92951  0.85661  Biso   1.000  C
  C339     1.0000 0.05213  0.95202  0.96089  Biso   1.000  C
  C340     1.0000 0.05208  0.95202  0.96089  Biso   1.000  C
  C341     1.0000 0.06495  0.91648  0.08241  Biso   1.000  C
  C342     1.0000 0.06490  0.91648  0.08241  Biso   1.000  C
  C343     1.0000 0.16724  0.05654  0.02651  Biso   1.000  C
  H362     1.0000 0.08575  0.88448  0.18201  Biso   1.000  H
  H363     1.0000 0.08570  0.88448  0.18201  Biso   1.000  H
  C344     1.0000 0.20473  0.96387  0.81613  Biso   1.000  C
  C345     1.0000 0.31860  0.92044  0.81063  Biso   1.000  C
  C346     1.0000 0.33286  0.05654  0.97355  Biso   1.000  C
  H364     1.0000 0.41440  0.88448  0.81804  Biso   1.000  H
  C347     1.0000 0.11586  0.86762  0.93957  Biso   1.000  C
  C348     1.0000 0.18729  0.87276  0.87150  Biso   1.000  C
  H365     1.0000 0.00302  0.93322  0.94404  Biso   1.000  H
  H366     1.0000 0.04331  0.99212  0.94606  Biso   1.000  H
  H367     1.0000 0.00297  0.93322  0.94404  Biso   1.000  H
  H368     1.0000 0.01487  0.90328  0.05847  Biso   1.000  H
  C349     1.0000 0.18814  0.09537  0.09081  Biso   1.000  C
  H369     1.0000 0.18410  0.07340  0.99187  Biso   1.000  H
  H370     1.0000 0.11217  0.05308  0.00120  Biso   1.000  H
  H371     1.0000 0.18069  0.95379  0.76372  Biso   1.000  H
  H372     1.0000 0.19622  0.00451  0.82055  Biso   1.000  H
  H373     1.0000 0.19617  0.00451  0.82055  Biso   1.000  H
  H374     1.0000 0.28868  0.90969  0.76143  Biso   1.000  H
  H375     1.0000 0.31600  0.07340  0.00818  Biso   1.000  H
  H376     1.0000 0.38793  0.05308  0.99885  Biso   1.000  H
  C350     1.0000 0.31196  0.09537  0.90924  Biso   1.000  C
  C351     1.0000 0.16115  0.84207  0.91284  Biso   1.000  C
  H377     1.0000 0.09751  0.84620  0.96755  Biso   1.000  H
  H378     1.0000 0.21780  0.85472  0.85273  Biso   1.000  H
  O46      1.0000 0.24590  0.09663  0.14459  Biso   1.000  O
  O47      1.0000 0.13037  0.12846  0.08351  Biso   1.000  O
  O48      1.0000 0.13832  0.13900  0.05138  Biso   1.000  O
  O49      1.0000 0.25420  0.09663  0.85546  Biso   1.000  O
  O50      1.0000 0.36973  0.12846  0.91655  Biso   1.000  O
  O51      1.0000 0.36181  0.13900  0.94862  Biso   1.000  O
  H379     1.0000 0.17421  0.80341  0.92293  Biso   1.000  H
  C352     1.0000 0.14499  0.17121  0.13898  Biso   1.000  C
  C353     1.0000 0.14492  0.17121  0.13892  Biso   1.000  C
  C354     1.0000 0.15472  0.19002  0.09540  Biso   1.000  C
  C355     1.0000 0.35516  0.17121  0.86108  Biso   1.000  C
  C356     1.0000 0.34543  0.19002  0.90466  Biso   1.000  C
  H380     1.0000 0.16949  0.15431  0.18828  Biso   1.000  H
  C357     1.0000 0.07018  0.19533  0.12523  Biso   1.000  C
  H381     1.0000 0.17777  0.20102  0.13510  Biso   1.000  H
  H382     1.0000 0.13733  0.14819  0.17443  Biso   1.000  H
  H383     1.0000 0.13449  0.22362  0.06409  Biso   1.000  H
  H384     1.0000 0.20920  0.19470  0.12441  Biso   1.000  H
  C358     1.0000 0.11724  0.18188  0.14443  Biso   1.000  C
  H385     1.0000 0.32233  0.20102  0.86495  Biso   1.000  H
  C359     1.0000 0.42992  0.19533  0.87482  Biso   1.000  C
  H386     1.0000 0.32228  0.20102  0.86495  Biso   1.000  H
  H387     1.0000 0.33058  0.15431  0.81172  Biso   1.000  H
  H388     1.0000 0.36277  0.14819  0.82563  Biso   1.000  H
  H389     1.0000 0.36561  0.22362  0.93597  Biso   1.000  H
  H390     1.0000 0.29090  0.19470  0.87564  Biso   1.000  H
  C360     1.0000 0.38286  0.18188  0.85562  Biso   1.000  C
  H391     1.0000 0.07699  0.22471  0.16128  Biso   1.000  H
  H392     1.0000 0.03840  0.16531  0.12932  Biso   1.000  H
  H393     1.0000 0.04661  0.21160  0.07620  Biso   1.000  H
  H394     1.0000 0.04656  0.21160  0.07620  Biso   1.000  H
  H395     1.0000 0.12655  0.21489  0.17612  Biso   1.000  H
  H396     1.0000 0.06340  0.17741  0.11470  Biso   1.000  H
  H397     1.0000 0.46170  0.16531  0.87073  Biso   1.000  H
  H398     1.0000 0.45349  0.21160  0.92386  Biso   1.000  H
  H399     1.0000 0.42308  0.22471  0.83872  Biso   1.000  H
  H400     1.0000 0.37360  0.21489  0.82393  Biso   1.000  H
  H401     1.0000 0.43670  0.17741  0.88535  Biso   1.000  H
