data_image0
_cell_length_a       15.476
_cell_length_b       15.476
_cell_length_c       40.59
_cell_angle_alpha    90
_cell_angle_beta     90
_cell_angle_gamma    90

_symmetry_space_group_name_H-M    "P 1"
_symmetry_int_tables_number       1

loop_
  _symmetry_equiv_pos_as_xyz
  'x, y, z'

loop_
  _atom_site_label
  _atom_site_occupancy
  _atom_site_fract_x
  _atom_site_fract_y
  _atom_site_fract_z
  _atom_site_thermal_displace_type
  _atom_site_B_iso_or_equiv
  _atom_site_type_symbol
  C1       1.0000 0.49373  0.55654  0.70069  Biso   1.000  C
  C2       1.0000 0.42569  0.60384  0.69150  Biso   1.000  C
  C3       1.0000 0.48669  0.46814  0.71239  Biso   1.000  C
  H1       1.0000 0.54950  0.58200  0.69948  Biso   1.000  H
  C4       1.0000 0.42782  0.69714  0.67980  Biso   1.000  C
  C5       1.0000 0.34369  0.57069  0.69460  Biso   1.000  C
  C6       1.0000 0.40521  0.43842  0.71330  Biso   1.000  C
  H2       1.0000 0.53522  0.43441  0.71880  Biso   1.000  H
  C7       1.0000 0.50950  0.72564  0.66290  Biso   1.000  C
  O1       1.0000 0.36812  0.74554  0.68578  Biso   1.000  O
  C8       1.0000 0.33471  0.48624  0.70468  Biso   1.000  C
  H3       1.0000 0.29452  0.60520  0.69000  Biso   1.000  H
  C9       1.0000 0.37290  0.35009  0.72478  Biso   1.000  C
  C10      1.0000 0.56009  0.67731  0.64420  Biso   1.000  C
  C11      1.0000 0.51751  0.82269  0.66369  Biso   1.000  C
  C12      1.0000 0.26034  0.43280  0.70889  Biso   1.000  C
  N1       1.0000 0.28573  0.35132  0.71978  Biso   1.000  N
  O2       1.0000 0.42123  0.29161  0.73360  Biso   1.000  O
  C13      1.0000 0.62200  0.71414  0.62629  Biso   1.000  C
  H4       1.0000 0.55221  0.61644  0.64348  Biso   1.000  H
  C14      1.0000 0.58271  0.85765  0.64541  Biso   1.000  C
  H5       1.0000 0.47932  0.85772  0.67630  Biso   1.000  H
  O3       1.0000 0.18409  0.44411  0.70249  Biso   1.000  O
  C15      1.0000 0.23378  0.27048  0.72109  Biso   1.000  C
  C16      1.0000 0.68920  0.67724  0.60379  Biso   1.000  C
  C17      1.0000 0.63330  0.80492  0.62540  Biso   1.000  C
  H6       1.0000 0.59350  0.91794  0.64629  Biso   1.000  H
  C18      1.0000 0.26150  0.21343  0.69098  Biso   1.000  C
  C19      1.0000 0.24399  0.21898  0.75110  Biso   1.000  C
  H7       1.0000 0.17130  0.28580  0.71860  Biso   1.000  H
  N2       1.0000 0.73650  0.75181  0.58980  Biso   1.000  N
  O4       1.0000 0.70451  0.60423  0.59749  Biso   1.000  O
  C20      1.0000 0.69792  0.82683  0.60269  Biso   1.000  C
  N3       1.0000 0.24819  0.26350  0.66019  Biso   1.000  N
  H8       1.0000 0.32360  0.19669  0.69320  Biso   1.000  H
  C21      1.0000 0.20218  0.12872  0.68950  Biso   1.000  C
  C22      1.0000 0.18170  0.14319  0.75009  Biso   1.000  C
  H9       1.0000 0.23210  0.25510  0.77058  Biso   1.000  H
  H10      1.0000 0.30408  0.19753  0.75260  Biso   1.000  H
  C23      1.0000 0.78664  0.73850  0.55900  Biso   1.000  C
  O5       1.0000 0.72280  0.90165  0.59389  Biso   1.000  O
  C24      1.0000 0.32282  0.31080  0.64619  Biso   1.000  C
  C25      1.0000 0.17324  0.30208  0.64730  Biso   1.000  C
  H11      1.0000 0.21873  0.09188  0.67058  Biso   1.000  H
  H12      1.0000 0.14048  0.14461  0.68729  Biso   1.000  H
  C26      1.0000 0.21911  0.07922  0.72370  Biso   1.000  C
  H13      1.0000 0.12322  0.16283  0.74368  Biso   1.000  H
  H14      1.0000 0.17828  0.11489  0.77189  Biso   1.000  H
  C27      1.0000 0.72952  0.76622  0.52890  Biso   1.000  C
  H15      1.0000 0.80331  0.67640  0.55679  Biso   1.000  H
  C28      1.0000 0.87135  0.79782  0.56048  Biso   1.000  C
  C29      1.0000 0.28593  0.37800  0.62370  Biso   1.000  C
  O6       1.0000 0.39584  0.29549  0.65250  Biso   1.000  O
  C30      1.0000 0.19508  0.36670  0.62459  Biso   1.000  C
  O7       1.0000 0.09841  0.27720  0.65610  Biso   1.000  O
  H16      1.0000 0.18842  0.02313  0.72419  Biso   1.000  H
  H17      1.0000 0.28160  0.06907  0.72720  Biso   1.000  H
  N4       1.0000 0.64875  0.71433  0.53020  Biso   1.000  N
  C31      1.0000 0.78102  0.75601  0.49889  Biso   1.000  C
  H18      1.0000 0.71420  0.82870  0.53139  Biso   1.000  H
  H19      1.0000 0.90812  0.78134  0.57940  Biso   1.000  H
  H20      1.0000 0.85545  0.85952  0.56270  Biso   1.000  H
  C32      1.0000 0.92085  0.78095  0.52629  Biso   1.000  C
  C33      1.0000 0.32269  0.43991  0.60579  Biso   1.000  C
  C34      1.0000 0.14241  0.41729  0.60458  Biso   1.000  C
  C35      1.0000 0.64991  0.62710  0.52520  Biso   1.000  C
  C36      1.0000 0.56720  0.73973  0.54109  Biso   1.000  C
  C37      1.0000 0.85681  0.81830  0.49990  Biso   1.000  C
  H21      1.0000 0.74490  0.76790  0.47940  Biso   1.000  H
  H22      1.0000 0.80253  0.69592  0.49739  Biso   1.000  H
  H23      1.0000 0.97693  0.81164  0.52579  Biso   1.000  H
  H24      1.0000 0.93093  0.71840  0.52279  Biso   1.000  H
  C38      1.0000 0.27442  0.49050  0.58709  Biso   1.000  C
  H25      1.0000 0.38363  0.44779  0.60650  Biso   1.000  H
  C39      1.0000 0.17731  0.48249  0.58630  Biso   1.000  C
  H26      1.0000 0.08213  0.40650  0.60370  Biso   1.000  H
  C40      1.0000 0.56164  0.59479  0.53668  Biso   1.000  C
  O8       1.0000 0.70839  0.57883  0.51638  Biso   1.000  O
  C41      1.0000 0.51383  0.66529  0.54531  Biso   1.000  C
  O9       1.0000 0.55589  0.81591  0.54750  Biso   1.000  O
  H27      1.0000 0.83723  0.87684  0.50631  Biso   1.000  H
  H28      1.0000 0.88511  0.82172  0.47810  Biso   1.000  H
  C42      1.0000 0.30292  0.57224  0.57019  Biso   1.000  C
  H29      1.0000 0.14228  0.52074  0.57369  Biso   1.000  H
  C43      1.0000 0.53192  0.51331  0.53760  Biso   1.000  C
  C44      1.0000 0.42931  0.65631  0.55538  Biso   1.000  C
  C45      1.0000 0.39623  0.57431  0.55849  Biso   1.000  C
  O10      1.0000 0.25452  0.63195  0.56420  Biso   1.000  O
  H30      1.0000 0.56559  0.46478  0.53119  Biso   1.000  H
  C46      1.0000 0.44353  0.50633  0.54930  Biso   1.000  C
  H31      1.0000 0.39480  0.70554  0.55999  Biso   1.000  H
  H32      1.0000 0.41800  0.45050  0.55051  Biso   1.000  H
  O11      1.0000 0.61450  0.32592  0.66829  Biso   1.000  O
  C47      1.0000 0.68674  0.31009  0.67480  Biso   1.000  C
  N5       1.0000 0.71420  0.22894  0.68980  Biso   1.000  N
  C48      1.0000 0.76370  0.36069  0.67029  Biso   1.000  C
  C49      1.0000 0.80460  0.23398  0.69359  Biso   1.000  C
  C50      1.0000 0.65450  0.15650  0.70118  Biso   1.000  C
  C51      1.0000 0.77643  0.44333  0.65878  Biso   1.000  C
  C52      1.0000 0.83613  0.31158  0.68088  Biso   1.000  C
  O12      1.0000 0.84111  0.17259  0.70939  Biso   1.000  O
  C53      1.0000 0.60539  0.19042  0.72988  Biso   1.000  C
  H33      1.0000 0.69113  0.10733  0.70899  Biso   1.000  H
  C54      1.0000 0.59789  0.12477  0.67430  Biso   1.000  C
  C55      1.0000 0.86334  0.48029  0.65829  Biso   1.000  C
  H34      1.0000 0.72874  0.47642  0.65129  Biso   1.000  H
  C56      1.0000 0.91910  0.34259  0.68009  Biso   1.000  C
  N6       1.0000 0.65883  0.21963  0.75659  Biso   1.000  N
  H35      1.0000 0.57282  0.24199  0.72190  Biso   1.000  H
  C57      1.0000 0.53631  0.12439  0.74270  Biso   1.000  C
  H36      1.0000 0.63388  0.10067  0.65639  Biso   1.000  H
  H37      1.0000 0.56403  0.17349  0.66519  Biso   1.000  H
  C58      1.0000 0.53670  0.05538  0.68709  Biso   1.000  C
  C59      1.0000 0.87839  0.56778  0.65038  Biso   1.000  C
  C60      1.0000 0.93215  0.42634  0.66718  Biso   1.000  C
  H38      1.0000 0.96614  0.30893  0.68790  Biso   1.000  H
  C61      1.0000 0.67931  0.30512  0.76359  Biso   1.000  C
  C62      1.0000 0.70890  0.16329  0.77719  Biso   1.000  C
  C63      1.0000 0.48062  0.09020  0.71409  Biso   1.000  C
  H39      1.0000 0.56584  0.07541  0.75368  Biso   1.000  H
  H40      1.0000 0.49884  0.15288  0.75920  Biso   1.000  H
  H41      1.0000 0.50000  0.03438  0.66879  Biso   1.000  H
  H42      1.0000 0.57069  0.00588  0.69549  Biso   1.000  H
  O13      1.0000 0.93474  0.58749  0.62929  Biso   1.000  O
  C64      1.0000 0.83419  0.64403  0.66669  Biso   1.000  C
  H43      1.0000 0.98960  0.44669  0.66460  Biso   1.000  H
  O14      1.0000 0.65062  0.36592  0.74762  Biso   1.000  O
  C65      1.0000 0.73940  0.30402  0.79029  Biso   1.000  C
  O15      1.0000 0.71039  0.08581  0.77630  Biso   1.000  O
  C66      1.0000 0.75801  0.22002  0.79948  Biso   1.000  C
  H44      1.0000 0.44191  0.04400  0.72230  Biso   1.000  H
  H45      1.0000 0.44411  0.13763  0.70540  Biso   1.000  H
  C67      1.0000 0.77701  0.62432  0.69350  Biso   1.000  C
  C68      1.0000 0.85145  0.72312  0.65920  Biso   1.000  C
  C69      1.0000 0.77701  0.37568  0.80650  Biso   1.000  C
  C70      1.0000 0.81500  0.20483  0.82609  Biso   1.000  C
  C71      1.0000 0.73940  0.69605  0.70968  Biso   1.000  C
  H46      1.0000 0.76512  0.56649  0.69990  Biso   1.000  H
  H47      1.0000 0.89241  0.73275  0.64220  Biso   1.000  H
  C72      1.0000 0.81500  0.79523  0.67389  Biso   1.000  C
  H48      1.0000 0.76512  0.43351  0.80010  Biso   1.000  H
  C73      1.0000 0.83419  0.35604  0.83328  Biso   1.000  C
  C74      1.0000 0.85145  0.27688  0.84080  Biso   1.000  C
  H49      1.0000 0.82773  0.14804  0.83358  Biso   1.000  H
  C75      1.0000 0.67931  0.69495  0.73639  Biso   1.000  C
  C76      1.0000 0.75801  0.78005  0.70049  Biso   1.000  C
  H50      1.0000 0.82773  0.85203  0.66640  Biso   1.000  H
  C77      1.0000 0.87839  0.43222  0.84959  Biso   1.000  C
  H51      1.0000 0.89241  0.26732  0.85780  Biso   1.000  H
  O16      1.0000 0.65062  0.63414  0.75238  Biso   1.000  O
  N7       1.0000 0.65883  0.78043  0.74339  Biso   1.000  N
  C78      1.0000 0.70890  0.83671  0.72279  Biso   1.000  C
  O17      1.0000 0.93474  0.41251  0.87068  Biso   1.000  O
  C79      1.0000 0.86334  0.51971  0.84169  Biso   1.000  C
  C80      1.0000 0.60539  0.80964  0.77009  Biso   1.000  C
  O18      1.0000 0.71039  0.91425  0.72370  Biso   1.000  O
  C81      1.0000 0.77643  0.55673  0.84119  Biso   1.000  C
  C82      1.0000 0.93215  0.57373  0.83279  Biso   1.000  C
  H52      1.0000 0.57282  0.75801  0.77810  Biso   1.000  H
  C83      1.0000 0.65450  0.84350  0.79879  Biso   1.000  C
  C84      1.0000 0.53631  0.87561  0.75730  Biso   1.000  C
  H53      1.0000 0.72874  0.52358  0.84868  Biso   1.000  H
  C85      1.0000 0.76370  0.63931  0.82969  Biso   1.000  C
  C86      1.0000 0.91910  0.65741  0.81988  Biso   1.000  C
  H54      1.0000 0.98960  0.55331  0.83540  Biso   1.000  H
  H55      1.0000 0.69113  0.89274  0.79098  Biso   1.000  H
  C87      1.0000 0.59789  0.87523  0.82570  Biso   1.000  C
  N8       1.0000 0.71420  0.77113  0.81020  Biso   1.000  N
  C88      1.0000 0.48062  0.90980  0.78588  Biso   1.000  C
  H56      1.0000 0.56584  0.92459  0.74629  Biso   1.000  H
  H57      1.0000 0.49884  0.84712  0.74080  Biso   1.000  H
  C89      1.0000 0.68674  0.68991  0.82520  Biso   1.000  C
  C90      1.0000 0.83613  0.68842  0.81909  Biso   1.000  C
  H58      1.0000 0.96614  0.69113  0.81210  Biso   1.000  H
  H59      1.0000 0.63388  0.89933  0.84358  Biso   1.000  H
  H60      1.0000 0.56403  0.82651  0.83479  Biso   1.000  H
  C91      1.0000 0.53670  0.94462  0.81288  Biso   1.000  C
  C92      1.0000 0.80460  0.76602  0.80638  Biso   1.000  C
  H61      1.0000 0.44191  0.95600  0.77770  Biso   1.000  H
  H62      1.0000 0.44411  0.86243  0.79458  Biso   1.000  H
  O19      1.0000 0.61450  0.67414  0.83168  Biso   1.000  O
  H63      1.0000 0.50000  0.96562  0.83119  Biso   1.000  H
  H64      1.0000 0.57069  0.99412  0.80448  Biso   1.000  H
  O20      1.0000 0.84111  0.82741  0.79059  Biso   1.000  O
  O21      1.0000 0.67414  0.38550  0.58169  Biso   1.000  O
  C93      1.0000 0.68991  0.31332  0.57519  Biso   1.000  C
  N9       1.0000 0.77113  0.28580  0.56019  Biso   1.000  N
  C94      1.0000 0.63931  0.23630  0.57970  Biso   1.000  C
  C95      1.0000 0.84350  0.34550  0.54881  Biso   1.000  C
  C96      1.0000 0.76602  0.19540  0.55639  Biso   1.000  C
  C97      1.0000 0.68842  0.16393  0.56911  Biso   1.000  C
  C98      1.0000 0.55673  0.22364  0.59120  Biso   1.000  C
  C99      1.0000 0.80964  0.39461  0.52010  Biso   1.000  C
  H65      1.0000 0.89274  0.30893  0.54100  Biso   1.000  H
  C100     1.0000 0.87523  0.40211  0.57568  Biso   1.000  C
  O22      1.0000 0.82741  0.15889  0.54060  Biso   1.000  O
  C101     1.0000 0.65741  0.08090  0.56989  Biso   1.000  C
  C102     1.0000 0.51971  0.13673  0.59170  Biso   1.000  C
  H66      1.0000 0.52358  0.27132  0.59869  Biso   1.000  H
  N10      1.0000 0.78043  0.34124  0.49340  Biso   1.000  N
  H67      1.0000 0.75801  0.42724  0.52809  Biso   1.000  H
  C103     1.0000 0.87561  0.46369  0.50729  Biso   1.000  C
  H68      1.0000 0.89933  0.36612  0.59359  Biso   1.000  H
  H69      1.0000 0.82651  0.43603  0.58480  Biso   1.000  H
  C104     1.0000 0.94462  0.46330  0.56290  Biso   1.000  C
  C105     1.0000 0.57373  0.06791  0.58280  Biso   1.000  C
  H70      1.0000 0.69113  0.03392  0.56208  Biso   1.000  H
  C106     1.0000 0.43222  0.12161  0.59961  Biso   1.000  C
  C107     1.0000 0.69495  0.32069  0.48640  Biso   1.000  C
  C108     1.0000 0.83671  0.29110  0.47280  Biso   1.000  C
  C109     1.0000 0.90980  0.51938  0.53590  Biso   1.000  C
  H71      1.0000 0.92459  0.43422  0.49630  Biso   1.000  H
  H72      1.0000 0.84712  0.50123  0.49079  Biso   1.000  H
  H73      1.0000 0.96562  0.50000  0.58120  Biso   1.000  H
  H74      1.0000 0.99412  0.42931  0.55450  Biso   1.000  H
  H75      1.0000 0.55331  0.01040  0.58539  Biso   1.000  H
  C110     1.0000 0.35604  0.16581  0.58330  Biso   1.000  C
  O23      1.0000 0.41251  0.06533  0.62069  Biso   1.000  O
  C111     1.0000 0.69605  0.26060  0.45969  Biso   1.000  C
  O24      1.0000 0.63414  0.34938  0.50237  Biso   1.000  O
  C112     1.0000 0.78005  0.24199  0.45051  Biso   1.000  C
  O25      1.0000 0.91425  0.28961  0.47369  Biso   1.000  O
  H76      1.0000 0.95600  0.55809  0.52769  Biso   1.000  H
  H77      1.0000 0.86243  0.55589  0.54459  Biso   1.000  H
  C113     1.0000 0.37568  0.22299  0.55649  Biso   1.000  C
  C114     1.0000 0.27688  0.14862  0.59079  Biso   1.000  C
  C115     1.0000 0.62432  0.22299  0.44348  Biso   1.000  C
  C116     1.0000 0.79523  0.18500  0.42390  Biso   1.000  C
  C117     1.0000 0.30402  0.26060  0.54031  Biso   1.000  C
  H78      1.0000 0.43351  0.23488  0.55009  Biso   1.000  H
  C118     1.0000 0.20483  0.18500  0.57610  Biso   1.000  C
  H79      1.0000 0.26732  0.10759  0.60779  Biso   1.000  H
  C119     1.0000 0.64403  0.16581  0.41670  Biso   1.000  C
  H80      1.0000 0.56649  0.23488  0.44989  Biso   1.000  H
  C120     1.0000 0.72312  0.14862  0.40919  Biso   1.000  C
  H81      1.0000 0.85203  0.17233  0.41641  Biso   1.000  H
  C121     1.0000 0.30512  0.32069  0.51360  Biso   1.000  C
  C122     1.0000 0.22002  0.24199  0.54949  Biso   1.000  C
  H82      1.0000 0.14804  0.17233  0.58359  Biso   1.000  H
  C123     1.0000 0.56778  0.12161  0.40039  Biso   1.000  C
  H83      1.0000 0.73275  0.10759  0.39219  Biso   1.000  H
  N11      1.0000 0.21963  0.34124  0.50660  Biso   1.000  N
  O26      1.0000 0.36592  0.34938  0.49761  Biso   1.000  O
  C124     1.0000 0.16329  0.29110  0.52720  Biso   1.000  C
  C125     1.0000 0.48029  0.13673  0.40830  Biso   1.000  C
  O27      1.0000 0.58749  0.06533  0.37931  Biso   1.000  O
  C126     1.0000 0.19042  0.39461  0.47990  Biso   1.000  C
  O28      1.0000 0.08581  0.28961  0.52629  Biso   1.000  O
  C127     1.0000 0.44333  0.22364  0.40880  Biso   1.000  C
  C128     1.0000 0.42634  0.06791  0.41720  Biso   1.000  C
  C129     1.0000 0.15650  0.34550  0.45119  Biso   1.000  C
  H84      1.0000 0.24199  0.42724  0.47189  Biso   1.000  H
  C130     1.0000 0.12439  0.46369  0.49268  Biso   1.000  C
  H85      1.0000 0.47642  0.27132  0.40131  Biso   1.000  H
  C131     1.0000 0.36069  0.23630  0.42030  Biso   1.000  C
  C132     1.0000 0.34259  0.08090  0.43011  Biso   1.000  C
  H86      1.0000 0.44669  0.01040  0.41458  Biso   1.000  H
  N12      1.0000 0.22894  0.28580  0.43979  Biso   1.000  N
  H87      1.0000 0.10733  0.30893  0.45900  Biso   1.000  H
  C133     1.0000 0.12477  0.40211  0.42429  Biso   1.000  C
  C134     1.0000 0.09020  0.51938  0.46410  Biso   1.000  C
  H88      1.0000 0.07541  0.43422  0.50370  Biso   1.000  H
  H89      1.0000 0.15288  0.50123  0.50919  Biso   1.000  H
  C135     1.0000 0.31009  0.31332  0.42478  Biso   1.000  C
  C136     1.0000 0.31158  0.16393  0.43089  Biso   1.000  C
  H90      1.0000 0.30893  0.03392  0.43789  Biso   1.000  H
  C137     1.0000 0.23398  0.19540  0.44361  Biso   1.000  C
  H91      1.0000 0.10067  0.36612  0.40641  Biso   1.000  H
  H92      1.0000 0.17349  0.43603  0.41520  Biso   1.000  H
  C138     1.0000 0.05538  0.46330  0.43710  Biso   1.000  C
  H93      1.0000 0.04400  0.55809  0.47228  Biso   1.000  H
  H94      1.0000 0.13763  0.55589  0.45541  Biso   1.000  H
  O29      1.0000 0.32592  0.38550  0.41831  Biso   1.000  O
  O30      1.0000 0.17259  0.15889  0.45940  Biso   1.000  O
  H95      1.0000 0.03438  0.50000  0.41880  Biso   1.000  H
  H96      1.0000 0.00588  0.42931  0.44550  Biso   1.000  H
  O31      1.0000 0.42123  0.70839  0.76640  Biso   1.000  O
  C139     1.0000 0.37290  0.64991  0.77519  Biso   1.000  C
  N13      1.0000 0.28573  0.64875  0.78019  Biso   1.000  N
  C140     1.0000 0.40521  0.56164  0.78670  Biso   1.000  C
  C141     1.0000 0.23378  0.72952  0.77889  Biso   1.000  C
  C142     1.0000 0.26034  0.56720  0.79108  Biso   1.000  C
  C143     1.0000 0.33471  0.51383  0.79529  Biso   1.000  C
  C144     1.0000 0.48669  0.53192  0.78758  Biso   1.000  C
  C145     1.0000 0.24399  0.78102  0.74890  Biso   1.000  C
  C146     1.0000 0.26150  0.78664  0.80899  Biso   1.000  C
  H97      1.0000 0.17130  0.71420  0.78140  Biso   1.000  H
  O32      1.0000 0.18409  0.55589  0.79749  Biso   1.000  O
  C147     1.0000 0.34369  0.42931  0.80540  Biso   1.000  C
  H98      1.0000 0.53522  0.56559  0.78120  Biso   1.000  H
  C148     1.0000 0.49373  0.44353  0.79929  Biso   1.000  C
  C149     1.0000 0.18170  0.85681  0.74989  Biso   1.000  C
  H99      1.0000 0.23210  0.74490  0.72939  Biso   1.000  H
  H100     1.0000 0.30408  0.80253  0.74740  Biso   1.000  H
  C150     1.0000 0.20218  0.87135  0.81050  Biso   1.000  C
  N14      1.0000 0.24819  0.73650  0.83979  Biso   1.000  N
  H101     1.0000 0.32360  0.80331  0.80680  Biso   1.000  H
  C151     1.0000 0.42569  0.39623  0.80850  Biso   1.000  C
  H102     1.0000 0.29452  0.39480  0.81000  Biso   1.000  H
  H103     1.0000 0.54950  0.41800  0.80049  Biso   1.000  H
  C152     1.0000 0.21911  0.92085  0.77630  Biso   1.000  C
  H104     1.0000 0.12322  0.83723  0.75629  Biso   1.000  H
  H105     1.0000 0.17828  0.88511  0.72809  Biso   1.000  H
  H106     1.0000 0.21873  0.90812  0.82939  Biso   1.000  H
  H107     1.0000 0.14048  0.85545  0.81269  Biso   1.000  H
  C153     1.0000 0.17324  0.69792  0.85270  Biso   1.000  C
  C154     1.0000 0.32282  0.68920  0.85378  Biso   1.000  C
  C155     1.0000 0.42782  0.30292  0.82020  Biso   1.000  C
  H108     1.0000 0.18842  0.97693  0.77578  Biso   1.000  H
  H109     1.0000 0.28160  0.93093  0.77280  Biso   1.000  H
  O33      1.0000 0.09841  0.72280  0.84390  Biso   1.000  O
  C156     1.0000 0.19508  0.63330  0.87539  Biso   1.000  C
  O34      1.0000 0.39584  0.70451  0.84750  Biso   1.000  O
  C157     1.0000 0.28593  0.62200  0.87630  Biso   1.000  C
  O35      1.0000 0.36812  0.25452  0.81419  Biso   1.000  O
  C158     1.0000 0.50950  0.27442  0.83710  Biso   1.000  C
  C159     1.0000 0.14241  0.58271  0.89539  Biso   1.000  C
  C160     1.0000 0.32269  0.56009  0.89419  Biso   1.000  C
  C161     1.0000 0.51751  0.17731  0.83629  Biso   1.000  C
  C162     1.0000 0.56009  0.32269  0.85580  Biso   1.000  C
  H110     1.0000 0.08213  0.59350  0.89628  Biso   1.000  H
  C163     1.0000 0.17731  0.51751  0.91370  Biso   1.000  C
  C164     1.0000 0.27442  0.50950  0.91288  Biso   1.000  C
  H111     1.0000 0.38363  0.55221  0.89350  Biso   1.000  H
  C165     1.0000 0.58271  0.14241  0.85459  Biso   1.000  C
  H112     1.0000 0.47932  0.14228  0.82370  Biso   1.000  H
  H113     1.0000 0.55221  0.38363  0.85649  Biso   1.000  H
  C166     1.0000 0.62200  0.28593  0.87369  Biso   1.000  C
  H114     1.0000 0.14228  0.47932  0.92629  Biso   1.000  H
  C167     1.0000 0.30292  0.42782  0.92979  Biso   1.000  C
  C168     1.0000 0.63330  0.19508  0.87460  Biso   1.000  C
  H115     1.0000 0.59350  0.08213  0.85368  Biso   1.000  H
  C169     1.0000 0.68920  0.32282  0.89618  Biso   1.000  C
  O36      1.0000 0.25452  0.36812  0.93580  Biso   1.000  O
  C170     1.0000 0.39623  0.42569  0.94149  Biso   1.000  C
  C171     1.0000 0.69792  0.17324  0.89729  Biso   1.000  C
  O37      1.0000 0.70451  0.39584  0.90249  Biso   1.000  O
  N15      1.0000 0.73650  0.24819  0.91020  Biso   1.000  N
  C172     1.0000 0.42931  0.34369  0.94459  Biso   1.000  C
  C173     1.0000 0.44353  0.49373  0.95070  Biso   1.000  C
  O38      1.0000 0.72280  0.09841  0.90609  Biso   1.000  O
  C174     1.0000 0.78664  0.26150  0.94100  Biso   1.000  C
  H116     1.0000 0.39480  0.29452  0.93999  Biso   1.000  H
  C175     1.0000 0.51383  0.33471  0.95469  Biso   1.000  C
  C176     1.0000 0.53192  0.48669  0.96238  Biso   1.000  C
  H117     1.0000 0.41800  0.54950  0.94949  Biso   1.000  H
  C177     1.0000 0.72952  0.23378  0.97110  Biso   1.000  C
  H118     1.0000 0.80331  0.32360  0.94319  Biso   1.000  H
  C178     1.0000 0.87135  0.20218  0.93949  Biso   1.000  C
  C179     1.0000 0.56720  0.26034  0.95888  Biso   1.000  C
  C180     1.0000 0.56164  0.40521  0.96329  Biso   1.000  C
  H119     1.0000 0.56559  0.53522  0.96879  Biso   1.000  H
  N16      1.0000 0.64875  0.28573  0.96980  Biso   1.000  N
  H120     1.0000 0.71420  0.17130  0.96859  Biso   1.000  H
  C181     1.0000 0.78102  0.24399  0.00108  Biso   1.000  C
  H121     1.0000 0.90812  0.21873  0.92060  Biso   1.000  H
  H122     1.0000 0.85545  0.14048  0.93730  Biso   1.000  H
  C182     1.0000 0.92085  0.21911  0.97369  Biso   1.000  C
  O39      1.0000 0.55589  0.18409  0.95250  Biso   1.000  O
  C183     1.0000 0.64991  0.37290  0.97480  Biso   1.000  C
  C184     1.0000 0.85681  0.18170  0.00010  Biso   1.000  C
  H123     1.0000 0.74490  0.23210  0.02060  Biso   1.000  H
  H124     1.0000 0.80253  0.30408  0.00259  Biso   1.000  H
  H125     1.0000 0.97693  0.18842  0.97418  Biso   1.000  H
  H126     1.0000 0.93093  0.28160  0.97719  Biso   1.000  H
  O40      1.0000 0.70839  0.42123  0.98359  Biso   1.000  O
  H127     1.0000 0.83723  0.12322  0.99369  Biso   1.000  H
  H128     1.0000 0.88511  0.17828  0.02190  Biso   1.000  H
  O41      1.0000 0.29161  0.57883  0.48359  Biso   1.000  O
  C185     1.0000 0.35009  0.62710  0.47480  Biso   1.000  C
  C186     1.0000 0.43842  0.59479  0.46329  Biso   1.000  C
  N17      1.0000 0.35132  0.71433  0.46980  Biso   1.000  N
  C187     1.0000 0.48624  0.66529  0.45469  Biso   1.000  C
  C188     1.0000 0.46814  0.51331  0.46240  Biso   1.000  C
  C189     1.0000 0.27048  0.76622  0.47110  Biso   1.000  C
  C190     1.0000 0.43280  0.73973  0.45891  Biso   1.000  C
  C191     1.0000 0.57069  0.65631  0.44459  Biso   1.000  C
  C192     1.0000 0.55654  0.50633  0.45070  Biso   1.000  C
  H129     1.0000 0.43441  0.46478  0.46879  Biso   1.000  H
  C193     1.0000 0.21343  0.73850  0.44100  Biso   1.000  C
  C194     1.0000 0.21898  0.75601  0.50108  Biso   1.000  C
  H130     1.0000 0.28580  0.82870  0.46859  Biso   1.000  H
  O42      1.0000 0.44411  0.81591  0.45250  Biso   1.000  O
  C195     1.0000 0.60384  0.57431  0.44149  Biso   1.000  C
  H131     1.0000 0.60520  0.70554  0.43999  Biso   1.000  H
  H132     1.0000 0.58200  0.45050  0.44949  Biso   1.000  H
  N18      1.0000 0.26350  0.75181  0.41020  Biso   1.000  N
  H133     1.0000 0.19669  0.67640  0.44319  Biso   1.000  H
  C196     1.0000 0.12872  0.79782  0.43949  Biso   1.000  C
  C197     1.0000 0.14319  0.81830  0.50010  Biso   1.000  C
  H134     1.0000 0.25510  0.76790  0.52060  Biso   1.000  H
  H135     1.0000 0.19753  0.69592  0.50259  Biso   1.000  H
  C198     1.0000 0.69714  0.57224  0.42979  Biso   1.000  C
  C199     1.0000 0.31080  0.67724  0.39621  Biso   1.000  C
  C200     1.0000 0.30208  0.82683  0.39729  Biso   1.000  C
  H136     1.0000 0.09188  0.78134  0.42060  Biso   1.000  H
  H137     1.0000 0.14461  0.85952  0.43730  Biso   1.000  H
  C201     1.0000 0.07922  0.78095  0.47369  Biso   1.000  C
  H138     1.0000 0.16283  0.87684  0.49369  Biso   1.000  H
  H139     1.0000 0.11489  0.82172  0.52190  Biso   1.000  H
  C202     1.0000 0.72564  0.49050  0.41288  Biso   1.000  C
  O43      1.0000 0.74554  0.63195  0.43580  Biso   1.000  O
  C203     1.0000 0.37800  0.71414  0.37369  Biso   1.000  C
  O44      1.0000 0.29549  0.60423  0.40249  Biso   1.000  O
  C204     1.0000 0.36670  0.80492  0.37460  Biso   1.000  C
  O45      1.0000 0.27720  0.90165  0.40609  Biso   1.000  O
  H140     1.0000 0.02313  0.81164  0.47421  Biso   1.000  H
  H141     1.0000 0.06907  0.71840  0.47719  Biso   1.000  H
  C205     1.0000 0.67731  0.43991  0.39419  Biso   1.000  C
  C206     1.0000 0.82269  0.48249  0.41370  Biso   1.000  C
  C207     1.0000 0.43991  0.67731  0.35580  Biso   1.000  C
  C208     1.0000 0.41729  0.85765  0.35459  Biso   1.000  C
  C209     1.0000 0.71414  0.37800  0.37630  Biso   1.000  C
  H142     1.0000 0.61644  0.44779  0.39350  Biso   1.000  H
  C210     1.0000 0.85765  0.41729  0.39539  Biso   1.000  C
  H143     1.0000 0.85772  0.52074  0.42629  Biso   1.000  H
  C211     1.0000 0.49050  0.72564  0.33710  Biso   1.000  C
  H144     1.0000 0.44779  0.61644  0.35649  Biso   1.000  H
  C212     1.0000 0.48249  0.82269  0.33629  Biso   1.000  C
  H145     1.0000 0.40650  0.91794  0.35371  Biso   1.000  H
  C213     1.0000 0.67724  0.31080  0.35381  Biso   1.000  C
  C214     1.0000 0.80492  0.36670  0.37539  Biso   1.000  C
  H146     1.0000 0.91794  0.40650  0.39630  Biso   1.000  H
  C215     1.0000 0.57224  0.69714  0.32020  Biso   1.000  C
  H147     1.0000 0.52074  0.85772  0.32370  Biso   1.000  H
  N19      1.0000 0.75181  0.26350  0.33979  Biso   1.000  N
  O46      1.0000 0.60423  0.29549  0.34750  Biso   1.000  O
  C216     1.0000 0.82683  0.30208  0.35270  Biso   1.000  C
  C217     1.0000 0.57431  0.60384  0.30850  Biso   1.000  C
  O47      1.0000 0.63195  0.74554  0.31419  Biso   1.000  O
  C218     1.0000 0.73850  0.21343  0.30899  Biso   1.000  C
  O48      1.0000 0.90165  0.27720  0.34390  Biso   1.000  O
  C219     1.0000 0.65631  0.57069  0.30540  Biso   1.000  C
  C220     1.0000 0.50633  0.55654  0.29929  Biso   1.000  C
  C221     1.0000 0.76622  0.27048  0.27889  Biso   1.000  C
  H148     1.0000 0.67640  0.19669  0.30680  Biso   1.000  H
  C222     1.0000 0.79782  0.12872  0.31050  Biso   1.000  C
  C223     1.0000 0.66529  0.48624  0.29529  Biso   1.000  C
  H149     1.0000 0.70554  0.60520  0.31000  Biso   1.000  H
  C224     1.0000 0.51331  0.46814  0.28761  Biso   1.000  C
  H150     1.0000 0.45050  0.58200  0.30049  Biso   1.000  H
  N20      1.0000 0.71433  0.35132  0.28019  Biso   1.000  N
  C225     1.0000 0.75601  0.21898  0.24890  Biso   1.000  C
  H151     1.0000 0.82870  0.28580  0.28140  Biso   1.000  H
  H152     1.0000 0.78134  0.09188  0.32939  Biso   1.000  H
  H153     1.0000 0.85952  0.14461  0.31269  Biso   1.000  H
  C226     1.0000 0.78095  0.07922  0.27630  Biso   1.000  C
  C227     1.0000 0.59479  0.43842  0.28670  Biso   1.000  C
  C228     1.0000 0.73973  0.43280  0.29111  Biso   1.000  C
  H154     1.0000 0.46478  0.43441  0.28120  Biso   1.000  H
  C229     1.0000 0.62710  0.35009  0.27519  Biso   1.000  C
  C230     1.0000 0.81830  0.14319  0.24989  Biso   1.000  C
  H155     1.0000 0.76790  0.25510  0.22939  Biso   1.000  H
  H156     1.0000 0.69592  0.19753  0.24740  Biso   1.000  H
  H157     1.0000 0.81164  0.02313  0.27581  Biso   1.000  H
  H158     1.0000 0.71840  0.06907  0.27280  Biso   1.000  H
  O49      1.0000 0.81591  0.44411  0.29749  Biso   1.000  O
  O50      1.0000 0.57883  0.29161  0.26640  Biso   1.000  O
  H159     1.0000 0.87684  0.16283  0.25629  Biso   1.000  H
  H160     1.0000 0.82172  0.11489  0.22809  Biso   1.000  H
  C231     1.0000 0.55673  0.77643  0.90880  Biso   1.000  C
  C232     1.0000 0.51971  0.86334  0.90830  Biso   1.000  C
  C233     1.0000 0.63931  0.76370  0.92030  Biso   1.000  C
  H161     1.0000 0.52358  0.72874  0.90131  Biso   1.000  H
  H162     1.0000 0.52358  0.72874  0.90128  Biso   1.000  H
  C234     1.0000 0.43222  0.87839  0.90039  Biso   1.000  C
  C235     1.0000 0.57373  0.93215  0.91720  Biso   1.000  C
  C236     1.0000 0.68842  0.83613  0.93089  Biso   1.000  C
  C237     1.0000 0.68991  0.68674  0.92478  Biso   1.000  C
  O51      1.0000 0.41251  0.93474  0.87931  Biso   1.000  O
  C238     1.0000 0.35604  0.83419  0.91670  Biso   1.000  C
  O52      1.0000 0.41251  0.93474  0.87928  Biso   1.000  O
  C239     1.0000 0.35604  0.83419  0.91668  Biso   1.000  C
  H163     1.0000 0.55331  0.98960  0.91461  Biso   1.000  H
  C240     1.0000 0.65741  0.91910  0.93008  Biso   1.000  C
  H164     1.0000 0.55331  0.98960  0.91458  Biso   1.000  H
  C241     1.0000 0.76602  0.80460  0.94361  Biso   1.000  C
  C242     1.0000 0.76602  0.80460  0.94358  Biso   1.000  C
  O53      1.0000 0.67414  0.61450  0.91828  Biso   1.000  O
  N21      1.0000 0.77113  0.71420  0.93979  Biso   1.000  N
  C243     1.0000 0.27688  0.85145  0.90919  Biso   1.000  C
  C244     1.0000 0.37568  0.77701  0.94348  Biso   1.000  C
  H165     1.0000 0.69113  0.96614  0.93789  Biso   1.000  H
  O54      1.0000 0.82741  0.84111  0.95940  Biso   1.000  O
  C245     1.0000 0.84350  0.65450  0.95119  Biso   1.000  C
  H166     1.0000 0.26732  0.89241  0.89219  Biso   1.000  H
  C246     1.0000 0.20483  0.81500  0.92390  Biso   1.000  C
  C247     1.0000 0.30402  0.73940  0.95969  Biso   1.000  C
  H167     1.0000 0.43351  0.76512  0.94989  Biso   1.000  H
  C248     1.0000 0.80964  0.60539  0.97990  Biso   1.000  C
  C249     1.0000 0.87523  0.59789  0.92429  Biso   1.000  C
  H168     1.0000 0.89274  0.69113  0.95900  Biso   1.000  H
  H169     1.0000 0.89274  0.69113  0.95898  Biso   1.000  H
  H170     1.0000 0.14804  0.82773  0.91641  Biso   1.000  H
  C250     1.0000 0.22002  0.75801  0.95051  Biso   1.000  C
  H171     1.0000 0.14804  0.82773  0.91638  Biso   1.000  H
  C251     1.0000 0.22002  0.75801  0.95048  Biso   1.000  C
  C252     1.0000 0.30512  0.67931  0.98640  Biso   1.000  C
  H172     1.0000 0.75801  0.57282  0.97189  Biso   1.000  H
  C253     1.0000 0.87561  0.53631  0.99268  Biso   1.000  C
  N22      1.0000 0.78043  0.65883  0.00658  Biso   1.000  N
  H173     1.0000 0.82651  0.56403  0.91520  Biso   1.000  H
  C254     1.0000 0.94462  0.53670  0.93710  Biso   1.000  C
  H174     1.0000 0.89933  0.63388  0.90638  Biso   1.000  H
  C255     1.0000 0.16329  0.70890  0.97280  Biso   1.000  C
  N23      1.0000 0.21963  0.65883  0.99340  Biso   1.000  N
  O55      1.0000 0.36592  0.65062  0.00237  Biso   1.000  O
  C256     1.0000 0.90980  0.48062  0.96410  Biso   1.000  C
  C257     1.0000 0.90980  0.48062  0.96408  Biso   1.000  C
  H175     1.0000 0.92459  0.56584  0.00370  Biso   1.000  H
  H176     1.0000 0.84712  0.49884  0.00919  Biso   1.000  H
  C258     1.0000 0.69495  0.67931  0.01360  Biso   1.000  C
  C259     1.0000 0.83671  0.70890  0.02720  Biso   1.000  C
  H177     1.0000 0.96562  0.50000  0.91880  Biso   1.000  H
  H178     1.0000 0.99412  0.57069  0.94548  Biso   1.000  H
  O56      1.0000 0.08581  0.71039  0.97369  Biso   1.000  O
  C260     1.0000 0.19042  0.60539  0.02008  Biso   1.000  C
  H179     1.0000 0.95600  0.44191  0.97228  Biso   1.000  H
  H180     1.0000 0.86243  0.44411  0.95538  Biso   1.000  H
  O57      1.0000 0.63414  0.65062  0.99761  Biso   1.000  O
  C261     1.0000 0.69605  0.73940  0.04028  Biso   1.000  C
  O58      1.0000 0.91425  0.71039  0.02631  Biso   1.000  O
  C262     1.0000 0.78005  0.75801  0.04949  Biso   1.000  C
  O59      1.0000 0.91425  0.71039  0.02629  Biso   1.000  O
  H181     1.0000 0.24199  0.57282  0.02811  Biso   1.000  H
  C263     1.0000 0.12439  0.53631  0.00729  Biso   1.000  C
  H182     1.0000 0.24199  0.57282  0.02809  Biso   1.000  H
  C264     1.0000 0.15650  0.65450  0.04878  Biso   1.000  C
  C265     1.0000 0.62432  0.77701  0.05649  Biso   1.000  C
  C266     1.0000 0.79523  0.81500  0.07610  Biso   1.000  C
  C267     1.0000 0.79523  0.81500  0.07608  Biso   1.000  C
  H183     1.0000 0.10733  0.69113  0.04100  Biso   1.000  H
  N24      1.0000 0.22894  0.71420  0.06019  Biso   1.000  N
  C268     1.0000 0.12477  0.59789  0.07568  Biso   1.000  C
  H184     1.0000 0.07541  0.56584  0.99628  Biso   1.000  H
  H185     1.0000 0.15288  0.49884  0.99079  Biso   1.000  H
  C269     1.0000 0.09020  0.48062  0.03590  Biso   1.000  C
  H186     1.0000 0.56649  0.76512  0.05011  Biso   1.000  H
  C270     1.0000 0.64403  0.83419  0.08330  Biso   1.000  C
  H187     1.0000 0.56649  0.76512  0.05009  Biso   1.000  H
  C271     1.0000 0.72312  0.85145  0.09081  Biso   1.000  C
  H188     1.0000 0.85203  0.82773  0.08359  Biso   1.000  H
  C272     1.0000 0.72312  0.85145  0.09079  Biso   1.000  C
  H189     1.0000 0.10067  0.63388  0.09359  Biso   1.000  H
  H190     1.0000 0.17349  0.56403  0.08480  Biso   1.000  H
  C273     1.0000 0.05538  0.53670  0.06290  Biso   1.000  C
  C274     1.0000 0.31009  0.68674  0.07519  Biso   1.000  C
  C275     1.0000 0.23398  0.80460  0.05639  Biso   1.000  C
  H191     1.0000 0.04400  0.44191  0.02769  Biso   1.000  H
  H192     1.0000 0.13763  0.44411  0.04459  Biso   1.000  H
  C276     1.0000 0.56778  0.87839  0.09961  Biso   1.000  C
  C277     1.0000 0.56778  0.87839  0.09958  Biso   1.000  C
  H193     1.0000 0.73275  0.89241  0.10779  Biso   1.000  H
  H194     1.0000 0.03438  0.50000  0.08120  Biso   1.000  H
  H195     1.0000 0.00588  0.57069  0.05450  Biso   1.000  H
  H196     1.0000 0.03438  0.50000  0.08118  Biso   1.000  H
  O60      1.0000 0.32592  0.61450  0.08169  Biso   1.000  O
  C278     1.0000 0.36069  0.76370  0.07970  Biso   1.000  C
  O61      1.0000 0.17259  0.84111  0.04060  Biso   1.000  O
  C279     1.0000 0.31158  0.83613  0.06911  Biso   1.000  C
  C280     1.0000 0.31158  0.83613  0.06908  Biso   1.000  C
  C281     1.0000 0.48029  0.86334  0.09170  Biso   1.000  C
  O62      1.0000 0.58749  0.93474  0.12069  Biso   1.000  O
  C282     1.0000 0.44333  0.77643  0.09120  Biso   1.000  C
  C283     1.0000 0.44333  0.77643  0.09118  Biso   1.000  C
  C284     1.0000 0.34259  0.91910  0.06989  Biso   1.000  C
  C285     1.0000 0.42634  0.93215  0.08278  Biso   1.000  C
  H197     1.0000 0.47642  0.72874  0.09869  Biso   1.000  H
  H198     1.0000 0.30893  0.96614  0.06208  Biso   1.000  H
  H199     1.0000 0.44669  0.98960  0.08539  Biso   1.000  H
  O63      1.0000 0.06533  0.58749  0.37071  Biso   1.000  O
  C286     1.0000 0.12161  0.56778  0.34959  Biso   1.000  C
  C287     1.0000 0.13673  0.48029  0.34169  Biso   1.000  C
  C288     1.0000 0.16581  0.64403  0.33331  Biso   1.000  C
  C289     1.0000 0.22364  0.44333  0.34119  Biso   1.000  C
  C290     1.0000 0.06791  0.42634  0.33279  Biso   1.000  C
  C291     1.0000 0.22299  0.62432  0.30650  Biso   1.000  C
  C292     1.0000 0.14862  0.72312  0.34080  Biso   1.000  C
  C293     1.0000 0.23630  0.36069  0.32969  Biso   1.000  C
  H200     1.0000 0.27132  0.47642  0.34871  Biso   1.000  H
  C294     1.0000 0.08090  0.34259  0.31991  Biso   1.000  C
  H201     1.0000 0.01040  0.44669  0.33540  Biso   1.000  H
  C295     1.0000 0.26060  0.69605  0.29029  Biso   1.000  C
  H202     1.0000 0.23488  0.56649  0.30010  Biso   1.000  H
  H203     1.0000 0.10759  0.73275  0.35780  Biso   1.000  H
  C296     1.0000 0.18500  0.79523  0.32609  Biso   1.000  C
  C297     1.0000 0.31332  0.31009  0.32520  Biso   1.000  C
  C298     1.0000 0.16393  0.31158  0.31909  Biso   1.000  C
  H204     1.0000 0.03392  0.30893  0.31210  Biso   1.000  H
  C299     1.0000 0.32069  0.69495  0.26359  Biso   1.000  C
  C300     1.0000 0.24199  0.78005  0.29951  Biso   1.000  C
  H205     1.0000 0.17233  0.85203  0.33360  Biso   1.000  H
  N25      1.0000 0.28580  0.22894  0.31020  Biso   1.000  N
  O64      1.0000 0.38550  0.32592  0.33171  Biso   1.000  O
  C301     1.0000 0.19540  0.23398  0.30641  Biso   1.000  C
  O65      1.0000 0.34938  0.63414  0.24762  Biso   1.000  O
  N26      1.0000 0.34124  0.78043  0.25659  Biso   1.000  N
  C302     1.0000 0.29110  0.83671  0.27719  Biso   1.000  C
  C303     1.0000 0.34550  0.15650  0.29879  Biso   1.000  C
  O66      1.0000 0.15889  0.17259  0.29059  Biso   1.000  O
  C304     1.0000 0.39461  0.80964  0.22991  Biso   1.000  C
  O67      1.0000 0.28961  0.91425  0.27630  Biso   1.000  O
  C305     1.0000 0.39461  0.19042  0.27009  Biso   1.000  C
  H206     1.0000 0.30893  0.10733  0.29101  Biso   1.000  H
  C306     1.0000 0.40211  0.12477  0.32570  Biso   1.000  C
  C307     1.0000 0.34550  0.84350  0.20121  Biso   1.000  C
  H207     1.0000 0.42724  0.75801  0.22190  Biso   1.000  H
  C308     1.0000 0.46369  0.87561  0.24270  Biso   1.000  C
  N27      1.0000 0.34124  0.21963  0.24341  Biso   1.000  N
  H208     1.0000 0.42724  0.24199  0.27810  Biso   1.000  H
  C309     1.0000 0.46369  0.12439  0.25730  Biso   1.000  C
  H209     1.0000 0.36612  0.10067  0.34361  Biso   1.000  H
  H210     1.0000 0.43603  0.17349  0.33479  Biso   1.000  H
  C310     1.0000 0.46330  0.05538  0.31288  Biso   1.000  C
  N28      1.0000 0.28580  0.77113  0.18980  Biso   1.000  N
  H211     1.0000 0.30893  0.89274  0.20899  Biso   1.000  H
  C311     1.0000 0.40211  0.87523  0.17430  Biso   1.000  C
  C312     1.0000 0.51938  0.90980  0.21409  Biso   1.000  C
  H212     1.0000 0.43422  0.92459  0.25371  Biso   1.000  H
  H213     1.0000 0.50123  0.84712  0.25920  Biso   1.000  H
  C313     1.0000 0.32069  0.30512  0.23639  Biso   1.000  C
  C314     1.0000 0.29110  0.16329  0.22279  Biso   1.000  C
  C315     1.0000 0.51938  0.09020  0.28591  Biso   1.000  C
  H214     1.0000 0.43422  0.07541  0.24629  Biso   1.000  H
  H215     1.0000 0.50123  0.15288  0.24080  Biso   1.000  H
  H216     1.0000 0.50000  0.03438  0.33119  Biso   1.000  H
  H217     1.0000 0.42931  0.00588  0.30451  Biso   1.000  H
  C316     1.0000 0.31332  0.68991  0.17480  Biso   1.000  C
  C317     1.0000 0.19540  0.76602  0.19359  Biso   1.000  C
  H218     1.0000 0.36612  0.89933  0.15639  Biso   1.000  H
  H219     1.0000 0.43603  0.82651  0.16519  Biso   1.000  H
  C318     1.0000 0.46330  0.94462  0.18709  Biso   1.000  C
  H220     1.0000 0.55809  0.95600  0.22230  Biso   1.000  H
  H221     1.0000 0.55589  0.86243  0.20540  Biso   1.000  H
  O68      1.0000 0.34938  0.36592  0.25238  Biso   1.000  O
  C319     1.0000 0.26060  0.30402  0.20971  Biso   1.000  C
  O69      1.0000 0.28961  0.08581  0.22370  Biso   1.000  O
  C320     1.0000 0.24199  0.22002  0.20049  Biso   1.000  C
  H222     1.0000 0.55809  0.04400  0.27770  Biso   1.000  H
  H223     1.0000 0.55589  0.13763  0.29460  Biso   1.000  H
  C321     1.0000 0.23630  0.63931  0.17029  Biso   1.000  C
  O70      1.0000 0.38550  0.67414  0.16829  Biso   1.000  O
  C322     1.0000 0.16393  0.68842  0.18091  Biso   1.000  C
  O71      1.0000 0.15889  0.82741  0.20939  Biso   1.000  O
  H224     1.0000 0.50000  0.96562  0.16881  Biso   1.000  H
  H225     1.0000 0.42931  0.99412  0.19549  Biso   1.000  H
  C323     1.0000 0.22299  0.37568  0.19350  Biso   1.000  C
  C324     1.0000 0.18500  0.20483  0.17391  Biso   1.000  C
  C325     1.0000 0.22364  0.55673  0.15881  Biso   1.000  C
  C326     1.0000 0.08090  0.65741  0.18009  Biso   1.000  C
  H226     1.0000 0.23488  0.43351  0.19990  Biso   1.000  H
  C327     1.0000 0.16581  0.35604  0.16669  Biso   1.000  C
  C328     1.0000 0.14862  0.27688  0.15920  Biso   1.000  C
  H227     1.0000 0.17233  0.14804  0.16640  Biso   1.000  H
  C329     1.0000 0.13673  0.51971  0.15829  Biso   1.000  C
  H228     1.0000 0.27132  0.52358  0.15129  Biso   1.000  H
  C330     1.0000 0.06791  0.57373  0.16721  Biso   1.000  C
  H229     1.0000 0.03392  0.69113  0.18790  Biso   1.000  H
  C331     1.0000 0.12161  0.43222  0.15041  Biso   1.000  C
  H230     1.0000 0.10759  0.26732  0.14220  Biso   1.000  H
  H231     1.0000 0.01040  0.55331  0.16460  Biso   1.000  H
  O72      1.0000 0.06533  0.41251  0.12929  Biso   1.000  O
  O73      1.0000 0.57883  0.70839  0.23360  Biso   1.000  O
  C332     1.0000 0.62710  0.64991  0.22481  Biso   1.000  C
  C333     1.0000 0.59479  0.56164  0.21330  Biso   1.000  C
  N29      1.0000 0.71433  0.64875  0.21981  Biso   1.000  N
  C334     1.0000 0.66529  0.51383  0.20471  Biso   1.000  C
  C335     1.0000 0.51331  0.53192  0.21239  Biso   1.000  C
  C336     1.0000 0.73973  0.56720  0.20889  Biso   1.000  C
  C337     1.0000 0.76622  0.72952  0.22109  Biso   1.000  C
  C338     1.0000 0.65631  0.42931  0.19460  Biso   1.000  C
  C339     1.0000 0.50633  0.44353  0.20069  Biso   1.000  C
  H232     1.0000 0.46478  0.56559  0.21880  Biso   1.000  H
  O74      1.0000 0.81591  0.55589  0.20249  Biso   1.000  O
  C340     1.0000 0.73850  0.78664  0.19101  Biso   1.000  C
  C341     1.0000 0.75601  0.78102  0.25110  Biso   1.000  C
  H233     1.0000 0.82870  0.71420  0.21860  Biso   1.000  H
  C342     1.0000 0.57431  0.39623  0.19150  Biso   1.000  C
  H234     1.0000 0.70554  0.39480  0.19000  Biso   1.000  H
  H235     1.0000 0.45050  0.41800  0.19951  Biso   1.000  H
  N30      1.0000 0.75181  0.73650  0.16019  Biso   1.000  N
  H236     1.0000 0.67640  0.80331  0.19320  Biso   1.000  H
  C343     1.0000 0.79782  0.87135  0.18950  Biso   1.000  C
  C344     1.0000 0.81830  0.85681  0.25009  Biso   1.000  C
  H237     1.0000 0.76790  0.74490  0.27061  Biso   1.000  H
  H238     1.0000 0.69592  0.80253  0.25260  Biso   1.000  H
  C345     1.0000 0.57224  0.30292  0.17980  Biso   1.000  C
  C346     1.0000 0.82683  0.69792  0.14730  Biso   1.000  C
  C347     1.0000 0.67724  0.68920  0.14619  Biso   1.000  C
  H239     1.0000 0.78134  0.90812  0.17061  Biso   1.000  H
  H240     1.0000 0.85952  0.85545  0.18729  Biso   1.000  H
  C348     1.0000 0.78095  0.92085  0.22370  Biso   1.000  C
  H241     1.0000 0.87684  0.83723  0.24371  Biso   1.000  H
  H242     1.0000 0.82172  0.88511  0.27189  Biso   1.000  H
  C349     1.0000 0.49050  0.27442  0.16290  Biso   1.000  C
  O75      1.0000 0.63195  0.25452  0.18581  Biso   1.000  O
  O76      1.0000 0.90165  0.72280  0.15610  Biso   1.000  O
  C350     1.0000 0.80492  0.63330  0.12459  Biso   1.000  C
  O77      1.0000 0.60423  0.70451  0.15250  Biso   1.000  O
  C351     1.0000 0.71414  0.62200  0.12370  Biso   1.000  C
  H243     1.0000 0.81164  0.97693  0.22419  Biso   1.000  H
  H244     1.0000 0.71840  0.93093  0.22720  Biso   1.000  H
  C352     1.0000 0.48249  0.17731  0.16371  Biso   1.000  C
  C353     1.0000 0.43991  0.32269  0.14420  Biso   1.000  C
  C354     1.0000 0.85765  0.58271  0.10461  Biso   1.000  C
  C355     1.0000 0.67731  0.56009  0.10579  Biso   1.000  C
  C356     1.0000 0.41729  0.14241  0.14541  Biso   1.000  C
  H245     1.0000 0.52074  0.14228  0.17630  Biso   1.000  H
  H246     1.0000 0.44779  0.38363  0.14351  Biso   1.000  H
  C357     1.0000 0.37800  0.28593  0.12629  Biso   1.000  C
  H247     1.0000 0.91794  0.59350  0.10370  Biso   1.000  H
  C358     1.0000 0.82269  0.51751  0.08630  Biso   1.000  C
  C359     1.0000 0.72564  0.50950  0.08709  Biso   1.000  C
  H248     1.0000 0.61644  0.55221  0.10650  Biso   1.000  H
  C360     1.0000 0.36670  0.19508  0.12540  Biso   1.000  C
  H249     1.0000 0.40650  0.08213  0.14629  Biso   1.000  H
  C361     1.0000 0.31080  0.32282  0.10379  Biso   1.000  C
  H250     1.0000 0.85772  0.47932  0.07369  Biso   1.000  H
  C362     1.0000 0.69714  0.42782  0.07019  Biso   1.000  C
  C363     1.0000 0.30208  0.17324  0.10271  Biso   1.000  C
  O78      1.0000 0.29549  0.39584  0.09749  Biso   1.000  O
  N31      1.0000 0.26350  0.24819  0.08980  Biso   1.000  N
  C364     1.0000 0.60384  0.42569  0.05849  Biso   1.000  C
  O79      1.0000 0.74554  0.36812  0.06420  Biso   1.000  O
  O80      1.0000 0.27720  0.09841  0.09389  Biso   1.000  O
  C365     1.0000 0.21343  0.26150  0.05900  Biso   1.000  C
  C366     1.0000 0.57069  0.34369  0.05541  Biso   1.000  C
  C367     1.0000 0.55654  0.49373  0.04930  Biso   1.000  C
  H251     1.0000 0.19669  0.32360  0.05679  Biso   1.000  H
  C368     1.0000 0.12872  0.20218  0.06051  Biso   1.000  C
  C369     1.0000 0.27048  0.23378  0.02890  Biso   1.000  C
  C370     1.0000 0.48624  0.33471  0.04531  Biso   1.000  C
  H252     1.0000 0.60520  0.29452  0.05999  Biso   1.000  H
  C371     1.0000 0.46814  0.48669  0.03760  Biso   1.000  C
  H253     1.0000 0.58200  0.54950  0.05051  Biso   1.000  H
  H254     1.0000 0.09188  0.21873  0.07940  Biso   1.000  H
  H255     1.0000 0.14461  0.14048  0.06270  Biso   1.000  H
  C372     1.0000 0.07922  0.21911  0.02631  Biso   1.000  C
  H256     1.0000 0.28580  0.17130  0.03141  Biso   1.000  H
  N32      1.0000 0.35132  0.28573  0.03020  Biso   1.000  N
  C373     1.0000 0.21898  0.24399  0.99889  Biso   1.000  C
  C374     1.0000 0.43280  0.26034  0.04109  Biso   1.000  C
  C375     1.0000 0.43842  0.40521  0.03671  Biso   1.000  C
  H257     1.0000 0.43441  0.53522  0.03119  Biso   1.000  H
  H258     1.0000 0.02313  0.18842  0.02579  Biso   1.000  H
  H259     1.0000 0.06907  0.28160  0.02279  Biso   1.000  H
  C376     1.0000 0.14319  0.18170  0.99990  Biso   1.000  C
  C377     1.0000 0.35009  0.37290  0.02520  Biso   1.000  C
  H260     1.0000 0.25510  0.23210  0.97940  Biso   1.000  H
  H261     1.0000 0.19753  0.30408  0.99739  Biso   1.000  H
  O81      1.0000 0.44411  0.18409  0.04750  Biso   1.000  O
  H262     1.0000 0.16283  0.12322  0.00631  Biso   1.000  H
  H263     1.0000 0.11489  0.17828  0.97810  Biso   1.000  H
  O82      1.0000 0.29161  0.42123  0.01641  Biso   1.000  O
  Ne1      1.0000 0.26424  0.50001  0.25000  Biso   1.000  Ne
  He1      1.0000 0.28865  0.50186  0.26497  Biso   1.000  He
  He2      1.0000 0.19126  0.54145  0.23985  Biso   1.000  He
  Ar1      1.0000 0.20349  0.49699  0.25058  Biso   1.000  Ar
  Ne2      1.0000 0.54451  0.54451  0.37500  Biso   1.000  Ne
  He3      1.0000 0.00000  0.00000  0.00000  Biso   1.000  He
  He4      1.0000 0.57699  0.57845  0.37504  Biso   1.000  He
  Ar2      1.0000 0.49866  0.48501  0.36595  Biso   1.000  Ar
  Ne3      1.0000 0.54451  0.45551  0.12500  Biso   1.000  Ne
  He5      1.0000 0.51297  0.46836  0.11262  Biso   1.000  He
  He6      1.0000 0.69852  0.35332  0.13357  Biso   1.000  He
  Ar3      1.0000 0.57503  0.42497  0.12499  Biso   1.000  Ar
  Ne4      1.0000 0.50001  0.26424  0.50000  Biso   1.000  Ne
  He7      1.0000 0.49834  0.28521  0.51391  Biso   1.000  He
  He8      1.0000 0.45204  0.16868  0.48734  Biso   1.000  He
  Ar4      1.0000 0.48318  0.20349  0.49671  Biso   1.000  Ar
  Ne5      1.0000 0.45551  0.54451  0.62499  Biso   1.000  Ne
  He9      1.0000 0.49286  0.52571  0.61272  Biso   1.000  He
  He10     1.0000 0.38231  0.65734  0.61844  Biso   1.000  He
  Ar5      1.0000 0.45551  0.54451  0.62499  Biso   1.000  Ar
  Ne6      1.0000 0.73578  0.50001  0.74999  Biso   1.000  Ne
  He11     1.0000 0.70572  0.50207  0.73327  Biso   1.000  He
  He12     1.0000 0.81745  0.44812  0.73617  Biso   1.000  He
  Ar6      1.0000 0.79653  0.49678  0.74938  Biso   1.000  Ar
  Ne7      1.0000 0.45551  0.45551  0.87499  Biso   1.000  Ne
  He13     1.0000 0.48826  0.46957  0.88737  Biso   1.000  He
  He14     1.0000 0.33552  0.37723  0.86808  Biso   1.000  He
  Ar7      1.0000 0.42531  0.42528  0.87502  Biso   1.000  Ar
  Ne8      1.0000 0.51247  0.74386  0.00080  Biso   1.000  Ne
  He15     1.0000 0.49827  0.71314  0.98555  Biso   1.000  He
  He16     1.0000 0.44864  0.81965  0.01318  Biso   1.000  He
  Ar8      1.0000 0.46826  0.79916  0.00726  Biso   1.000  Ar
