data_image0
_cell_length_a       13.995
_cell_length_b       13.995
_cell_length_c       104.431
_cell_angle_alpha    90
_cell_angle_beta     90
_cell_angle_gamma    90

_symmetry_space_group_name_H-M    "P 1"
_symmetry_int_tables_number       1

loop_
  _symmetry_equiv_pos_as_xyz
  'x, y, z'

loop_
  _atom_site_label
  _atom_site_occupancy
  _atom_site_fract_x
  _atom_site_fract_y
  _atom_site_fract_z
  _atom_site_thermal_displace_type
  _atom_site_B_iso_or_equiv
  _atom_site_type_symbol
  C1       1.0000 0.38392  0.62022  0.27421  Biso   1.000  C
  C2       1.0000 0.33283  0.56599  0.26553  Biso   1.000  C
  H1       1.0000 0.37370  0.61143  0.28310  Biso   1.000  H
  C3       1.0000 0.45059  0.68782  0.27004  Biso   1.000  C
  B1       1.0000 0.25338  0.49989  0.27109  Biso   1.000  B
  C4       1.0000 0.35020  0.58228  0.25203  Biso   1.000  C
  C5       1.0000 0.47053  0.70332  0.25738  Biso   1.000  C
  O1       1.0000 0.49682  0.73741  0.27970  Biso   1.000  O
  O2       1.0000 0.19607  0.44144  0.26409  Biso   1.000  O
  O3       1.0000 0.23058  0.50304  0.28395  Biso   1.000  O
  C6       1.0000 0.29668  0.52955  0.24262  Biso   1.000  C
  C7       1.0000 0.41772  0.64980  0.24797  Biso   1.000  C
  H2       1.0000 0.51790  0.74812  0.25490  Biso   1.000  H
  C8       1.0000 0.56542  0.80700  0.27658  Biso   1.000  C
  C9       1.0000 0.12833  0.39500  0.27244  Biso   1.000  C
  C10      1.0000 0.14034  0.45338  0.28522  Biso   1.000  C
  C11      1.0000 0.31218  0.54941  0.22996  Biso   1.000  C
  H3       1.0000 0.25188  0.48210  0.24510  Biso   1.000  H
  C12      1.0000 0.43401  0.66724  0.23447  Biso   1.000  C
  C13      1.0000 0.60100  0.83994  0.28855  Biso   1.000  C
  H4       1.0000 0.53591  0.86009  0.27170  Biso   1.000  H
  H5       1.0000 0.61743  0.77899  0.27140  Biso   1.000  H
  H6       1.0000 0.14369  0.32583  0.27370  Biso   1.000  H
  C14      1.0000 0.02408  0.41000  0.26807  Biso   1.000  C
  H7       1.0000 0.13962  0.41072  0.29290  Biso   1.000  H
  C15      1.0000 0.05824  0.52069  0.28522  Biso   1.000  C
  O4       1.0000 0.26259  0.50318  0.22030  Biso   1.000  O
  C16      1.0000 0.37978  0.61615  0.22579  Biso   1.000  C
  B2       1.0000 0.50011  0.74662  0.22891  Biso   1.000  B
  C17      1.0000 0.63223  0.92169  0.29467  Biso   1.000  C
  O5       1.0000 0.62472  0.76234  0.29739  Biso   1.000  O
  C18      1.0000 0.01443  0.41701  0.25337  Biso   1.000  C
  C19      1.0000 0.99457  0.50054  0.27517  Biso   1.000  C
  C20      1.0000 0.96470  0.32447  0.27262  Biso   1.000  C
  C21      1.0000 0.04737  0.59979  0.29293  Biso   1.000  C
  C22      1.0000 0.19300  0.43458  0.22342  Biso   1.000  C
  H8       1.0000 0.38864  0.62630  0.21690  Biso   1.000  H
  O6       1.0000 0.49696  0.76949  0.21605  Biso   1.000  O
  O7       1.0000 0.55856  0.80393  0.23591  Biso   1.000  O
  C23      1.0000 0.66509  0.90025  0.30650  Biso   1.000  C
  H9       1.0000 0.63080  0.98414  0.29110  Biso   1.000  H
  N1       1.0000 0.66331  0.80229  0.30880  Biso   1.000  N
  H10      1.0000 0.03558  0.35698  0.24950  Biso   1.000  H
  H11      1.0000 0.05402  0.46974  0.25020  Biso   1.000  H
  H12      1.0000 0.94748  0.42880  0.25110  Biso   1.000  H
  C24      1.0000 0.91668  0.55899  0.27288  Biso   1.000  C
  H13      1.0000 0.97328  0.31611  0.28190  Biso   1.000  H
  H14      1.0000 0.98578  0.26674  0.26810  Biso   1.000  H
  H15      1.0000 0.89711  0.33619  0.27080  Biso   1.000  H
  H16      1.0000 0.09182  0.61343  0.29960  Biso   1.000  H
  C25      1.0000 0.96892  0.65988  0.29069  Biso   1.000  C
  C26      1.0000 0.16013  0.39900  0.21145  Biso   1.000  C
  H17      1.0000 0.13991  0.46409  0.22830  Biso   1.000  H
  H18      1.0000 0.22101  0.38264  0.22860  Biso   1.000  H
  C27      1.0000 0.54662  0.85974  0.21478  Biso   1.000  C
  C28      1.0000 0.60500  0.87174  0.22756  Biso   1.000  C
  C29      1.0000 0.70661  0.95941  0.31665  Biso   1.000  C
  H19      1.0000 0.87253  0.54512  0.26620  Biso   1.000  H
  C30      1.0000 0.90518  0.63944  0.28071  Biso   1.000  C
  C31      1.0000 0.94248  0.74941  0.29783  Biso   1.000  C
  C32      1.0000 0.07831  0.36777  0.20533  Biso   1.000  C
  O8       1.0000 0.23773  0.37528  0.20261  Biso   1.000  O
  H20      1.0000 0.58928  0.86045  0.20710  Biso   1.000  H
  C33      1.0000 0.47931  0.94184  0.21478  Biso   1.000  C
  H21      1.0000 0.67424  0.85631  0.22630  Biso   1.000  H
  C34      1.0000 0.59000  0.97592  0.23193  Biso   1.000  C
  C35      1.0000 0.68632  0.93969  0.32919  Biso   1.000  C
  C36      1.0000 0.77092  0.03816  0.31348  Biso   1.000  C
  C37      1.0000 0.83123  0.71668  0.27949  Biso   1.000  C
  C38      1.0000 0.02701  0.81665  0.30073  Biso   1.000  C
  C39      1.0000 0.86817  0.79643  0.28885  Biso   1.000  C
  C40      1.0000 0.89082  0.72262  0.31042  Biso   1.000  C
  C41      1.0000 0.09982  0.33491  0.19350  Biso   1.000  C
  H22      1.0000 0.01593  0.36920  0.20890  Biso   1.000  H
  N2       1.0000 0.19771  0.33669  0.19120  Biso   1.000  N
  C42      1.0000 0.40021  0.95263  0.20707  Biso   1.000  C
  C43      1.0000 0.49954  0.00543  0.22483  Biso   1.000  C
  C44      1.0000 0.58299  0.98564  0.24663  Biso   1.000  C
  C45      1.0000 0.67553  0.03530  0.22738  Biso   1.000  C
  H23      1.0000 0.64630  0.88703  0.33120  Biso   1.000  H
  C46      1.0000 0.72333  0.99586  0.33891  Biso   1.000  C
  C47      1.0000 0.81022  0.09239  0.32312  Biso   1.000  C
  H24      1.0000 0.78542  0.05195  0.30480  Biso   1.000  H
  H25      1.0000 0.76599  0.69353  0.28190  Biso   1.000  H
  O9       1.0000 0.83230  0.76027  0.26674  Biso   1.000  O
  H26      1.0000 0.07360  0.78335  0.30610  Biso   1.000  H
  H27      1.0000 0.00372  0.87353  0.30520  Biso   1.000  H
  H28      1.0000 0.05759  0.83573  0.29270  Biso   1.000  H
  H29      1.0000 0.81451  0.82579  0.29380  Biso   1.000  H
  O10      1.0000 0.91033  0.86402  0.27999  Biso   1.000  O
  H30      1.0000 0.83137  0.68853  0.30840  Biso   1.000  H
  H31      1.0000 0.87581  0.78092  0.31520  Biso   1.000  H
  H32      1.0000 0.93233  0.68153  0.31560  Biso   1.000  H
  C48      1.0000 0.04059  0.29339  0.18335  Biso   1.000  C
  H33      1.0000 0.38664  0.90825  0.20040  Biso   1.000  H
  C49      1.0000 0.34012  0.03115  0.20931  Biso   1.000  C
  C50      1.0000 0.44101  0.08332  0.22712  Biso   1.000  C
  H34      1.0000 0.64302  0.96442  0.25050  Biso   1.000  H
  H35      1.0000 0.53033  0.94605  0.24980  Biso   1.000  H
  H36      1.0000 0.57120  0.05252  0.24890  Biso   1.000  H
  H37      1.0000 0.68389  0.02672  0.21810  Biso   1.000  H
  H38      1.0000 0.73333  0.01422  0.23190  Biso   1.000  H
  H39      1.0000 0.66381  0.10289  0.22920  Biso   1.000  H
  B3       1.0000 0.68789  0.98014  0.35285  Biso   1.000  B
  C51      1.0000 0.78564  0.07181  0.33547  Biso   1.000  C
  B4       1.0000 0.87410  0.18164  0.31987  Biso   1.000  B
  B5       1.0000 0.88803  0.84130  0.26747  Biso   1.000  B
  C52      1.0000 0.06031  0.31368  0.17081  Biso   1.000  C
  C53      1.0000 0.96191  0.22908  0.18652  Biso   1.000  C
  C54      1.0000 0.36063  0.09482  0.21929  Biso   1.000  C
  C55      1.0000 0.25059  0.05752  0.20217  Biso   1.000  C
  H40      1.0000 0.45488  0.12755  0.23380  Biso   1.000  H
  O11      1.0000 0.61979  0.90875  0.35573  Biso   1.000  O
  O12      1.0000 0.72454  0.02301  0.36342  Biso   1.000  O
  H41      1.0000 0.81143  0.11040  0.34210  Biso   1.000  H
  O13      1.0000 0.89689  0.21072  0.30805  Biso   1.000  O
  O14      1.0000 0.90432  0.24230  0.32939  Biso   1.000  O
  C56      1.0000 0.92069  0.89582  0.25559  Biso   1.000  C
  H42      1.0000 0.11297  0.35370  0.16880  Biso   1.000  H
  C57      1.0000 0.00422  0.27667  0.16109  Biso   1.000  C
  C58      1.0000 0.90761  0.18978  0.17688  Biso   1.000  C
  H43      1.0000 0.94812  0.21458  0.19520  Biso   1.000  H
  C59      1.0000 0.28332  0.16885  0.22051  Biso   1.000  C
  C60      1.0000 0.18342  0.97299  0.19927  Biso   1.000  C
  C61      1.0000 0.20357  0.13183  0.21115  Biso   1.000  C
  C62      1.0000 0.27738  0.10925  0.18958  Biso   1.000  C
  C63      1.0000 0.60229  0.90940  0.36913  Biso   1.000  C
  C64      1.0000 0.65709  0.99850  0.37423  Biso   1.000  C
  C65      1.0000 0.93083  0.30725  0.30950  Biso   1.000  C
  C66      1.0000 0.95963  0.31961  0.32383  Biso   1.000  C
  C67      1.0000 0.88567  0.86652  0.24389  Biso   1.000  C
  C68      1.0000 0.99121  0.97085  0.25596  Biso   1.000  C
  B6       1.0000 0.01994  0.31211  0.14715  Biso   1.000  B
  C69      1.0000 0.92819  0.21443  0.16453  Biso   1.000  C
  B7       1.0000 0.81836  0.12590  0.18013  Biso   1.000  B
  O15      1.0000 0.23973  0.16777  0.23326  Biso   1.000  O
  H44      1.0000 0.30654  0.23401  0.21810  Biso   1.000  H
  H45      1.0000 0.21672  0.92640  0.19390  Biso   1.000  H
  H46      1.0000 0.12647  0.99636  0.19480  Biso   1.000  H
  H47      1.0000 0.16427  0.94241  0.20730  Biso   1.000  H
  O16      1.0000 0.13605  0.08967  0.22001  Biso   1.000  O
  H48      1.0000 0.17421  0.18549  0.20620  Biso   1.000  H
  H49      1.0000 0.31154  0.16863  0.19160  Biso   1.000  H
  H50      1.0000 0.21908  0.12426  0.18480  Biso   1.000  H
  H51      1.0000 0.31854  0.06774  0.18440  Biso   1.000  H
  H52      1.0000 0.62522  0.84930  0.37330  Biso   1.000  H
  C70      1.0000 0.50711  0.93319  0.37315  Biso   1.000  C
  H53      1.0000 0.69203  0.98471  0.38240  Biso   1.000  H
  C71      1.0000 0.58650  0.07360  0.37580  Biso   1.000  C
  H54      1.0000 0.98542  0.32126  0.30360  Biso   1.000  H
  C72      1.0000 0.84959  0.37956  0.30791  Biso   1.000  C
  C73      1.0000 0.92283  0.41836  0.32830  Biso   1.000  C
  H55      1.0000 0.02994  0.31161  0.32520  Biso   1.000  H
  C74      1.0000 0.91811  0.90754  0.23234  Biso   1.000  C
  H56      1.0000 0.83880  0.81751  0.24360  Biso   1.000  H
  C75      1.0000 0.02922  0.00879  0.24404  Biso   1.000  C
  C76      1.0000 0.02401  0.00950  0.26770  Biso   1.000  C
  O17      1.0000 0.09132  0.38021  0.14427  Biso   1.000  O
  O18      1.0000 0.97699  0.27553  0.13658  Biso   1.000  O
  H57      1.0000 0.88960  0.18864  0.15790  Biso   1.000  H
  O19      1.0000 0.78928  0.10311  0.19195  Biso   1.000  O
  O20      1.0000 0.75770  0.09568  0.17061  Biso   1.000  O
  B8       1.0000 0.15870  0.11204  0.23253  Biso   1.000  B
  C77      1.0000 0.43144  0.88960  0.36264  Biso   1.000  C
  C78      1.0000 0.48224  0.88303  0.38650  Biso   1.000  C
  C79      1.0000 0.49418  0.03616  0.37432  Biso   1.000  C
  C80      1.0000 0.60200  0.17042  0.37847  Biso   1.000  C
  C81      1.0000 0.84252  0.43523  0.31855  Biso   1.000  C
  C82      1.0000 0.78549  0.38414  0.29814  Biso   1.000  C
  C83      1.0000 0.89189  0.41693  0.34189  Biso   1.000  C
  C84      1.0000 0.00114  0.48946  0.32643  Biso   1.000  C
  C85      1.0000 0.99050  0.97599  0.23230  Biso   1.000  C
  O21      1.0000 0.87588  0.87446  0.22121  Biso   1.000  O
  C86      1.0000 0.10418  0.07931  0.24441  Biso   1.000  C
  H58      1.0000 0.99929  0.98621  0.27560  Biso   1.000  H
  C87      1.0000 0.09253  0.08196  0.26766  Biso   1.000  C
  C88      1.0000 0.09060  0.39771  0.13087  Biso   1.000  C
  C89      1.0000 0.00150  0.34291  0.12577  Biso   1.000  C
  C90      1.0000 0.69282  0.06917  0.19050  Biso   1.000  C
  C91      1.0000 0.68039  0.04037  0.17617  Biso   1.000  C
  H59      1.0000 0.41822  0.93769  0.35610  Biso   1.000  H
  H60      1.0000 0.37170  0.87231  0.36700  Biso   1.000  H
  H61      1.0000 0.45902  0.83258  0.35860  Biso   1.000  H
  H62      1.0000 0.52390  0.82751  0.38770  Biso   1.000  H
  H63      1.0000 0.41543  0.86224  0.38640  Biso   1.000  H
  H64      1.0000 0.49210  0.92862  0.39350  Biso   1.000  H
  C92      1.0000 0.41608  0.10011  0.37454  Biso   1.000  C
  C93      1.0000 0.52340  0.22965  0.37870  Biso   1.000  C
  H65      1.0000 0.66438  0.19443  0.38010  Biso   1.000  H
  C94      1.0000 0.76442  0.49975  0.32003  Biso   1.000  C
  C95      1.0000 0.70840  0.44494  0.29931  Biso   1.000  C
  H66      1.0000 0.79371  0.34634  0.29070  Biso   1.000  H
  H67      1.0000 0.86559  0.47953  0.34420  Biso   1.000  H
  H68      1.0000 0.94691  0.40264  0.34740  Biso   1.000  H
  H69      1.0000 0.84294  0.36770  0.34310  Biso   1.000  H
  H70      1.0000 0.98164  0.55113  0.33000  Biso   1.000  H
  H71      1.0000 0.01415  0.49675  0.31730  Biso   1.000  H
  H72      1.0000 0.05902  0.46717  0.33080  Biso   1.000  H
  H73      1.0000 0.01379  0.00071  0.22440  Biso   1.000  H
  C96      1.0000 0.90968  0.91390  0.20975  Biso   1.000  C
  C97      1.0000 0.13348  0.11433  0.25611  Biso   1.000  C
  O22      1.0000 0.12554  0.12419  0.27879  Biso   1.000  O
  H74      1.0000 0.15070  0.37478  0.12670  Biso   1.000  H
  C98      1.0000 0.06681  0.49289  0.12685  Biso   1.000  C
  H75      1.0000 0.01529  0.30804  0.11760  Biso   1.000  H
  C99      1.0000 0.92640  0.41350  0.12420  Biso   1.000  C
  H76      1.0000 0.67881  0.01458  0.19640  Biso   1.000  H
  C100     1.0000 0.62051  0.15041  0.19209  Biso   1.000  C
  H77      1.0000 0.68839  0.97013  0.17480  Biso   1.000  H
  C101     1.0000 0.58171  0.07717  0.17170  Biso   1.000  C
  H78      1.0000 0.35298  0.07703  0.37320  Biso   1.000  H
  C102     1.0000 0.43108  0.19321  0.37667  Biso   1.000  C
  C103     1.0000 0.52433  0.33162  0.38107  Biso   1.000  C
  H79      1.0000 0.75849  0.53976  0.32730  Biso   1.000  H
  C104     1.0000 0.69832  0.50104  0.31035  Biso   1.000  C
  C105     1.0000 0.62101  0.45702  0.29021  Biso   1.000  C
  C106     1.0000 0.85752  0.86810  0.19888  Biso   1.000  C
  H80      1.0000 0.97921  0.90232  0.20890  Biso   1.000  H
  H81      1.0000 0.89868  0.98385  0.20970  Biso   1.000  H
  H82      1.0000 0.18249  0.16120  0.25640  Biso   1.000  H
  C107     1.0000 0.08610  0.09032  0.29025  Biso   1.000  C
  C108     1.0000 0.11040  0.56863  0.13736  Biso   1.000  C
  C109     1.0000 0.11697  0.51783  0.11350  Biso   1.000  C
  C110     1.0000 0.96392  0.50582  0.12568  Biso   1.000  C
  C111     1.0000 0.82958  0.39800  0.12153  Biso   1.000  C
  C112     1.0000 0.56477  0.15748  0.18145  Biso   1.000  C
  C113     1.0000 0.61586  0.21451  0.20186  Biso   1.000  C
  C114     1.0000 0.51061  0.99893  0.17357  Biso   1.000  C
  C115     1.0000 0.58307  0.10811  0.15811  Biso   1.000  C
  C116     1.0000 0.36034  0.27345  0.37594  Biso   1.000  C
  C117     1.0000 0.42322  0.36041  0.37699  Biso   1.000  C
  C118     1.0000 0.60522  0.39135  0.37468  Biso   1.000  C
  C119     1.0000 0.53112  0.35184  0.39602  Biso   1.000  C
  C120     1.0000 0.60372  0.55634  0.31033  Biso   1.000  C
  C121     1.0000 0.55899  0.52905  0.29739  Biso   1.000  C
  C122     1.0000 0.57349  0.36191  0.28766  Biso   1.000  C
  C123     1.0000 0.65623  0.49825  0.27734  Biso   1.000  C
  C124     1.0000 0.78850  0.80079  0.19805  Biso   1.000  C
  O23      1.0000 0.88460  0.89789  0.18729  Biso   1.000  O
  C125     1.0000 0.13190  0.14255  0.30112  Biso   1.000  C
  H83      1.0000 0.09768  0.02079  0.29110  Biso   1.000  H
  H84      1.0000 0.01622  0.10132  0.29030  Biso   1.000  H
  H85      1.0000 0.06231  0.58178  0.14390  Biso   1.000  H
  H86      1.0000 0.12769  0.62830  0.13300  Biso   1.000  H
  H87      1.0000 0.16742  0.54098  0.14140  Biso   1.000  H
  H88      1.0000 0.17249  0.47610  0.11230  Biso   1.000  H
  H89      1.0000 0.13783  0.58464  0.11360  Biso   1.000  H
  H90      1.0000 0.07138  0.50790  0.10650  Biso   1.000  H
  C126     1.0000 0.89989  0.58392  0.12546  Biso   1.000  C
  C127     1.0000 0.77042  0.47660  0.12130  Biso   1.000  C
  H91      1.0000 0.80557  0.33562  0.11990  Biso   1.000  H
  C128     1.0000 0.50032  0.23558  0.17997  Biso   1.000  C
  C129     1.0000 0.55506  0.29160  0.20069  Biso   1.000  C
  H92      1.0000 0.65366  0.20629  0.20930  Biso   1.000  H
  H93      1.0000 0.50332  0.98592  0.18270  Biso   1.000  H
  H94      1.0000 0.53290  0.94098  0.16920  Biso   1.000  H
  H95      1.0000 0.44887  0.01844  0.17000  Biso   1.000  H
  H96      1.0000 0.52047  0.13441  0.15580  Biso   1.000  H
  H97      1.0000 0.59736  0.05309  0.15260  Biso   1.000  H
  H98      1.0000 0.63230  0.15713  0.15690  Biso   1.000  H
  H99      1.0000 0.31333  0.27045  0.38310  Biso   1.000  H
  O24      1.0000 0.31440  0.27160  0.36409  Biso   1.000  O
  H100     1.0000 0.39521  0.40972  0.38280  Biso   1.000  H
  O25      1.0000 0.42472  0.39350  0.36335  Biso   1.000  O
  H101     1.0000 0.66631  0.35806  0.37570  Biso   1.000  H
  H102     1.0000 0.60893  0.45423  0.37880  Biso   1.000  H
  H103     1.0000 0.59121  0.39943  0.36550  Biso   1.000  H
  H104     1.0000 0.47874  0.31904  0.40040  Biso   1.000  H
  H105     1.0000 0.52633  0.42072  0.39760  Biso   1.000  H
  H106     1.0000 0.59228  0.32826  0.39930  Biso   1.000  H
  H107     1.0000 0.61443  0.62687  0.31100  Biso   1.000  H
  O26      1.0000 0.54241  0.52154  0.32040  Biso   1.000  O
  H108     1.0000 0.54691  0.58707  0.29200  Biso   1.000  H
  O27      1.0000 0.46824  0.48303  0.30118  Biso   1.000  O
  H109     1.0000 0.51283  0.37242  0.28320  Biso   1.000  H
  H110     1.0000 0.56141  0.32926  0.29580  Biso   1.000  H
  H111     1.0000 0.61551  0.32240  0.28230  Biso   1.000  H
  H112     1.0000 0.70554  0.45623  0.27380  Biso   1.000  H
  H113     1.0000 0.68303  0.56206  0.27870  Biso   1.000  H
  H114     1.0000 0.60243  0.50254  0.27140  Biso   1.000  H
  C130     1.0000 0.77342  0.79014  0.18451  Biso   1.000  C
  H115     1.0000 0.75727  0.76813  0.20480  Biso   1.000  H
  N3       1.0000 0.83051  0.84795  0.17814  Biso   1.000  N
  C131     1.0000 0.19921  0.21150  0.30195  Biso   1.000  C
  O28      1.0000 0.10211  0.11540  0.31271  Biso   1.000  O
  H116     1.0000 0.92297  0.64702  0.12680  Biso   1.000  H
  C132     1.0000 0.80679  0.56892  0.12333  Biso   1.000  C
  C133     1.0000 0.66838  0.47574  0.11893  Biso   1.000  C
  H117     1.0000 0.46031  0.24151  0.17270  Biso   1.000  H
  C134     1.0000 0.49896  0.30168  0.18965  Biso   1.000  C
  C135     1.0000 0.54298  0.37899  0.20979  Biso   1.000  C
  B9       1.0000 0.35720  0.33876  0.35691  Biso   1.000  B
  B10      1.0000 0.46509  0.47596  0.31445  Biso   1.000  B
  C136     1.0000 0.70632  0.72855  0.17795  Biso   1.000  C
  C137     1.0000 0.20993  0.22665  0.31549  Biso   1.000  C
  H118     1.0000 0.23194  0.24273  0.29520  Biso   1.000  H
  N4       1.0000 0.15213  0.16956  0.32186  Biso   1.000  N
  C138     1.0000 0.72662  0.63973  0.12406  Biso   1.000  C
  C139     1.0000 0.63959  0.57678  0.12301  Biso   1.000  C
  C140     1.0000 0.60872  0.39478  0.12532  Biso   1.000  C
  C141     1.0000 0.64816  0.46888  0.10398  Biso   1.000  C
  C142     1.0000 0.44366  0.39628  0.18967  Biso   1.000  C
  C143     1.0000 0.47095  0.44101  0.20261  Biso   1.000  C
  C144     1.0000 0.63809  0.42651  0.21234  Biso   1.000  C
  C145     1.0000 0.50182  0.34384  0.22266  Biso   1.000  C
  C146     1.0000 0.34212  0.35005  0.34205  Biso   1.000  C
  C147     1.0000 0.39300  0.41801  0.32183  Biso   1.000  C
  C148     1.0000 0.70761  0.72040  0.16442  Biso   1.000  C
  C149     1.0000 0.64166  0.67110  0.18460  Biso   1.000  C
  C150     1.0000 0.27153  0.29375  0.32205  Biso   1.000  C
  O29      1.0000 0.72840  0.68560  0.13591  Biso   1.000  O
  H119     1.0000 0.72962  0.68675  0.11690  Biso   1.000  H
  O30      1.0000 0.60650  0.57528  0.13665  Biso   1.000  O
  H120     1.0000 0.59028  0.60479  0.11720  Biso   1.000  H
  H121     1.0000 0.64202  0.33369  0.12430  Biso   1.000  H
  H122     1.0000 0.54577  0.39114  0.12120  Biso   1.000  H
  H123     1.0000 0.60057  0.40879  0.13450  Biso   1.000  H
  H124     1.0000 0.68096  0.52133  0.09960  Biso   1.000  H
  H125     1.0000 0.57928  0.47374  0.10240  Biso   1.000  H
  H126     1.0000 0.67181  0.40772  0.10070  Biso   1.000  H
  O31      1.0000 0.47846  0.45759  0.17960  Biso   1.000  O
  H127     1.0000 0.37320  0.38564  0.18900  Biso   1.000  H
  O32      1.0000 0.51697  0.53176  0.19882  Biso   1.000  O
  H128     1.0000 0.41300  0.45309  0.20800  Biso   1.000  H
  H129     1.0000 0.62758  0.48725  0.21680  Biso   1.000  H
  H130     1.0000 0.67081  0.43859  0.20420  Biso   1.000  H
  H131     1.0000 0.67760  0.38449  0.21770  Biso   1.000  H
  H132     1.0000 0.54377  0.29453  0.22620  Biso   1.000  H
  H133     1.0000 0.43801  0.31704  0.22130  Biso   1.000  H
  H134     1.0000 0.49746  0.39764  0.22860  Biso   1.000  H
  C151     1.0000 0.27960  0.29246  0.33558  Biso   1.000  C
  C152     1.0000 0.39871  0.41315  0.33501  Biso   1.000  C
  C153     1.0000 0.32890  0.35834  0.31540  Biso   1.000  C
  C154     1.0000 0.65002  0.65795  0.15795  Biso   1.000  C
  H135     1.0000 0.74998  0.75991  0.15970  Biso   1.000  H
  H136     1.0000 0.63823  0.67574  0.19370  Biso   1.000  H
  C155     1.0000 0.58199  0.60700  0.17817  Biso   1.000  C
  B11      1.0000 0.66131  0.64280  0.14309  Biso   1.000  B
  B12      1.0000 0.52412  0.53491  0.18555  Biso   1.000  B
  H137     1.0000 0.24009  0.25002  0.34030  Biso   1.000  H
  H138     1.0000 0.44223  0.45366  0.33940  Biso   1.000  H
  H139     1.0000 0.32433  0.36184  0.30630  Biso   1.000  H
  C156     1.0000 0.58692  0.60129  0.16499  Biso   1.000  C
  H140     1.0000 0.54641  0.55784  0.16060  Biso   1.000  H
  C157     1.0000 0.98221  0.61701  0.36350  Biso   1.000  C
  C158     1.0000 0.00715  0.56685  0.37685  Biso   1.000  C
  H141     1.0000 0.91540  0.63780  0.36360  Biso   1.000  H
  H142     1.0000 0.99214  0.57142  0.35650  Biso   1.000  H
  H143     1.0000 0.02394  0.67253  0.36230  Biso   1.000  H
  C159     1.0000 0.99421  0.46388  0.37568  Biso   1.000  C
  C160     1.0000 0.93140  0.61043  0.38736  Biso   1.000  C
  C161     1.0000 0.10232  0.59064  0.38087  Biso   1.000  C
  C162     1.0000 0.91611  0.39993  0.37546  Biso   1.000  C
  C163     1.0000 0.08653  0.42644  0.37420  Biso   1.000  C
  H144     1.0000 0.91819  0.56234  0.39390  Biso   1.000  H
  H145     1.0000 0.87174  0.62772  0.38300  Biso   1.000  H
  H146     1.0000 0.95899  0.66738  0.39140  Biso   1.000  H
  C164     1.0000 0.15713  0.50154  0.37577  Biso   1.000  C
  H147     1.0000 0.12526  0.65073  0.37670  Biso   1.000  H
  O33      1.0000 0.11983  0.59128  0.39427  Biso   1.000  O
  C165     1.0000 0.93112  0.30682  0.37333  Biso   1.000  C
  H148     1.0000 0.85302  0.42301  0.37680  Biso   1.000  H
  C166     1.0000 0.10204  0.32962  0.37153  Biso   1.000  C
  H149     1.0000 0.19200  0.51533  0.36760  Biso   1.000  H
  O34      1.0000 0.22451  0.47703  0.38658  Biso   1.000  O
  B13      1.0000 0.18792  0.51990  0.39715  Biso   1.000  B
  C167     1.0000 0.86031  0.22658  0.37406  Biso   1.000  C
  C168     1.0000 0.02344  0.27038  0.37130  Biso   1.000  C
  H150     1.0000 0.16442  0.30561  0.36990  Biso   1.000  H
  C169     1.0000 0.22329  0.50418  0.41109  Biso   1.000  C
  H151     1.0000 0.81329  0.22958  0.36690  Biso   1.000  H
  C170     1.0000 0.92319  0.13962  0.37301  Biso   1.000  C
  O35      1.0000 0.81443  0.22844  0.38591  Biso   1.000  O
  C171     1.0000 0.02429  0.16842  0.36893  Biso   1.000  C
  C172     1.0000 0.28560  0.42822  0.41453  Biso   1.000  C
  C173     1.0000 0.18635  0.56034  0.42081  Biso   1.000  C
  H152     1.0000 0.89525  0.09032  0.36720  Biso   1.000  H
  O36      1.0000 0.92469  0.10647  0.38665  Biso   1.000  O
  B14      1.0000 0.85723  0.16127  0.39309  Biso   1.000  B
  C174     1.0000 0.10525  0.10868  0.37532  Biso   1.000  C
  C175     1.0000 0.03115  0.14820  0.35398  Biso   1.000  C
  H153     1.0000 0.31140  0.38964  0.40790  Biso   1.000  H
  C176     1.0000 0.31025  0.40757  0.42688  Biso   1.000  C
  C177     1.0000 0.20665  0.54062  0.43335  Biso   1.000  C
  H154     1.0000 0.14634  0.61300  0.41880  Biso   1.000  H
  C178     1.0000 0.84209  0.14998  0.40795  Biso   1.000  C
  H155     1.0000 0.16635  0.14198  0.37430  Biso   1.000  H
  H156     1.0000 0.10890  0.04580  0.37120  Biso   1.000  H
  H157     1.0000 0.09125  0.10061  0.38450  Biso   1.000  H
  H158     1.0000 0.97871  0.18099  0.34960  Biso   1.000  H
  H159     1.0000 0.02630  0.07931  0.35240  Biso   1.000  H
  H160     1.0000 0.09232  0.17178  0.35070  Biso   1.000  H
  C179     1.0000 0.27095  0.46188  0.43652  Biso   1.000  C
  B15      1.0000 0.37413  0.31840  0.43013  Biso   1.000  B
  C180     1.0000 0.16513  0.59979  0.44350  Biso   1.000  C
  C181     1.0000 0.89875  0.08689  0.41499  Biso   1.000  C
  C182     1.0000 0.77964  0.20757  0.41442  Biso   1.000  C
  H161     1.0000 0.28546  0.44809  0.44520  Biso   1.000  H
  O37      1.0000 0.39693  0.28932  0.44195  Biso   1.000  O
  O38      1.0000 0.40436  0.25773  0.42061  Biso   1.000  O
  C183     1.0000 0.13219  0.57828  0.45533  Biso   1.000  C
  N5       1.0000 0.16334  0.69775  0.44120  Biso   1.000  N
  H162     1.0000 0.94219  0.04637  0.41060  Biso   1.000  H
  C184     1.0000 0.89303  0.08203  0.42817  Biso   1.000  C
  H163     1.0000 0.74012  0.25002  0.40970  Biso   1.000  H
  C185     1.0000 0.77149  0.20629  0.42795  Biso   1.000  C
  C186     1.0000 0.43080  0.19278  0.44050  Biso   1.000  C
  C187     1.0000 0.45966  0.18042  0.42617  Biso   1.000  C
  H164     1.0000 0.13083  0.51590  0.45890  Biso   1.000  H
  C188     1.0000 0.10104  0.66009  0.46145  Biso   1.000  C
  O39      1.0000 0.12476  0.73769  0.45261  Biso   1.000  O
  C189     1.0000 0.82894  0.14169  0.43460  Biso   1.000  C
  B16      1.0000 0.96513  0.02408  0.43555  Biso   1.000  B
  C190     1.0000 0.70990  0.27338  0.43451  Biso   1.000  C
  C191     1.0000 0.34962  0.12047  0.44209  Biso   1.000  C
  H165     1.0000 0.48546  0.17878  0.44640  Biso   1.000  H
  C192     1.0000 0.42287  0.08167  0.42170  Biso   1.000  C
  H166     1.0000 0.52990  0.18842  0.42480  Biso   1.000  H
  C193     1.0000 0.06545  0.69303  0.47342  Biso   1.000  C
  H167     1.0000 0.82429  0.13819  0.44370  Biso   1.000  H
  O40      1.0000 0.96827  0.01701  0.44882  Biso   1.000  O
  O41      1.0000 0.04244  0.97849  0.42960  Biso   1.000  O
  C194     1.0000 0.69925  0.28853  0.44805  Biso   1.000  C
  N6       1.0000 0.65209  0.33048  0.42814  Biso   1.000  N
  C195     1.0000 0.28553  0.11590  0.45186  Biso   1.000  C
  C196     1.0000 0.34255  0.06481  0.43145  Biso   1.000  C
  C197     1.0000 0.39193  0.08310  0.40811  Biso   1.000  C
  C198     1.0000 0.50111  0.01058  0.42357  Biso   1.000  C
  O42      1.0000 0.99686  0.76263  0.47030  Biso   1.000  O
  H168     1.0000 0.03594  0.63994  0.47830  Biso   1.000  H
  H169     1.0000 0.11740  0.72104  0.47860  Biso   1.000  H
  C199     1.0000 0.05902  0.97099  0.45261  Biso   1.000  C
  C200     1.0000 0.10375  0.94369  0.43967  Biso   1.000  C
  H170     1.0000 0.73190  0.25731  0.45480  Biso   1.000  H
  C201     1.0000 0.63194  0.35748  0.44888  Biso   1.000  C
  O43      1.0000 0.60214  0.38464  0.43729  Biso   1.000  O
  C202     1.0000 0.20843  0.05509  0.45069  Biso   1.000  C
  H171     1.0000 0.29375  0.15370  0.45930  Biso   1.000  H
  C203     1.0000 0.26445  0.00029  0.42997  Biso   1.000  C
  H172     1.0000 0.36563  0.02051  0.40580  Biso   1.000  H
  H173     1.0000 0.44695  0.09739  0.40260  Biso   1.000  H
  H174     1.0000 0.34291  0.13233  0.40690  Biso   1.000  H
  H175     1.0000 0.48160  0.94891  0.42000  Biso   1.000  H
  H176     1.0000 0.51411  0.00329  0.43270  Biso   1.000  H
  H177     1.0000 0.55906  0.03287  0.41920  Biso   1.000  H
  C204     1.0000 0.95063  0.81222  0.47996  Biso   1.000  C
  H178     1.0000 0.04695  0.91297  0.45800  Biso   1.000  H
  C205     1.0000 0.12104  0.04302  0.45979  Biso   1.000  C
  C206     1.0000 0.19836  0.99900  0.43965  Biso   1.000  C
  H179     1.0000 0.11440  0.87317  0.43900  Biso   1.000  H
  C207     1.0000 0.58614  0.40972  0.45975  Biso   1.000  C
  H180     1.0000 0.25852  0.96027  0.42270  Biso   1.000  H
  C208     1.0000 0.88389  0.87981  0.47579  Biso   1.000  C
  C209     1.0000 0.97049  0.79671  0.49262  Biso   1.000  C
  C210     1.0000 0.07353  0.13812  0.46234  Biso   1.000  C
  C211     1.0000 0.15620  0.00179  0.47266  Biso   1.000  C
  H181     1.0000 0.59771  0.47924  0.45890  Biso   1.000  H
  H182     1.0000 0.51618  0.39871  0.45970  Biso   1.000  H
  O44      1.0000 0.62558  0.37585  0.47121  Biso   1.000  O
  C212     1.0000 0.83280  0.93405  0.48447  Biso   1.000  C
  H183     1.0000 0.87374  0.88860  0.46690  Biso   1.000  H
  C213     1.0000 0.91768  0.85023  0.50203  Biso   1.000  C
  H184     1.0000 0.01793  0.75191  0.49510  Biso   1.000  H
  H185     1.0000 0.01279  0.12762  0.46680  Biso   1.000  H
  H186     1.0000 0.06145  0.17078  0.45420  Biso   1.000  H
  H187     1.0000 0.11554  0.17763  0.46770  Biso   1.000  H
  H188     1.0000 0.18299  0.93798  0.47130  Biso   1.000  H
  H189     1.0000 0.10239  0.99750  0.47860  Biso   1.000  H
  H190     1.0000 0.20550  0.04380  0.47620  Biso   1.000  H
  C214     1.0000 0.59250  0.41808  0.48234  Biso   1.000  C
  C215     1.0000 0.85023  0.91768  0.49797  Biso   1.000  C
  B17      1.0000 0.75341  0.00014  0.47891  Biso   1.000  B
  C216     1.0000 0.93405  0.83280  0.51553  Biso   1.000  C
  C217     1.0000 0.52404  0.49053  0.48230  Biso   1.000  C
  C218     1.0000 0.63351  0.38571  0.49389  Biso   1.000  C
  C219     1.0000 0.79671  0.97049  0.50738  Biso   1.000  C
  O45      1.0000 0.73055  0.99693  0.46605  Biso   1.000  O
  O46      1.0000 0.69611  0.05859  0.48591  Biso   1.000  O
  C220     1.0000 0.87981  0.88389  0.52421  Biso   1.000  C
  B18      1.0000 0.00014  0.75341  0.52109  Biso   1.000  B
  H191     1.0000 0.49932  0.51383  0.47440  Biso   1.000  H
  C221     1.0000 0.49118  0.52919  0.49404  Biso   1.000  C
  C222     1.0000 0.60422  0.42072  0.50559  Biso   1.000  C
  H192     1.0000 0.68253  0.33884  0.49360  Biso   1.000  H
  C223     1.0000 0.81222  0.95063  0.52004  Biso   1.000  C
  H193     1.0000 0.75191  0.01793  0.50490  Biso   1.000  H
  C224     1.0000 0.64030  0.04659  0.46478  Biso   1.000  C
  C225     1.0000 0.62830  0.10504  0.47756  Biso   1.000  C
  H194     1.0000 0.88860  0.87374  0.53310  Biso   1.000  H
  O47      1.0000 0.99693  0.73055  0.53395  Biso   1.000  O
  O48      1.0000 0.05859  0.69611  0.51409  Biso   1.000  O
  C226     1.0000 0.52919  0.49118  0.50596  Biso   1.000  C
  C227     1.0000 0.42072  0.60422  0.49441  Biso   1.000  C
  B19      1.0000 0.65874  0.38800  0.51747  Biso   1.000  B
  O49      1.0000 0.76263  0.99686  0.52970  Biso   1.000  O
  C228     1.0000 0.55820  0.97935  0.46478  Biso   1.000  C
  H195     1.0000 0.63959  0.08932  0.45710  Biso   1.000  H
  C229     1.0000 0.52412  0.09003  0.48193  Biso   1.000  C
  H196     1.0000 0.64373  0.17421  0.47630  Biso   1.000  H
  C230     1.0000 0.04659  0.64030  0.53522  Biso   1.000  C
  C231     1.0000 0.10504  0.62830  0.52244  Biso   1.000  C
  C232     1.0000 0.49053  0.52404  0.51770  Biso   1.000  C
  C233     1.0000 0.38571  0.63351  0.50611  Biso   1.000  C
  B20      1.0000 0.38800  0.65874  0.48253  Biso   1.000  B
  O50      1.0000 0.73976  0.33226  0.51674  Biso   1.000  O
  O51      1.0000 0.63601  0.41036  0.52999  Biso   1.000  O
  C234     1.0000 0.69303  0.06545  0.52658  Biso   1.000  C
  C235     1.0000 0.49461  0.99950  0.47483  Biso   1.000  C
  C236     1.0000 0.54741  0.90025  0.45707  Biso   1.000  C
  C237     1.0000 0.51440  0.08303  0.49663  Biso   1.000  C
  C238     1.0000 0.46474  0.17549  0.47738  Biso   1.000  C
  C239     1.0000 0.97935  0.55820  0.53522  Biso   1.000  C
  H197     1.0000 0.08932  0.63959  0.54290  Biso   1.000  H
  C240     1.0000 0.09003  0.52412  0.51807  Biso   1.000  C
  H198     1.0000 0.17421  0.64373  0.52370  Biso   1.000  H
  C241     1.0000 0.41808  0.59250  0.51766  Biso   1.000  C
  H199     1.0000 0.51383  0.49932  0.52560  Biso   1.000  H
  H200     1.0000 0.33884  0.68253  0.50640  Biso   1.000  H
  O52      1.0000 0.33226  0.73976  0.48326  Biso   1.000  O
  O53      1.0000 0.41036  0.63601  0.47001  Biso   1.000  O
  C242     1.0000 0.78335  0.33119  0.52949  Biso   1.000  C
  C243     1.0000 0.70361  0.36820  0.53885  Biso   1.000  C
  C244     1.0000 0.66009  0.10104  0.53855  Biso   1.000  C
  H201     1.0000 0.63994  0.03594  0.52170  Biso   1.000  H
  H202     1.0000 0.72104  0.11740  0.52140  Biso   1.000  H
  C245     1.0000 0.41672  0.94105  0.47712  Biso   1.000  C
  C246     1.0000 0.46888  0.84009  0.45931  Biso   1.000  C
  H203     1.0000 0.59178  0.88660  0.45040  Biso   1.000  H
  H204     1.0000 0.53562  0.14305  0.50050  Biso   1.000  H
  H205     1.0000 0.55398  0.03030  0.49980  Biso   1.000  H
  H206     1.0000 0.44752  0.07124  0.49890  Biso   1.000  H
  H207     1.0000 0.47331  0.18392  0.46810  Biso   1.000  H
  H208     1.0000 0.48582  0.23330  0.48190  Biso   1.000  H
  H209     1.0000 0.39714  0.16384  0.47920  Biso   1.000  H
  C247     1.0000 0.99950  0.49461  0.52517  Biso   1.000  C
  C248     1.0000 0.90025  0.54741  0.54293  Biso   1.000  C
  C249     1.0000 0.08303  0.51440  0.50337  Biso   1.000  C
  C250     1.0000 0.17549  0.46474  0.52262  Biso   1.000  C
  O54      1.0000 0.37585  0.62558  0.52879  Biso   1.000  O
  C251     1.0000 0.33119  0.78335  0.47051  Biso   1.000  C
  C252     1.0000 0.36820  0.70361  0.46115  Biso   1.000  C
  C253     1.0000 0.86059  0.40522  0.53071  Biso   1.000  C
  H210     1.0000 0.80650  0.26602  0.53190  Biso   1.000  H
  H211     1.0000 0.67424  0.31454  0.54380  Biso   1.000  H
  C254     1.0000 0.75063  0.44252  0.54783  Biso   1.000  C
  C255     1.0000 0.57828  0.13219  0.54467  Biso   1.000  C
  O55      1.0000 0.73769  0.12476  0.54739  Biso   1.000  O
  C256     1.0000 0.40522  0.86059  0.46929  Biso   1.000  C
  H212     1.0000 0.37249  0.95491  0.48380  Biso   1.000  H
  C257     1.0000 0.44252  0.75063  0.45217  Biso   1.000  C
  C258     1.0000 0.94105  0.41672  0.52288  Biso   1.000  C
  C259     1.0000 0.84009  0.46888  0.54069  Biso   1.000  C
  H213     1.0000 0.88660  0.59178  0.54960  Biso   1.000  H
  H214     1.0000 0.14305  0.53562  0.49950  Biso   1.000  H
  H215     1.0000 0.03030  0.55398  0.50020  Biso   1.000  H
  H216     1.0000 0.07124  0.44752  0.50110  Biso   1.000  H
  H217     1.0000 0.18392  0.47331  0.53190  Biso   1.000  H
  H218     1.0000 0.23330  0.48582  0.51810  Biso   1.000  H
  H219     1.0000 0.16384  0.39714  0.52080  Biso   1.000  H
  C260     1.0000 0.40972  0.58614  0.54025  Biso   1.000  C
  H220     1.0000 0.26602  0.80650  0.46810  Biso   1.000  H
  H221     1.0000 0.31454  0.67424  0.45620  Biso   1.000  H
  C261     1.0000 0.68339  0.52705  0.55073  Biso   1.000  C
  C262     1.0000 0.77742  0.39078  0.56042  Biso   1.000  C
  C263     1.0000 0.59979  0.16513  0.55650  Biso   1.000  C
  H222     1.0000 0.51590  0.13083  0.54110  Biso   1.000  H
  N7       1.0000 0.69775  0.16334  0.55880  Biso   1.000  N
  C264     1.0000 0.52705  0.68339  0.44927  Biso   1.000  C
  C265     1.0000 0.39078  0.77742  0.43958  Biso   1.000  C
  H223     1.0000 0.95491  0.37249  0.51620  Biso   1.000  H
  C266     1.0000 0.35748  0.63194  0.55112  Biso   1.000  C
  H224     1.0000 0.47924  0.59771  0.54110  Biso   1.000  H
  H225     1.0000 0.39871  0.51618  0.54030  Biso   1.000  H
  H226     1.0000 0.71668  0.57363  0.55610  Biso   1.000  H
  H227     1.0000 0.62651  0.50368  0.55520  Biso   1.000  H
  H228     1.0000 0.66431  0.55763  0.54270  Biso   1.000  H
  H229     1.0000 0.81150  0.33140  0.55840  Biso   1.000  H
  H230     1.0000 0.71911  0.37578  0.56520  Biso   1.000  H
  H231     1.0000 0.81851  0.43230  0.56560  Biso   1.000  H
  C267     1.0000 0.54062  0.20665  0.56665  Biso   1.000  C
  H232     1.0000 0.57363  0.71668  0.44390  Biso   1.000  H
  H233     1.0000 0.50368  0.62651  0.44480  Biso   1.000  H
  H234     1.0000 0.55763  0.66431  0.45730  Biso   1.000  H
  H235     1.0000 0.33140  0.81150  0.44160  Biso   1.000  H
  H236     1.0000 0.37578  0.71911  0.43480  Biso   1.000  H
  H237     1.0000 0.43230  0.81851  0.43440  Biso   1.000  H
  C268     1.0000 0.28853  0.69925  0.55195  Biso   1.000  C
  O56      1.0000 0.38464  0.60214  0.56271  Biso   1.000  O
  C269     1.0000 0.46188  0.27095  0.56348  Biso   1.000  C
  C270     1.0000 0.56034  0.18635  0.57919  Biso   1.000  C
  C271     1.0000 0.27338  0.70990  0.56549  Biso   1.000  C
  H238     1.0000 0.25731  0.73190  0.54520  Biso   1.000  H
  N8       1.0000 0.33048  0.65209  0.57186  Biso   1.000  N
  C272     1.0000 0.40757  0.31025  0.57312  Biso   1.000  C
  H239     1.0000 0.44809  0.28546  0.55480  Biso   1.000  H
  H240     1.0000 0.61300  0.14634  0.58120  Biso   1.000  H
  C273     1.0000 0.50418  0.22329  0.58891  Biso   1.000  C
  C274     1.0000 0.20629  0.77149  0.57205  Biso   1.000  C
  C275     1.0000 0.42822  0.28560  0.58547  Biso   1.000  C
  B21      1.0000 0.31840  0.37413  0.56987  Biso   1.000  B
  B22      1.0000 0.51990  0.18792  0.60285  Biso   1.000  B
  C276     1.0000 0.20757  0.77964  0.58558  Biso   1.000  C
  C277     1.0000 0.14169  0.82894  0.56540  Biso   1.000  C
  H241     1.0000 0.38964  0.31140  0.59210  Biso   1.000  H
  O57      1.0000 0.28932  0.39693  0.55805  Biso   1.000  O
  O58      1.0000 0.25773  0.40436  0.57939  Biso   1.000  O
  O59      1.0000 0.47703  0.22451  0.61342  Biso   1.000  O
  O60      1.0000 0.59128  0.11983  0.60573  Biso   1.000  O
  C278     1.0000 0.14998  0.84209  0.59205  Biso   1.000  C
  H242     1.0000 0.25002  0.74012  0.59030  Biso   1.000  H
  H243     1.0000 0.13819  0.82429  0.55630  Biso   1.000  H
  C279     1.0000 0.08203  0.89303  0.57183  Biso   1.000  C
  C280     1.0000 0.19278  0.43080  0.55950  Biso   1.000  C
  C281     1.0000 0.18042  0.45966  0.57383  Biso   1.000  C
  C282     1.0000 0.50154  0.15713  0.62423  Biso   1.000  C
  C283     1.0000 0.59064  0.10232  0.61913  Biso   1.000  C
  C284     1.0000 0.08689  0.89875  0.58501  Biso   1.000  C
  B23      1.0000 0.16127  0.85723  0.60691  Biso   1.000  B
  B24      1.0000 0.02408  0.96513  0.56445  Biso   1.000  B
  C285     1.0000 0.12047  0.34962  0.55791  Biso   1.000  C
  H244     1.0000 0.17878  0.48546  0.55360  Biso   1.000  H
  C286     1.0000 0.08167  0.42287  0.57830  Biso   1.000  C
  H245     1.0000 0.18842  0.52990  0.57520  Biso   1.000  H
  C287     1.0000 0.42644  0.08653  0.62580  Biso   1.000  C
  H246     1.0000 0.51533  0.19200  0.63240  Biso   1.000  H
  C288     1.0000 0.56685  0.00715  0.62315  Biso   1.000  C
  H247     1.0000 0.65073  0.12526  0.62330  Biso   1.000  H
  H248     1.0000 0.04637  0.94219  0.58940  Biso   1.000  H
  O61      1.0000 0.22844  0.81443  0.61409  Biso   1.000  O
  O62      1.0000 0.10647  0.92469  0.61335  Biso   1.000  O
  O63      1.0000 0.01701  0.96827  0.55118  Biso   1.000  O
  O64      1.0000 0.97849  0.04244  0.57040  Biso   1.000  O
  C289     1.0000 0.11590  0.28553  0.54814  Biso   1.000  C
  C290     1.0000 0.06481  0.34255  0.56855  Biso   1.000  C
  C291     1.0000 0.08310  0.39193  0.59189  Biso   1.000  C
  C292     1.0000 0.01058  0.50111  0.57643  Biso   1.000  C
  C293     1.0000 0.46388  0.99421  0.62432  Biso   1.000  C
  C294     1.0000 0.32962  0.10204  0.62847  Biso   1.000  C
  C295     1.0000 0.61043  0.93140  0.61264  Biso   1.000  C
  C296     1.0000 0.61701  0.98221  0.63650  Biso   1.000  C
  C297     1.0000 0.22658  0.86031  0.62594  Biso   1.000  C
  C298     1.0000 0.13962  0.92319  0.62699  Biso   1.000  C
  C299     1.0000 0.97099  0.05902  0.54739  Biso   1.000  C
  C300     1.0000 0.94369  0.10375  0.56033  Biso   1.000  C
  C301     1.0000 0.05509  0.20843  0.54931  Biso   1.000  C
  H249     1.0000 0.15370  0.29375  0.54070  Biso   1.000  H
  C302     1.0000 0.00029  0.26445  0.57003  Biso   1.000  C
  H250     1.0000 0.02051  0.36563  0.59420  Biso   1.000  H
  H251     1.0000 0.09739  0.44695  0.59740  Biso   1.000  H
  H252     1.0000 0.13233  0.34291  0.59310  Biso   1.000  H
  H253     1.0000 0.94891  0.48160  0.58000  Biso   1.000  H
  H254     1.0000 0.00329  0.51411  0.56730  Biso   1.000  H
  H255     1.0000 0.03287  0.55906  0.58080  Biso   1.000  H
  C303     1.0000 0.39993  0.91611  0.62454  Biso   1.000  C
  C304     1.0000 0.27038  0.02344  0.62870  Biso   1.000  C
  H256     1.0000 0.30561  0.16442  0.63010  Biso   1.000  H
  H257     1.0000 0.56234  0.91819  0.60610  Biso   1.000  H
  H258     1.0000 0.62772  0.87174  0.61700  Biso   1.000  H
  H259     1.0000 0.66738  0.95899  0.60860  Biso   1.000  H
  H260     1.0000 0.63780  0.91540  0.63640  Biso   1.000  H
  H261     1.0000 0.57142  0.99214  0.64350  Biso   1.000  H
  H262     1.0000 0.67253  0.02394  0.63770  Biso   1.000  H
  C305     1.0000 0.30682  0.93112  0.62667  Biso   1.000  C
  H263     1.0000 0.22958  0.81329  0.63310  Biso   1.000  H
  H264     1.0000 0.09032  0.89525  0.63280  Biso   1.000  H
  C306     1.0000 0.16842  0.02429  0.63107  Biso   1.000  C
  H265     1.0000 0.91297  0.04695  0.54200  Biso   1.000  H
  C307     1.0000 0.04302  0.12104  0.54021  Biso   1.000  C
  C308     1.0000 0.99900  0.19836  0.56035  Biso   1.000  C
  H266     1.0000 0.87317  0.11440  0.56100  Biso   1.000  H
  H267     1.0000 0.96027  0.25852  0.57730  Biso   1.000  H
  H268     1.0000 0.42301  0.85302  0.62320  Biso   1.000  H
  C309     1.0000 0.10868  0.10525  0.62468  Biso   1.000  C
  C310     1.0000 0.14820  0.03115  0.64602  Biso   1.000  C
  C311     1.0000 0.13812  0.07353  0.53766  Biso   1.000  C
  C312     1.0000 0.00179  0.15620  0.52734  Biso   1.000  C
  H269     1.0000 0.14198  0.16635  0.62570  Biso   1.000  H
  H270     1.0000 0.04580  0.10890  0.62880  Biso   1.000  H
  H271     1.0000 0.10061  0.09125  0.61550  Biso   1.000  H
  H272     1.0000 0.18099  0.97871  0.65040  Biso   1.000  H
  H273     1.0000 0.07931  0.02630  0.64760  Biso   1.000  H
  H274     1.0000 0.17178  0.09232  0.64930  Biso   1.000  H
  H275     1.0000 0.12762  0.01279  0.53320  Biso   1.000  H
  H276     1.0000 0.17078  0.06145  0.54580  Biso   1.000  H
  H277     1.0000 0.17763  0.11554  0.53230  Biso   1.000  H
  H278     1.0000 0.93798  0.18299  0.52870  Biso   1.000  H
  H279     1.0000 0.99750  0.10239  0.52140  Biso   1.000  H
  H280     1.0000 0.04380  0.20550  0.52380  Biso   1.000  H
  C313     1.0000 0.38299  0.01779  0.13650  Biso   1.000  C
  H281     1.0000 0.36220  0.08460  0.13640  Biso   1.000  H
  H282     1.0000 0.42858  0.00793  0.14350  Biso   1.000  H
  C314     1.0000 0.43323  0.99293  0.12315  Biso   1.000  C
  H283     1.0000 0.32747  0.97613  0.13770  Biso   1.000  H
  C315     1.0000 0.53612  0.00579  0.12432  Biso   1.000  C
  C316     1.0000 0.38964  0.06860  0.11264  Biso   1.000  C
  C317     1.0000 0.40943  0.89768  0.11913  Biso   1.000  C
  C318     1.0000 0.60014  0.08389  0.12454  Biso   1.000  C
  C319     1.0000 0.57363  0.91347  0.12580  Biso   1.000  C
  H284     1.0000 0.43773  0.08181  0.10610  Biso   1.000  H
  H285     1.0000 0.37228  0.12833  0.11700  Biso   1.000  H
  H286     1.0000 0.33262  0.04101  0.10860  Biso   1.000  H
  C320     1.0000 0.49854  0.84287  0.12423  Biso   1.000  C
  H287     1.0000 0.34934  0.87481  0.12330  Biso   1.000  H
  O65      1.0000 0.40872  0.88017  0.10573  Biso   1.000  O
  H288     1.0000 0.57699  0.14698  0.12320  Biso   1.000  H
  C321     1.0000 0.69325  0.06888  0.12667  Biso   1.000  C
  C322     1.0000 0.67038  0.89796  0.12847  Biso   1.000  C
  H289     1.0000 0.48474  0.80800  0.13240  Biso   1.000  H
  O66      1.0000 0.52304  0.77549  0.11342  Biso   1.000  O
  B25      1.0000 0.48010  0.81208  0.10285  Biso   1.000  B
  C323     1.0000 0.77342  0.13969  0.12594  Biso   1.000  C
  C324     1.0000 0.72962  0.97663  0.12870  Biso   1.000  C
  H290     1.0000 0.69439  0.83558  0.13010  Biso   1.000  H
  C325     1.0000 0.49582  0.77671  0.08891  Biso   1.000  C
  H291     1.0000 0.77042  0.18671  0.13310  Biso   1.000  H
  C326     1.0000 0.86045  0.07681  0.12699  Biso   1.000  C
  O67      1.0000 0.77163  0.18564  0.11409  Biso   1.000  O
  C327     1.0000 0.83158  0.97571  0.13107  Biso   1.000  C
  C328     1.0000 0.57185  0.71440  0.08547  Biso   1.000  C
  C329     1.0000 0.43973  0.81372  0.07919  Biso   1.000  C
  H292     1.0000 0.90975  0.10482  0.13280  Biso   1.000  H
  O68      1.0000 0.89353  0.07531  0.11335  Biso   1.000  O
  B26      1.0000 0.83873  0.14284  0.10691  Biso   1.000  B
  C330     1.0000 0.89132  0.89482  0.12468  Biso   1.000  C
  C331     1.0000 0.85180  0.96892  0.14602  Biso   1.000  C
  H293     1.0000 0.61043  0.68860  0.09210  Biso   1.000  H
  C332     1.0000 0.59243  0.68982  0.07312  Biso   1.000  C
  C333     1.0000 0.45938  0.79343  0.06665  Biso   1.000  C
  H294     1.0000 0.38700  0.85366  0.08120  Biso   1.000  H
  C334     1.0000 0.85002  0.15791  0.09205  Biso   1.000  C
  H295     1.0000 0.85802  0.83373  0.12570  Biso   1.000  H
  H296     1.0000 0.95420  0.89110  0.12880  Biso   1.000  H
  H297     1.0000 0.89939  0.90882  0.11550  Biso   1.000  H
  H298     1.0000 0.81901  0.02129  0.15040  Biso   1.000  H
  H299     1.0000 0.92069  0.97370  0.14760  Biso   1.000  H
  H300     1.0000 0.82822  0.90768  0.14930  Biso   1.000  H
  C335     1.0000 0.53812  0.72912  0.06348  Biso   1.000  C
  B27      1.0000 0.68160  0.62587  0.06987  Biso   1.000  B
  C336     1.0000 0.40021  0.83487  0.05650  Biso   1.000  C
  C337     1.0000 0.91311  0.10132  0.08501  Biso   1.000  C
  C338     1.0000 0.79243  0.22044  0.08558  Biso   1.000  C
  H301     1.0000 0.55191  0.71461  0.05480  Biso   1.000  H
  O69      1.0000 0.71068  0.60307  0.05805  Biso   1.000  O
  O70      1.0000 0.74234  0.59571  0.07939  Biso   1.000  O
  C339     1.0000 0.42172  0.86781  0.04467  Biso   1.000  C
  N9       1.0000 0.30232  0.83673  0.05880  Biso   1.000  N
  H302     1.0000 0.95363  0.05781  0.08940  Biso   1.000  H
  C340     1.0000 0.91804  0.10697  0.07183  Biso   1.000  C
  H303     1.0000 0.74998  0.25988  0.09030  Biso   1.000  H
  C341     1.0000 0.79371  0.22851  0.07205  Biso   1.000  C
  C342     1.0000 0.80722  0.56920  0.05950  Biso   1.000  C
  C343     1.0000 0.81965  0.54041  0.07383  Biso   1.000  C
  H304     1.0000 0.48410  0.86917  0.04110  Biso   1.000  H
  C344     1.0000 0.33991  0.89896  0.03855  Biso   1.000  C
  O71      1.0000 0.26231  0.87531  0.04739  Biso   1.000  O
  C345     1.0000 0.85831  0.17113  0.06540  Biso   1.000  C
  B28      1.0000 0.97592  0.03487  0.06445  Biso   1.000  B
  C346     1.0000 0.72662  0.29010  0.06549  Biso   1.000  C
  H305     1.0000 0.82122  0.51461  0.05360  Biso   1.000  H
  C347     1.0000 0.87953  0.65038  0.05791  Biso   1.000  C
  H306     1.0000 0.81165  0.47010  0.07520  Biso   1.000  H
  C348     1.0000 0.91833  0.57721  0.07830  Biso   1.000  C
  C349     1.0000 0.30704  0.93462  0.02658  Biso   1.000  C
  H307     1.0000 0.86181  0.17571  0.05630  Biso   1.000  H
  O72      1.0000 0.98299  0.03180  0.05118  Biso   1.000  O
  O73      1.0000 0.02151  0.95763  0.07040  Biso   1.000  O
  C350     1.0000 0.71154  0.30082  0.05195  Biso   1.000  C
  N10      1.0000 0.66952  0.34791  0.07186  Biso   1.000  N
  C351     1.0000 0.93519  0.65752  0.06855  Biso   1.000  C
  C352     1.0000 0.88410  0.71447  0.04814  Biso   1.000  C
  C353     1.0000 0.91690  0.60807  0.09189  Biso   1.000  C
  C354     1.0000 0.98942  0.49889  0.07643  Biso   1.000  C
  O74      1.0000 0.23737  0.00322  0.02970  Biso   1.000  O
  H308     1.0000 0.36013  0.96413  0.02170  Biso   1.000  H
  H309     1.0000 0.27903  0.88260  0.02140  Biso   1.000  H
  C355     1.0000 0.02901  0.94098  0.04739  Biso   1.000  C
  C356     1.0000 0.05631  0.89632  0.06033  Biso   1.000  C
  H310     1.0000 0.74269  0.26810  0.04520  Biso   1.000  H
  C357     1.0000 0.64252  0.36813  0.05112  Biso   1.000  C
  O75      1.0000 0.61543  0.39793  0.06271  Biso   1.000  O
  C358     1.0000 0.99971  0.73562  0.07003  Biso   1.000  C
  C359     1.0000 0.94491  0.79157  0.04931  Biso   1.000  C
  H311     1.0000 0.84630  0.70632  0.04070  Biso   1.000  H
  H312     1.0000 0.97949  0.63437  0.09420  Biso   1.000  H
  H313     1.0000 0.90261  0.55313  0.09740  Biso   1.000  H
  H314     1.0000 0.86774  0.65709  0.09310  Biso   1.000  H
  H315     1.0000 0.99671  0.48589  0.06730  Biso   1.000  H
  H316     1.0000 0.96713  0.44101  0.08080  Biso   1.000  H
  H317     1.0000 0.05109  0.51840  0.08000  Biso   1.000  H
  C360     1.0000 0.18778  0.04937  0.02004  Biso   1.000  C
  C361     1.0000 0.95706  0.87903  0.04021  Biso   1.000  C
  H318     1.0000 0.08703  0.95313  0.04200  Biso   1.000  H
  C362     1.0000 0.00100  0.80171  0.06035  Biso   1.000  C
  H319     1.0000 0.12683  0.88560  0.06100  Biso   1.000  H
  C363     1.0000 0.59028  0.41393  0.04025  Biso   1.000  C
  H320     1.0000 0.03973  0.74148  0.07730  Biso   1.000  H
  C364     1.0000 0.20329  0.02951  0.00738  Biso   1.000  C
  C365     1.0000 0.12019  0.11611  0.02421  Biso   1.000  C
  C366     1.0000 0.86195  0.92647  0.03766  Biso   1.000  C
  C367     1.0000 0.99821  0.84380  0.02734  Biso   1.000  C
  H321     1.0000 0.52083  0.40229  0.04110  Biso   1.000  H
  H322     1.0000 0.60129  0.48382  0.04030  Biso   1.000  H
  O76      1.0000 0.62415  0.37442  0.02879  Biso   1.000  O
  H323     1.0000 0.24809  0.98207  0.00490  Biso   1.000  H
  C368     1.0000 0.14977  0.08232  0.99797  Biso   1.000  C
  C369     1.0000 0.06602  0.16720  0.01553  Biso   1.000  C
  H324     1.0000 0.11140  0.12633  0.03310  Biso   1.000  H
  H325     1.0000 0.87238  0.98721  0.03320  Biso   1.000  H
  H326     1.0000 0.82922  0.93862  0.04580  Biso   1.000  H
  H327     1.0000 0.82244  0.88453  0.03230  Biso   1.000  H
  H328     1.0000 0.95620  0.79450  0.02380  Biso   1.000  H
  H329     1.0000 0.06202  0.81701  0.02870  Biso   1.000  H
  H330     1.0000 0.00250  0.89761  0.02140  Biso   1.000  H
  C370     1.0000 0.58192  0.40750  0.01766  Biso   1.000  C
  C371     1.0000 0.08232  0.14977  0.00203  Biso   1.000  C
  C372     1.0000 0.16720  0.06602  0.98447  Biso   1.000  C
  B29      1.0000 0.99993  0.24659  0.02109  Biso   1.000  B
  C373     1.0000 0.50954  0.47603  0.01770  Biso   1.000  C
  C374     1.0000 0.61429  0.36649  0.00611  Biso   1.000  C
  C375     1.0000 0.02951  0.20329  0.99262  Biso   1.000  C
  B30      1.0000 0.24659  0.99993  0.97891  Biso   1.000  B
  C376     1.0000 0.11611  0.12019  0.97579  Biso   1.000  C
  O77      1.0000 0.00307  0.26945  0.03395  Biso   1.000  O
  O78      1.0000 0.94148  0.30389  0.01409  Biso   1.000  O
  H331     1.0000 0.48625  0.50068  0.02560  Biso   1.000  H
  C377     1.0000 0.47081  0.50882  0.00596  Biso   1.000  C
  H332     1.0000 0.66124  0.31754  0.00640  Biso   1.000  H
  C378     1.0000 0.57928  0.39578  0.99441  Biso   1.000  C
  H333     1.0000 0.98207  0.24809  0.99510  Biso   1.000  H
  C379     1.0000 0.04937  0.18778  0.97996  Biso   1.000  C
  O79      1.0000 0.30389  0.94148  0.98591  Biso   1.000  O
  O80      1.0000 0.26945  0.00307  0.96605  Biso   1.000  O
  H334     1.0000 0.12633  0.11140  0.96690  Biso   1.000  H
  C380     1.0000 0.95341  0.35970  0.03522  Biso   1.000  C
  C381     1.0000 0.89496  0.37170  0.02244  Biso   1.000  C
  C382     1.0000 0.39578  0.57928  0.00559  Biso   1.000  C
  C383     1.0000 0.50882  0.47081  0.99404  Biso   1.000  C
  B31      1.0000 0.61200  0.34134  0.98253  Biso   1.000  B
  O81      1.0000 0.00322  0.23737  0.97030  Biso   1.000  O
  C384     1.0000 0.37170  0.89496  0.97756  Biso   1.000  C
  C385     1.0000 0.35970  0.95341  0.96478  Biso   1.000  C
  C386     1.0000 0.02072  0.44180  0.03522  Biso   1.000  C
  H335     1.0000 0.91068  0.36041  0.04290  Biso   1.000  H
  H336     1.0000 0.82579  0.35634  0.02370  Biso   1.000  H
  C387     1.0000 0.90997  0.47588  0.01807  Biso   1.000  C
  B32      1.0000 0.34134  0.61200  0.01747  Biso   1.000  B
  C388     1.0000 0.36649  0.61429  0.99389  Biso   1.000  C
  C389     1.0000 0.47603  0.50954  0.98230  Biso   1.000  C
  O82      1.0000 0.66774  0.26024  0.98326  Biso   1.000  O
  O83      1.0000 0.58971  0.36399  0.97001  Biso   1.000  O
  C390     1.0000 0.93462  0.30704  0.97342  Biso   1.000  C
  H337     1.0000 0.35634  0.82579  0.97630  Biso   1.000  H
  C391     1.0000 0.47588  0.90997  0.98193  Biso   1.000  C
  H338     1.0000 0.36041  0.91068  0.95710  Biso   1.000  H
  C392     1.0000 0.44180  0.02072  0.96478  Biso   1.000  C
  C393     1.0000 0.00050  0.50539  0.02517  Biso   1.000  C
  C394     1.0000 0.09982  0.45259  0.04293  Biso   1.000  C
  C395     1.0000 0.91697  0.48560  0.00337  Biso   1.000  C
  C396     1.0000 0.82451  0.53533  0.02262  Biso   1.000  C
  O84      1.0000 0.26024  0.66774  0.01674  Biso   1.000  O
  O85      1.0000 0.36399  0.58971  0.02999  Biso   1.000  O
  C397     1.0000 0.40750  0.58192  0.98234  Biso   1.000  C
  H339     1.0000 0.31754  0.66124  0.99360  Biso   1.000  H
  H340     1.0000 0.50068  0.48625  0.97440  Biso   1.000  H
  C398     1.0000 0.66881  0.21672  0.97051  Biso   1.000  C
  C399     1.0000 0.63180  0.29639  0.96115  Biso   1.000  C
  C400     1.0000 0.89896  0.33991  0.96145  Biso   1.000  C
  H341     1.0000 0.96413  0.36013  0.97830  Biso   1.000  H
  H342     1.0000 0.88260  0.27903  0.97860  Biso   1.000  H
  C401     1.0000 0.48560  0.91697  0.99663  Biso   1.000  C
  C402     1.0000 0.53533  0.82451  0.97738  Biso   1.000  C
  C403     1.0000 0.50539  0.00050  0.97483  Biso   1.000  C
  C404     1.0000 0.45259  0.09982  0.95707  Biso   1.000  C
  C405     1.0000 0.05902  0.58328  0.02288  Biso   1.000  C
  C406     1.0000 0.15991  0.53112  0.04069  Biso   1.000  C
  H343     1.0000 0.11340  0.40822  0.04960  Biso   1.000  H
  H344     1.0000 0.85702  0.46438  0.99950  Biso   1.000  H
  H345     1.0000 0.96970  0.44602  0.00020  Biso   1.000  H
  H346     1.0000 0.92883  0.55248  0.00110  Biso   1.000  H
  H347     1.0000 0.81608  0.52669  0.03190  Biso   1.000  H
  H348     1.0000 0.76670  0.51418  0.01810  Biso   1.000  H
  H349     1.0000 0.83623  0.60293  0.02080  Biso   1.000  H
  C407     1.0000 0.21672  0.66881  0.02949  Biso   1.000  C
  C408     1.0000 0.29639  0.63180  0.03885  Biso   1.000  C
  O86      1.0000 0.37442  0.62415  0.97121  Biso   1.000  O
  C409     1.0000 0.59478  0.13941  0.96929  Biso   1.000  C
  H350     1.0000 0.73405  0.19350  0.96810  Biso   1.000  H
  H351     1.0000 0.68553  0.32583  0.95620  Biso   1.000  H
  C410     1.0000 0.55748  0.24937  0.95217  Biso   1.000  C
  C411     1.0000 0.86781  0.42172  0.95533  Biso   1.000  C
  O87      1.0000 0.87531  0.26231  0.95261  Biso   1.000  O
  H352     1.0000 0.44602  0.96970  0.99980  Biso   1.000  H
  H353     1.0000 0.55248  0.92883  0.99890  Biso   1.000  H
  H354     1.0000 0.46438  0.85702  0.00050  Biso   1.000  H
  H355     1.0000 0.52669  0.81608  0.96810  Biso   1.000  H
  H356     1.0000 0.51418  0.76670  0.98190  Biso   1.000  H
  H357     1.0000 0.60293  0.83623  0.97920  Biso   1.000  H
  C412     1.0000 0.58328  0.05902  0.97712  Biso   1.000  C
  C413     1.0000 0.53112  0.15991  0.95931  Biso   1.000  C
  H358     1.0000 0.40822  0.11340  0.95040  Biso   1.000  H
  H359     1.0000 0.04509  0.62751  0.01620  Biso   1.000  H
  C414     1.0000 0.13941  0.59478  0.03071  Biso   1.000  C
  C415     1.0000 0.24937  0.55748  0.04783  Biso   1.000  C
  H360     1.0000 0.19350  0.73405  0.03190  Biso   1.000  H
  H361     1.0000 0.32583  0.68553  0.04380  Biso   1.000  H
  C416     1.0000 0.41393  0.59028  0.95975  Biso   1.000  C
  C417     1.0000 0.47303  0.31661  0.94927  Biso   1.000  C
  C418     1.0000 0.60922  0.22258  0.93958  Biso   1.000  C
  C419     1.0000 0.83487  0.40021  0.94350  Biso   1.000  C
  H362     1.0000 0.86917  0.48410  0.95890  Biso   1.000  H
  N11      1.0000 0.83673  0.30232  0.94120  Biso   1.000  N
  H363     1.0000 0.62751  0.04509  0.98380  Biso   1.000  H
  C420     1.0000 0.31661  0.47303  0.05073  Biso   1.000  C
  C421     1.0000 0.22258  0.60922  0.06042  Biso   1.000  C
  C422     1.0000 0.36813  0.64252  0.94888  Biso   1.000  C
  H364     1.0000 0.40229  0.52083  0.95890  Biso   1.000  H
  H365     1.0000 0.48382  0.60129  0.95970  Biso   1.000  H
  H366     1.0000 0.42644  0.28332  0.94390  Biso   1.000  H
  H367     1.0000 0.49632  0.37349  0.94480  Biso   1.000  H
  H368     1.0000 0.44244  0.33569  0.95730  Biso   1.000  H
  H369     1.0000 0.66860  0.18850  0.94160  Biso   1.000  H
  H370     1.0000 0.62422  0.28089  0.93480  Biso   1.000  H
  H371     1.0000 0.56770  0.18149  0.93440  Biso   1.000  H
  C423     1.0000 0.79343  0.45938  0.93335  Biso   1.000  C
  H372     1.0000 0.28332  0.42644  0.05610  Biso   1.000  H
  H373     1.0000 0.37349  0.49632  0.05520  Biso   1.000  H
  H374     1.0000 0.33569  0.44244  0.04270  Biso   1.000  H
  H375     1.0000 0.18850  0.66860  0.05840  Biso   1.000  H
  H376     1.0000 0.28089  0.62422  0.06520  Biso   1.000  H
  H377     1.0000 0.18149  0.56770  0.06560  Biso   1.000  H
  C424     1.0000 0.30082  0.71154  0.94805  Biso   1.000  C
  O88      1.0000 0.39793  0.61543  0.93729  Biso   1.000  O
  C425     1.0000 0.72912  0.53812  0.93652  Biso   1.000  C
  C426     1.0000 0.81372  0.43973  0.92081  Biso   1.000  C
  C427     1.0000 0.29010  0.72662  0.93451  Biso   1.000  C
  H378     1.0000 0.26810  0.74269  0.95480  Biso   1.000  H
  N12      1.0000 0.34791  0.66952  0.92814  Biso   1.000  N
  C428     1.0000 0.68982  0.59243  0.92688  Biso   1.000  C
  H379     1.0000 0.71461  0.55191  0.94520  Biso   1.000  H
  H380     1.0000 0.85366  0.38700  0.91880  Biso   1.000  H
  C429     1.0000 0.77671  0.49582  0.91109  Biso   1.000  C
  C430     1.0000 0.22851  0.79371  0.92795  Biso   1.000  C
  C431     1.0000 0.71440  0.57185  0.91453  Biso   1.000  C
  B33      1.0000 0.62587  0.68160  0.93013  Biso   1.000  B
  B34      1.0000 0.81208  0.48010  0.89715  Biso   1.000  B
  C432     1.0000 0.22044  0.79243  0.91442  Biso   1.000  C
  C433     1.0000 0.17113  0.85831  0.93460  Biso   1.000  C
  H381     1.0000 0.68860  0.61043  0.90790  Biso   1.000  H
  O89      1.0000 0.60307  0.71068  0.94195  Biso   1.000  O
  O90      1.0000 0.59571  0.74234  0.92061  Biso   1.000  O
  O91      1.0000 0.77549  0.52304  0.88658  Biso   1.000  O
  O92      1.0000 0.88017  0.40872  0.89427  Biso   1.000  O
  C434     1.0000 0.15791  0.85002  0.90795  Biso   1.000  C
  H382     1.0000 0.25988  0.74998  0.90970  Biso   1.000  H
  H383     1.0000 0.17571  0.86181  0.94370  Biso   1.000  H
  C435     1.0000 0.10697  0.91804  0.92817  Biso   1.000  C
  C436     1.0000 0.56920  0.80722  0.94050  Biso   1.000  C
  C437     1.0000 0.54041  0.81965  0.92617  Biso   1.000  C
  C438     1.0000 0.84287  0.49854  0.87577  Biso   1.000  C
  C439     1.0000 0.89768  0.40943  0.88087  Biso   1.000  C
  C440     1.0000 0.10132  0.91311  0.91499  Biso   1.000  C
  B35      1.0000 0.14284  0.83873  0.89309  Biso   1.000  B
  B36      1.0000 0.03487  0.97592  0.93555  Biso   1.000  B
  H384     1.0000 0.51461  0.82122  0.94640  Biso   1.000  H
  C441     1.0000 0.65038  0.87953  0.94209  Biso   1.000  C
  H385     1.0000 0.47010  0.81165  0.92480  Biso   1.000  H
  C442     1.0000 0.57721  0.91833  0.92170  Biso   1.000  C
  H386     1.0000 0.80800  0.48474  0.86760  Biso   1.000  H
  C443     1.0000 0.91347  0.57363  0.87420  Biso   1.000  C
  H387     1.0000 0.87481  0.34934  0.87670  Biso   1.000  H
  C444     1.0000 0.99293  0.43323  0.87685  Biso   1.000  C
  H388     1.0000 0.05781  0.95363  0.91060  Biso   1.000  H
  O93      1.0000 0.18564  0.77163  0.88591  Biso   1.000  O
  O94      1.0000 0.07531  0.89353  0.88665  Biso   1.000  O
  O95      1.0000 0.95763  0.02151  0.92960  Biso   1.000  O
  O96      1.0000 0.03180  0.98299  0.94882  Biso   1.000  O
  C445     1.0000 0.65752  0.93519  0.93145  Biso   1.000  C
  C446     1.0000 0.71447  0.88410  0.95186  Biso   1.000  C
  C447     1.0000 0.60807  0.91690  0.90811  Biso   1.000  C
  C448     1.0000 0.49889  0.98942  0.92357  Biso   1.000  C
  C449     1.0000 0.89796  0.67038  0.87153  Biso   1.000  C
  C450     1.0000 0.00579  0.53612  0.87568  Biso   1.000  C
  C451     1.0000 0.06860  0.38964  0.88736  Biso   1.000  C
  C452     1.0000 0.01779  0.38299  0.86350  Biso   1.000  C
  C453     1.0000 0.13969  0.77342  0.87406  Biso   1.000  C
  C454     1.0000 0.07681  0.86045  0.87301  Biso   1.000  C
  C455     1.0000 0.89632  0.05631  0.93967  Biso   1.000  C
  C456     1.0000 0.94098  0.02901  0.95261  Biso   1.000  C
  C457     1.0000 0.73562  0.99971  0.92997  Biso   1.000  C
  C458     1.0000 0.79157  0.94491  0.95069  Biso   1.000  C
  H389     1.0000 0.70632  0.84630  0.95930  Biso   1.000  H
  H390     1.0000 0.63437  0.97949  0.90580  Biso   1.000  H
  H391     1.0000 0.55313  0.90261  0.90260  Biso   1.000  H
  H392     1.0000 0.65709  0.86774  0.90690  Biso   1.000  H
  H393     1.0000 0.48589  0.99671  0.93270  Biso   1.000  H
  H394     1.0000 0.44101  0.96713  0.91920  Biso   1.000  H
  H395     1.0000 0.51840  0.05109  0.92000  Biso   1.000  H
  C459     1.0000 0.97663  0.72962  0.87130  Biso   1.000  C
  H396     1.0000 0.83558  0.69439  0.86990  Biso   1.000  H
  C460     1.0000 0.08389  0.60014  0.87546  Biso   1.000  C
  H397     1.0000 0.08181  0.43773  0.89390  Biso   1.000  H
  H398     1.0000 0.12833  0.37228  0.88300  Biso   1.000  H
  H399     1.0000 0.04101  0.33262  0.89140  Biso   1.000  H
  H400     1.0000 0.97613  0.32747  0.86230  Biso   1.000  H
  H401     1.0000 0.08460  0.36220  0.86360  Biso   1.000  H
  H402     1.0000 0.00793  0.42858  0.85650  Biso   1.000  H
  C461     1.0000 0.06888  0.69325  0.87333  Biso   1.000  C
  H403     1.0000 0.18671  0.77042  0.86690  Biso   1.000  H
  C462     1.0000 0.97571  0.83158  0.86893  Biso   1.000  C
  H404     1.0000 0.10482  0.90975  0.86720  Biso   1.000  H
  C463     1.0000 0.80171  0.00100  0.93965  Biso   1.000  C
  H405     1.0000 0.88560  0.12683  0.93900  Biso   1.000  H
  C464     1.0000 0.87903  0.95706  0.95979  Biso   1.000  C
  H406     1.0000 0.95313  0.08703  0.95800  Biso   1.000  H
  H407     1.0000 0.74148  0.03973  0.92270  Biso   1.000  H
  H408     1.0000 0.14698  0.57699  0.87680  Biso   1.000  H
  C465     1.0000 0.89482  0.89132  0.87532  Biso   1.000  C
  C466     1.0000 0.96892  0.85180  0.85398  Biso   1.000  C
  C467     1.0000 0.92647  0.86195  0.96234  Biso   1.000  C
  C468     1.0000 0.84380  0.99821  0.97266  Biso   1.000  C
  H409     1.0000 0.83373  0.85802  0.87430  Biso   1.000  H
  H410     1.0000 0.89110  0.95420  0.87120  Biso   1.000  H
  H411     1.0000 0.90882  0.89939  0.88450  Biso   1.000  H
  H412     1.0000 0.97370  0.92069  0.85240  Biso   1.000  H
  H413     1.0000 0.90768  0.82822  0.85070  Biso   1.000  H
  H414     1.0000 0.02129  0.81901  0.84960  Biso   1.000  H
  H415     1.0000 0.98721  0.87238  0.96680  Biso   1.000  H
  H416     1.0000 0.93862  0.82922  0.95420  Biso   1.000  H
  H417     1.0000 0.88453  0.82244  0.96770  Biso   1.000  H
  H418     1.0000 0.79450  0.95620  0.97620  Biso   1.000  H
  H419     1.0000 0.81701  0.06202  0.97130  Biso   1.000  H
  H420     1.0000 0.89761  0.00250  0.97860  Biso   1.000  H
  C469     1.0000 0.88303  0.48224  0.61350  Biso   1.000  C
  C470     1.0000 0.93319  0.50711  0.62685  Biso   1.000  C
  H421     1.0000 0.82751  0.52390  0.61230  Biso   1.000  H
  H422     1.0000 0.86224  0.41543  0.61360  Biso   1.000  H
  H423     1.0000 0.92862  0.49210  0.60650  Biso   1.000  H
  C471     1.0000 0.90940  0.60229  0.63087  Biso   1.000  C
  C472     1.0000 0.88960  0.43144  0.63736  Biso   1.000  C
  C473     1.0000 0.03616  0.49418  0.62568  Biso   1.000  C
  C474     1.0000 0.99850  0.65709  0.62577  Biso   1.000  C
  H424     1.0000 0.84930  0.62522  0.62670  Biso   1.000  H
  O97      1.0000 0.90875  0.61979  0.64427  Biso   1.000  O
  H425     1.0000 0.93769  0.41822  0.64390  Biso   1.000  H
  H426     1.0000 0.87231  0.37170  0.63300  Biso   1.000  H
  H427     1.0000 0.83258  0.45902  0.64140  Biso   1.000  H
  C475     1.0000 0.10011  0.41608  0.62546  Biso   1.000  C
  C476     1.0000 0.07360  0.58650  0.62420  Biso   1.000  C
  H428     1.0000 0.98471  0.69203  0.61760  Biso   1.000  H
  O98      1.0000 0.02301  0.72454  0.63658  Biso   1.000  O
  B37      1.0000 0.98014  0.68789  0.64715  Biso   1.000  B
  H429     1.0000 0.07703  0.35298  0.62680  Biso   1.000  H
  C477     1.0000 0.19321  0.43108  0.62333  Biso   1.000  C
  C478     1.0000 0.17042  0.60200  0.62153  Biso   1.000  C
  C479     1.0000 0.99586  0.72333  0.66109  Biso   1.000  C
  C480     1.0000 0.27345  0.36034  0.62406  Biso   1.000  C
  C481     1.0000 0.22965  0.52340  0.62130  Biso   1.000  C
  H430     1.0000 0.19443  0.66438  0.61990  Biso   1.000  H
  C482     1.0000 0.93969  0.68632  0.67081  Biso   1.000  C
  C483     1.0000 0.07181  0.78564  0.66453  Biso   1.000  C
  H431     1.0000 0.27045  0.31333  0.61690  Biso   1.000  H
  C484     1.0000 0.36041  0.42322  0.62301  Biso   1.000  C
  O99      1.0000 0.27160  0.31440  0.63591  Biso   1.000  O
  C485     1.0000 0.33162  0.52433  0.61893  Biso   1.000  C
  C486     1.0000 0.95941  0.70661  0.68335  Biso   1.000  C
  H432     1.0000 0.88703  0.64630  0.66880  Biso   1.000  H
  H433     1.0000 0.11040  0.81143  0.65790  Biso   1.000  H
  C487     1.0000 0.09239  0.81022  0.67688  Biso   1.000  C
  H434     1.0000 0.40972  0.39521  0.61720  Biso   1.000  H
  O100     1.0000 0.39350  0.42472  0.63665  Biso   1.000  O
  B38      1.0000 0.33876  0.35720  0.64309  Biso   1.000  B
  C488     1.0000 0.39135  0.60522  0.62532  Biso   1.000  C
  C489     1.0000 0.35184  0.53112  0.60398  Biso   1.000  C
  C490     1.0000 0.90025  0.66509  0.69350  Biso   1.000  C
  C491     1.0000 0.03816  0.77092  0.68652  Biso   1.000  C
  B39      1.0000 0.18164  0.87410  0.68013  Biso   1.000  B
  C492     1.0000 0.35005  0.34212  0.65795  Biso   1.000  C
  H435     1.0000 0.35806  0.66631  0.62430  Biso   1.000  H
  H436     1.0000 0.45423  0.60893  0.62120  Biso   1.000  H
  H437     1.0000 0.39943  0.59121  0.63450  Biso   1.000  H
  H438     1.0000 0.31904  0.47874  0.59960  Biso   1.000  H
  H439     1.0000 0.42072  0.52633  0.60240  Biso   1.000  H
  H440     1.0000 0.32826  0.59228  0.60070  Biso   1.000  H
  C493     1.0000 0.92169  0.63223  0.70533  Biso   1.000  C
  N13      1.0000 0.80229  0.66331  0.69120  Biso   1.000  N
  H441     1.0000 0.05195  0.78542  0.69520  Biso   1.000  H
  O101     1.0000 0.21072  0.89689  0.69195  Biso   1.000  O
  O102     1.0000 0.24230  0.90432  0.67061  Biso   1.000  O
  C494     1.0000 0.41315  0.39871  0.66499  Biso   1.000  C
  C495     1.0000 0.29246  0.27960  0.66442  Biso   1.000  C
  H442     1.0000 0.98414  0.63080  0.70890  Biso   1.000  H
  C496     1.0000 0.83994  0.60100  0.71145  Biso   1.000  C
  O103     1.0000 0.76234  0.62472  0.70261  Biso   1.000  O
  C497     1.0000 0.30725  0.93083  0.69050  Biso   1.000  C
  C498     1.0000 0.31961  0.95963  0.67617  Biso   1.000  C
  H443     1.0000 0.45366  0.44223  0.66060  Biso   1.000  H
  C499     1.0000 0.41801  0.39300  0.67817  Biso   1.000  C
  H444     1.0000 0.25002  0.24009  0.65970  Biso   1.000  H
  C500     1.0000 0.29375  0.27153  0.67795  Biso   1.000  C
  C501     1.0000 0.80700  0.56542  0.72342  Biso   1.000  C
  H445     1.0000 0.32126  0.98542  0.69640  Biso   1.000  H
  C502     1.0000 0.37956  0.84959  0.69209  Biso   1.000  C
  C503     1.0000 0.41836  0.92283  0.67170  Biso   1.000  C
  H446     1.0000 0.31161  0.02994  0.67480  Biso   1.000  H
  C504     1.0000 0.35834  0.32890  0.68460  Biso   1.000  C
  B40      1.0000 0.47596  0.46509  0.68555  Biso   1.000  B
  C505     1.0000 0.22665  0.20993  0.68451  Biso   1.000  C
  H447     1.0000 0.86009  0.53591  0.72830  Biso   1.000  H
  H448     1.0000 0.77899  0.61743  0.72860  Biso   1.000  H
  O104     1.0000 0.73741  0.49682  0.72030  Biso   1.000  O
  C506     1.0000 0.43523  0.84252  0.68145  Biso   1.000  C
  C507     1.0000 0.38414  0.78549  0.70186  Biso   1.000  C
  C508     1.0000 0.41693  0.89189  0.65811  Biso   1.000  C
  C509     1.0000 0.48946  0.00114  0.67357  Biso   1.000  C
  H449     1.0000 0.36184  0.32433  0.69370  Biso   1.000  H
  O105     1.0000 0.52154  0.54241  0.67960  Biso   1.000  O
  O106     1.0000 0.48303  0.46824  0.69882  Biso   1.000  O
  C510     1.0000 0.21150  0.19921  0.69805  Biso   1.000  C
  N14      1.0000 0.16956  0.15213  0.67814  Biso   1.000  N
  C511     1.0000 0.68782  0.45059  0.72996  Biso   1.000  C
  C512     1.0000 0.49975  0.76442  0.67997  Biso   1.000  C
  C513     1.0000 0.44494  0.70840  0.70069  Biso   1.000  C
  H450     1.0000 0.34634  0.79371  0.70930  Biso   1.000  H
  H451     1.0000 0.47953  0.86559  0.65580  Biso   1.000  H
  H452     1.0000 0.40264  0.94691  0.65260  Biso   1.000  H
  H453     1.0000 0.36770  0.84294  0.65690  Biso   1.000  H
  H454     1.0000 0.55113  0.98164  0.67000  Biso   1.000  H
  H455     1.0000 0.49675  0.01415  0.68270  Biso   1.000  H
  H456     1.0000 0.46717  0.05902  0.66920  Biso   1.000  H
  C514     1.0000 0.55634  0.60372  0.68967  Biso   1.000  C
  C515     1.0000 0.52905  0.55899  0.70261  Biso   1.000  C
  H457     1.0000 0.24273  0.23194  0.70480  Biso   1.000  H
  C516     1.0000 0.14255  0.13190  0.69888  Biso   1.000  C
  O107     1.0000 0.11540  0.10211  0.68729  Biso   1.000  O
  C517     1.0000 0.70332  0.47053  0.74262  Biso   1.000  C
  C518     1.0000 0.62022  0.38392  0.72579  Biso   1.000  C
  H458     1.0000 0.53976  0.75849  0.67270  Biso   1.000  H
  C519     1.0000 0.50104  0.69832  0.68965  Biso   1.000  C
  C520     1.0000 0.45702  0.62101  0.70979  Biso   1.000  C
  H459     1.0000 0.62687  0.61443  0.68900  Biso   1.000  H
  H460     1.0000 0.58707  0.54691  0.70800  Biso   1.000  H
  C521     1.0000 0.09032  0.08610  0.70975  Biso   1.000  C
  H461     1.0000 0.74812  0.51790  0.74510  Biso   1.000  H
  C522     1.0000 0.64980  0.41772  0.75203  Biso   1.000  C
  C523     1.0000 0.56599  0.33283  0.73447  Biso   1.000  C
  H462     1.0000 0.61143  0.37370  0.71690  Biso   1.000  H
  C524     1.0000 0.36191  0.57349  0.71234  Biso   1.000  C
  C525     1.0000 0.49825  0.65623  0.72266  Biso   1.000  C
  H463     1.0000 0.02079  0.09768  0.70890  Biso   1.000  H
  H464     1.0000 0.10132  0.01622  0.70970  Biso   1.000  H
  O108     1.0000 0.12419  0.12554  0.72121  Biso   1.000  O
  C526     1.0000 0.66724  0.43401  0.76553  Biso   1.000  C
  C527     1.0000 0.58228  0.35020  0.74797  Biso   1.000  C
  B41      1.0000 0.49989  0.25338  0.72891  Biso   1.000  B
  H465     1.0000 0.37242  0.51283  0.71680  Biso   1.000  H
  H466     1.0000 0.32926  0.56141  0.70420  Biso   1.000  H
  H467     1.0000 0.32240  0.61551  0.71770  Biso   1.000  H
  H468     1.0000 0.45623  0.70554  0.72620  Biso   1.000  H
  H469     1.0000 0.56206  0.68303  0.72130  Biso   1.000  H
  H470     1.0000 0.50254  0.60243  0.72860  Biso   1.000  H
  C528     1.0000 0.08196  0.09253  0.73234  Biso   1.000  C
  C529     1.0000 0.61615  0.37978  0.77421  Biso   1.000  C
  B42      1.0000 0.74662  0.50011  0.77109  Biso   1.000  B
  C530     1.0000 0.52955  0.29668  0.75738  Biso   1.000  C
  O109     1.0000 0.50304  0.23058  0.71605  Biso   1.000  O
  O110     1.0000 0.44144  0.19607  0.73591  Biso   1.000  O
  C531     1.0000 0.00950  0.02401  0.73230  Biso   1.000  C
  C532     1.0000 0.11433  0.13348  0.74389  Biso   1.000  C
  H471     1.0000 0.62630  0.38864  0.78310  Biso   1.000  H
  C533     1.0000 0.54941  0.31218  0.77004  Biso   1.000  C
  O111     1.0000 0.76949  0.49696  0.78395  Biso   1.000  O
  O112     1.0000 0.80393  0.55856  0.76409  Biso   1.000  O
  H472     1.0000 0.48210  0.25188  0.75490  Biso   1.000  H
  C534     1.0000 0.45338  0.14034  0.71478  Biso   1.000  C
  C535     1.0000 0.39500  0.12833  0.72756  Biso   1.000  C
  H473     1.0000 0.98621  0.99929  0.72440  Biso   1.000  H
  C536     1.0000 0.97085  0.99121  0.74404  Biso   1.000  C
  C537     1.0000 0.07931  0.10418  0.75559  Biso   1.000  C
  H474     1.0000 0.16120  0.18249  0.74360  Biso   1.000  H
  O113     1.0000 0.50318  0.26259  0.77970  Biso   1.000  O
  C538     1.0000 0.85974  0.54662  0.78522  Biso   1.000  C
  C539     1.0000 0.87174  0.60500  0.77244  Biso   1.000  C
  H475     1.0000 0.41072  0.13962  0.70710  Biso   1.000  H
  C540     1.0000 0.52069  0.05824  0.71478  Biso   1.000  C
  H476     1.0000 0.32583  0.14369  0.72630  Biso   1.000  H
  C541     1.0000 0.41000  0.02408  0.73193  Biso   1.000  C
  C542     1.0000 0.89582  0.92069  0.74441  Biso   1.000  C
  C543     1.0000 0.00879  0.02922  0.75596  Biso   1.000  C
  B43      1.0000 0.11204  0.15870  0.76747  Biso   1.000  B
  C544     1.0000 0.43458  0.19300  0.77658  Biso   1.000  C
  H477     1.0000 0.86045  0.58928  0.79290  Biso   1.000  H
  C545     1.0000 0.94184  0.47931  0.78522  Biso   1.000  C
  H478     1.0000 0.85631  0.67424  0.77370  Biso   1.000  H
  C546     1.0000 0.97592  0.59000  0.76807  Biso   1.000  C
  C547     1.0000 0.59979  0.04737  0.70707  Biso   1.000  C
  C548     1.0000 0.50054  0.99457  0.72483  Biso   1.000  C
  C549     1.0000 0.41701  0.01443  0.74663  Biso   1.000  C
  C550     1.0000 0.32447  0.96470  0.72738  Biso   1.000  C
  C551     1.0000 0.86652  0.88567  0.75611  Biso   1.000  C
  B44      1.0000 0.84130  0.88803  0.73253  Biso   1.000  B
  C552     1.0000 0.97599  0.99050  0.76770  Biso   1.000  C
  O114     1.0000 0.16777  0.23973  0.76674  Biso   1.000  O
  O115     1.0000 0.08967  0.13605  0.77999  Biso   1.000  O
  C553     1.0000 0.39900  0.16013  0.78855  Biso   1.000  C
  H479     1.0000 0.46409  0.13991  0.77170  Biso   1.000  H
  H480     1.0000 0.38264  0.22101  0.77140  Biso   1.000  H
  C554     1.0000 0.95263  0.40021  0.79293  Biso   1.000  C
  C555     1.0000 0.00543  0.49954  0.77517  Biso   1.000  C
  C556     1.0000 0.98564  0.58299  0.75337  Biso   1.000  C
  C557     1.0000 0.03530  0.67553  0.77262  Biso   1.000  C
  H481     1.0000 0.61343  0.09182  0.70040  Biso   1.000  H
  C558     1.0000 0.65988  0.96892  0.70931  Biso   1.000  C
  C559     1.0000 0.55899  0.91668  0.72712  Biso   1.000  C
  H482     1.0000 0.35698  0.03558  0.75050  Biso   1.000  H
  H483     1.0000 0.46974  0.05402  0.74980  Biso   1.000  H
  H484     1.0000 0.42880  0.94748  0.74890  Biso   1.000  H
  H485     1.0000 0.31611  0.97328  0.71810  Biso   1.000  H
  H486     1.0000 0.26674  0.98578  0.73190  Biso   1.000  H
  H487     1.0000 0.33619  0.89711  0.72920  Biso   1.000  H
  C560     1.0000 0.90754  0.91811  0.76766  Biso   1.000  C
  H488     1.0000 0.81751  0.83880  0.75640  Biso   1.000  H
  O116     1.0000 0.76027  0.83230  0.73326  Biso   1.000  O
  O117     1.0000 0.86402  0.91033  0.72001  Biso   1.000  O
  H489     1.0000 0.00071  0.01379  0.77560  Biso   1.000  H
  C561     1.0000 0.16885  0.28332  0.77949  Biso   1.000  C
  C562     1.0000 0.13183  0.20357  0.78885  Biso   1.000  C
  C563     1.0000 0.36777  0.07831  0.79467  Biso   1.000  C
  O118     1.0000 0.37528  0.23773  0.79739  Biso   1.000  O
  H490     1.0000 0.90825  0.38664  0.79960  Biso   1.000  H
  C564     1.0000 0.03115  0.34012  0.79069  Biso   1.000  C
  C565     1.0000 0.08332  0.44101  0.77288  Biso   1.000  C
  H491     1.0000 0.96442  0.64302  0.74950  Biso   1.000  H
  H492     1.0000 0.94605  0.53033  0.75020  Biso   1.000  H
  H493     1.0000 0.05252  0.57120  0.75110  Biso   1.000  H
  H494     1.0000 0.02672  0.68389  0.78190  Biso   1.000  H
  H495     1.0000 0.01422  0.73333  0.76810  Biso   1.000  H
  H496     1.0000 0.10289  0.66381  0.77080  Biso   1.000  H
  C566     1.0000 0.63944  0.90518  0.71929  Biso   1.000  C
  C567     1.0000 0.74941  0.94248  0.70217  Biso   1.000  C
  H497     1.0000 0.54512  0.87253  0.73380  Biso   1.000  H
  O119     1.0000 0.87446  0.87588  0.77879  Biso   1.000  O
  C568     1.0000 0.71668  0.83123  0.72051  Biso   1.000  C
  C569     1.0000 0.79643  0.86817  0.71115  Biso   1.000  C
  C570     1.0000 0.09482  0.36063  0.78071  Biso   1.000  C
  H498     1.0000 0.23401  0.30654  0.78190  Biso   1.000  H
  H499     1.0000 0.18549  0.17421  0.79380  Biso   1.000  H
  C571     1.0000 0.05752  0.25059  0.79783  Biso   1.000  C
  C572     1.0000 0.33491  0.09982  0.80650  Biso   1.000  C
  H500     1.0000 0.36920  0.01593  0.79110  Biso   1.000  H
  N15      1.0000 0.33669  0.19771  0.80880  Biso   1.000  N
  H501     1.0000 0.12755  0.45488  0.76620  Biso   1.000  H
  C573     1.0000 0.81665  0.02701  0.69927  Biso   1.000  C
  C574     1.0000 0.72262  0.89082  0.68958  Biso   1.000  C
  C575     1.0000 0.91390  0.90968  0.79025  Biso   1.000  C
  H502     1.0000 0.69353  0.76599  0.71810  Biso   1.000  H
  H503     1.0000 0.82579  0.81451  0.70620  Biso   1.000  H
  C576     1.0000 0.97299  0.18342  0.80073  Biso   1.000  C
  C577     1.0000 0.10925  0.27738  0.81042  Biso   1.000  C
  C578     1.0000 0.29339  0.04059  0.81665  Biso   1.000  C
  H504     1.0000 0.78335  0.07360  0.69390  Biso   1.000  H
  H505     1.0000 0.87353  0.00372  0.69480  Biso   1.000  H
  H506     1.0000 0.83573  0.05759  0.70730  Biso   1.000  H
  H507     1.0000 0.68853  0.83137  0.69160  Biso   1.000  H
  H508     1.0000 0.78092  0.87581  0.68480  Biso   1.000  H
  H509     1.0000 0.68153  0.93233  0.68440  Biso   1.000  H
  C579     1.0000 0.86810  0.85752  0.80112  Biso   1.000  C
  H510     1.0000 0.90232  0.97921  0.79110  Biso   1.000  H
  H511     1.0000 0.98385  0.89868  0.79030  Biso   1.000  H
  H512     1.0000 0.92640  0.21672  0.80610  Biso   1.000  H
  H513     1.0000 0.99636  0.12647  0.80520  Biso   1.000  H
  H514     1.0000 0.94241  0.16427  0.79270  Biso   1.000  H
  H515     1.0000 0.16863  0.31154  0.80840  Biso   1.000  H
  H516     1.0000 0.12426  0.21908  0.81520  Biso   1.000  H
  H517     1.0000 0.06774  0.31854  0.81560  Biso   1.000  H
  C580     1.0000 0.31368  0.06031  0.82919  Biso   1.000  C
  C581     1.0000 0.22908  0.96191  0.81348  Biso   1.000  C
  C582     1.0000 0.80079  0.78850  0.80195  Biso   1.000  C
  O120     1.0000 0.89789  0.88460  0.81271  Biso   1.000  O
  H518     1.0000 0.35370  0.11297  0.83120  Biso   1.000  H
  C583     1.0000 0.27667  0.00422  0.83891  Biso   1.000  C
  C584     1.0000 0.18978  0.90761  0.82312  Biso   1.000  C
  H519     1.0000 0.21458  0.94812  0.80480  Biso   1.000  H
  C585     1.0000 0.79014  0.77342  0.81549  Biso   1.000  C
  H520     1.0000 0.76813  0.75727  0.79520  Biso   1.000  H
  N16      1.0000 0.84795  0.83051  0.82186  Biso   1.000  N
  B45      1.0000 0.31211  0.01994  0.85285  Biso   1.000  B
  C586     1.0000 0.21443  0.92819  0.83547  Biso   1.000  C
  B46      1.0000 0.12590  0.81836  0.81987  Biso   1.000  B
  C587     1.0000 0.72855  0.70632  0.82205  Biso   1.000  C
  O121     1.0000 0.38021  0.09132  0.85573  Biso   1.000  O
  O122     1.0000 0.27553  0.97699  0.86342  Biso   1.000  O
  H521     1.0000 0.18864  0.88960  0.84210  Biso   1.000  H
  O123     1.0000 0.10311  0.78928  0.80805  Biso   1.000  O
  O124     1.0000 0.09568  0.75770  0.82939  Biso   1.000  O
  C588     1.0000 0.72040  0.70761  0.83558  Biso   1.000  C
  C589     1.0000 0.67110  0.64166  0.81540  Biso   1.000  C
  C590     1.0000 0.39771  0.09060  0.86913  Biso   1.000  C
  C591     1.0000 0.34291  0.00150  0.87423  Biso   1.000  C
  C592     1.0000 0.06917  0.69282  0.80950  Biso   1.000  C
  C593     1.0000 0.04037  0.68039  0.82383  Biso   1.000  C
  C594     1.0000 0.65795  0.65002  0.84205  Biso   1.000  C
  H522     1.0000 0.75991  0.74998  0.84030  Biso   1.000  H
  H523     1.0000 0.67574  0.63823  0.80630  Biso   1.000  H
  C595     1.0000 0.60700  0.58199  0.82183  Biso   1.000  C
  H524     1.0000 0.37478  0.15070  0.87330  Biso   1.000  H
  C596     1.0000 0.49289  0.06681  0.87315  Biso   1.000  C
  H525     1.0000 0.30804  0.01529  0.88240  Biso   1.000  H
  C597     1.0000 0.41350  0.92640  0.87580  Biso   1.000  C
  H526     1.0000 0.01458  0.67881  0.80360  Biso   1.000  H
  C598     1.0000 0.15041  0.62051  0.80791  Biso   1.000  C
  H527     1.0000 0.97013  0.68839  0.82520  Biso   1.000  H
  C599     1.0000 0.07717  0.58171  0.82830  Biso   1.000  C
  C600     1.0000 0.60129  0.58692  0.83501  Biso   1.000  C
  B47      1.0000 0.64280  0.66131  0.85691  Biso   1.000  B
  B48      1.0000 0.53491  0.52412  0.81445  Biso   1.000  B
  C601     1.0000 0.56863  0.11040  0.86264  Biso   1.000  C
  C602     1.0000 0.51783  0.11697  0.88650  Biso   1.000  C
  C603     1.0000 0.50582  0.96392  0.87432  Biso   1.000  C
  C604     1.0000 0.39800  0.82958  0.87847  Biso   1.000  C
  C605     1.0000 0.15748  0.56477  0.81855  Biso   1.000  C
  C606     1.0000 0.21451  0.61586  0.79814  Biso   1.000  C
  C607     1.0000 0.99893  0.51061  0.82643  Biso   1.000  C
  C608     1.0000 0.10811  0.58307  0.84189  Biso   1.000  C
  H528     1.0000 0.55784  0.54641  0.83940  Biso   1.000  H
  O125     1.0000 0.68560  0.72840  0.86409  Biso   1.000  O
  O126     1.0000 0.57528  0.60650  0.86335  Biso   1.000  O
  O127     1.0000 0.45759  0.47846  0.82040  Biso   1.000  O
  O128     1.0000 0.53176  0.51697  0.80118  Biso   1.000  O
  H529     1.0000 0.58178  0.06231  0.85610  Biso   1.000  H
  H530     1.0000 0.62830  0.12769  0.86700  Biso   1.000  H
  H531     1.0000 0.54098  0.16742  0.85860  Biso   1.000  H
  H532     1.0000 0.47610  0.17249  0.88770  Biso   1.000  H
  H533     1.0000 0.58464  0.13783  0.88640  Biso   1.000  H
  H534     1.0000 0.50790  0.07138  0.89350  Biso   1.000  H
  C609     1.0000 0.58392  0.89989  0.87454  Biso   1.000  C
  C610     1.0000 0.47660  0.77042  0.87870  Biso   1.000  C
  H535     1.0000 0.33562  0.80557  0.88010  Biso   1.000  H
  C611     1.0000 0.23558  0.50032  0.82003  Biso   1.000  C
  C612     1.0000 0.29160  0.55506  0.79931  Biso   1.000  C
  H536     1.0000 0.20629  0.65366  0.79070  Biso   1.000  H
  H537     1.0000 0.98592  0.50332  0.81730  Biso   1.000  H
  H538     1.0000 0.94098  0.53290  0.83080  Biso   1.000  H
  H539     1.0000 0.01844  0.44887  0.83000  Biso   1.000  H
  H540     1.0000 0.13441  0.52047  0.84420  Biso   1.000  H
  H541     1.0000 0.05309  0.59736  0.84740  Biso   1.000  H
  H542     1.0000 0.15713  0.63230  0.84310  Biso   1.000  H
  C613     1.0000 0.63973  0.72662  0.87594  Biso   1.000  C
  C614     1.0000 0.57678  0.63959  0.87699  Biso   1.000  C
  C615     1.0000 0.39628  0.44366  0.81033  Biso   1.000  C
  C616     1.0000 0.44101  0.47095  0.79739  Biso   1.000  C
  H543     1.0000 0.64702  0.92297  0.87320  Biso   1.000  H
  C617     1.0000 0.56892  0.80679  0.87667  Biso   1.000  C
  C618     1.0000 0.47574  0.66838  0.88107  Biso   1.000  C
  H544     1.0000 0.24151  0.46031  0.82730  Biso   1.000  H
  C619     1.0000 0.30168  0.49896  0.81035  Biso   1.000  C
  C620     1.0000 0.37899  0.54298  0.79021  Biso   1.000  C
  H545     1.0000 0.68675  0.72962  0.88310  Biso   1.000  H
  H546     1.0000 0.60479  0.59028  0.88280  Biso   1.000  H
  H547     1.0000 0.38564  0.37320  0.81100  Biso   1.000  H
  H548     1.0000 0.45309  0.41300  0.79200  Biso   1.000  H
  C621     1.0000 0.39478  0.60872  0.87468  Biso   1.000  C
  C622     1.0000 0.46888  0.64816  0.89602  Biso   1.000  C
  C623     1.0000 0.42651  0.63809  0.78766  Biso   1.000  C
  C624     1.0000 0.34384  0.50182  0.77734  Biso   1.000  C
  H549     1.0000 0.33369  0.64202  0.87570  Biso   1.000  H
  H550     1.0000 0.39114  0.54577  0.87880  Biso   1.000  H
  H551     1.0000 0.40879  0.60057  0.86550  Biso   1.000  H
  H552     1.0000 0.52133  0.68096  0.90040  Biso   1.000  H
  H553     1.0000 0.47374  0.57928  0.89760  Biso   1.000  H
  H554     1.0000 0.40772  0.67181  0.89930  Biso   1.000  H
  H555     1.0000 0.48725  0.62758  0.78320  Biso   1.000  H
  H556     1.0000 0.43859  0.67081  0.79580  Biso   1.000  H
  H557     1.0000 0.38449  0.67760  0.78230  Biso   1.000  H
  H558     1.0000 0.29453  0.54377  0.77380  Biso   1.000  H
  H559     1.0000 0.31704  0.43801  0.77870  Biso   1.000  H
  H560     1.0000 0.39764  0.49746  0.77140  Biso   1.000  H
  Ne1      1.0000 0.18697  0.81305  0.25000  Biso   1.000  Ne
  He1      1.0000 0.32460  0.90036  0.30608  Biso   1.000  He
  He2      1.0000 0.41065  0.08110  0.27756  Biso   1.000  He
  He3      1.0000 0.00000  0.00000  0.00000  Biso   1.000  He
  He4      1.0000 0.73656  0.38901  0.16971  Biso   1.000  He
  He5      1.0000 0.11885  0.72349  0.21650  Biso   1.000  He
  Ar1      1.0000 0.19698  0.80308  0.25002  Biso   1.000  Ar
  Ne2      1.0000 0.31304  0.31304  0.00000  Biso   1.000  Ne
  He6      1.0000 0.38107  0.22414  0.03315  Biso   1.000  He
  He7      1.0000 0.76233  0.89002  0.08018  Biso   1.000  He
  He8      1.0000 0.00000  0.00000  0.00000  Biso   1.000  He
  He9      1.0000 0.08834  0.58286  0.97263  Biso   1.000  He
  He10     1.0000 0.17546  0.40033  0.94397  Biso   1.000  He
  Ar2      1.0000 0.30204  0.30384  0.99959  Biso   1.000  Ar
  Ne3      1.0000 0.68698  0.68698  0.50000  Biso   1.000  Ne
  He11     1.0000 0.59996  0.82539  0.55671  Biso   1.000  He
  He12     1.0000 0.32777  0.91172  0.51806  Biso   1.000  He
  He13     1.0000 0.85842  0.48966  0.47751  Biso   1.000  He
  He14     1.0000 0.89461  0.49928  0.42671  Biso   1.000  He
  He15     1.0000 0.00000  0.00000  0.00000  Biso   1.000  He
  He16     1.0000 0.77742  0.61883  0.46598  Biso   1.000  He
  Ar3      1.0000 0.69705  0.69705  0.49962  Biso   1.000  Ar
  Ne4      1.0000 0.81305  0.18697  0.75000  Biso   1.000  Ne
  He17     1.0000 0.72314  0.11883  0.78371  Biso   1.000  He
  He18     1.0000 0.00000  0.00000  0.00000  Biso   1.000  He
  He19     1.0000 0.63549  0.99907  0.78586  Biso   1.000  He
  He20     1.0000 0.46220  0.14682  0.75721  Biso   1.000  He
  He21     1.0000 0.15300  0.40915  0.72927  Biso   1.000  He
  He22     1.0000 0.90009  0.32533  0.69331  Biso   1.000  He
  Ar4      1.0000 0.80304  0.19694  0.74999  Biso   1.000  Ar
