data_image0
_cell_length_a       13.758
_cell_length_b       24.342
_cell_length_c       30.737
_cell_angle_alpha    90
_cell_angle_beta     90
_cell_angle_gamma    90

_symmetry_space_group_name_H-M    "P 1"
_symmetry_int_tables_number       1

loop_
  _symmetry_equiv_pos_as_xyz
  'x, y, z'

loop_
  _atom_site_label
  _atom_site_occupancy
  _atom_site_fract_x
  _atom_site_fract_y
  _atom_site_fract_z
  _atom_site_thermal_displace_type
  _atom_site_B_iso_or_equiv
  _atom_site_type_symbol
  C1       1.0000 0.20788  0.46221  0.43241  Biso   1.000  C
  C2       1.0000 0.23237  0.42852  0.39269  Biso   1.000  C
  C3       1.0000 0.14094  0.50859  0.41771  Biso   1.000  C
  H1       1.0000 0.26872  0.47798  0.44510  Biso   1.000  H
  O1       1.0000 0.15809  0.43061  0.46481  Biso   1.000  O
  O2       1.0000 0.30302  0.38920  0.40755  Biso   1.000  O
  H2       1.0000 0.17314  0.40942  0.38149  Biso   1.000  H
  C4       1.0000 0.27577  0.46541  0.35791  Biso   1.000  C
  C5       1.0000 0.18498  0.54141  0.38289  Biso   1.000  C
  H3       1.0000 0.07901  0.49232  0.40661  Biso   1.000  H
  O3       1.0000 0.11811  0.54461  0.45470  Biso   1.000  O
  C6       1.0000 0.28478  0.33379  0.39831  Biso   1.000  C
  H4       1.0000 0.33828  0.48090  0.36900  Biso   1.000  H
  C7       1.0000 0.29619  0.43328  0.31610  Biso   1.000  C
  O4       1.0000 0.21362  0.50850  0.34789  Biso   1.000  O
  O5       1.0000 0.26879  0.57000  0.39975  Biso   1.000  O
  H5       1.0000 0.13650  0.56902  0.37239  Biso   1.000  H
  O6       1.0000 0.34613  0.31439  0.36549  Biso   1.000  O
  C8       1.0000 0.30753  0.30302  0.44051  Biso   1.000  C
  H6       1.0000 0.21507  0.32849  0.38999  Biso   1.000  H
  O7       1.0000 0.38072  0.44618  0.29411  Biso   1.000  O
  O8       1.0000 0.20788  0.42338  0.29739  Biso   1.000  O
  C9       1.0000 0.27998  0.62752  0.39161  Biso   1.000  C
  C10      1.0000 0.44658  0.32298  0.37330  Biso   1.000  C
  C11      1.0000 0.40660  0.31201  0.45248  Biso   1.000  C
  H7       1.0000 0.29692  0.26280  0.43579  Biso   1.000  H
  O9       1.0000 0.24270  0.32191  0.47350  Biso   1.000  O
  C12      1.0000 0.30549  0.65262  0.43440  Biso   1.000  C
  H8       1.0000 0.21667  0.64300  0.38120  Biso   1.000  H
  C13      1.0000 0.35732  0.63610  0.35670  Biso   1.000  C
  C14      1.0000 0.49760  0.29591  0.33481  Biso   1.000  C
  C15      1.0000 0.48001  0.29591  0.41731  Biso   1.000  C
  H9       1.0000 0.46111  0.36328  0.37369  Biso   1.000  H
  H10      1.0000 0.41503  0.35198  0.45880  Biso   1.000  H
  O10      1.0000 0.43618  0.28190  0.49048  Biso   1.000  O
  C16      1.0000 0.34053  0.71001  0.42919  Biso   1.000  C
  H11      1.0000 0.35928  0.63052  0.44751  Biso   1.000  H
  O11      1.0000 0.22409  0.64929  0.46257  Biso   1.000  O
  H12      1.0000 0.41518  0.61260  0.36341  Biso   1.000  H
  C17      1.0000 0.31967  0.62230  0.31239  Biso   1.000  C
  O12      1.0000 0.38610  0.69300  0.35602  Biso   1.000  O
  O13      1.0000 0.46322  0.24180  0.32739  Biso   1.000  O
  O14      1.0000 0.51090  0.23462  0.33930  Biso   1.000  O
  H13      1.0000 0.48437  0.25511  0.41439  Biso   1.000  H
  O15      1.0000 0.56920  0.31822  0.42958  Biso   1.000  O
  C18      1.0000 0.41990  0.71251  0.39591  Biso   1.000  C
  H14      1.0000 0.28500  0.73310  0.41881  Biso   1.000  H
  O16      1.0000 0.37382  0.73178  0.46956  Biso   1.000  O
  H15      1.0000 0.29059  0.58512  0.31301  Biso   1.000  H
  H16      1.0000 0.26792  0.64871  0.30449  Biso   1.000  H
  O17      1.0000 0.39199  0.62370  0.28070  Biso   1.000  O
  C19      1.0000 0.65453  0.28782  0.42629  Biso   1.000  C
  O18      1.0000 0.49491  0.67899  0.41113  Biso   1.000  O
  H17      1.0000 0.44360  0.75109  0.39269  Biso   1.000  H
  H18      1.0000 0.63708  0.24821  0.42259  Biso   1.000  H
  C20      1.0000 0.70911  0.29418  0.46781  Biso   1.000  C
  O19      1.0000 0.71173  0.30408  0.39080  Biso   1.000  O
  C21      1.0000 0.59318  0.69731  0.41139  Biso   1.000  C
  H19      1.0000 0.77017  0.27200  0.46599  Biso   1.000  H
  O20      1.0000 0.65097  0.27352  0.50311  Biso   1.000  O
  C22      1.0000 0.73557  0.35252  0.47321  Biso   1.000  C
  C23      1.0000 0.73739  0.36110  0.39278  Biso   1.000  C
  C24      1.0000 0.63359  0.68388  0.45610  Biso   1.000  C
  C25      1.0000 0.65242  0.66309  0.37661  Biso   1.000  C
  H20      1.0000 0.59740  0.73761  0.40531  Biso   1.000  H
  H21      1.0000 0.67408  0.37421  0.47549  Biso   1.000  H
  O21      1.0000 0.78943  0.36028  0.51274  Biso   1.000  O
  C26      1.0000 0.79038  0.37310  0.43449  Biso   1.000  C
  H22      1.0000 0.67757  0.38432  0.39080  Biso   1.000  H
  C27      1.0000 0.80222  0.37080  0.35299  Biso   1.000  C
  C28      1.0000 0.73993  0.69362  0.45899  Biso   1.000  C
  H23      1.0000 0.62088  0.64420  0.46211  Biso   1.000  H
  O22      1.0000 0.58148  0.71621  0.48769  Biso   1.000  O
  O23      1.0000 0.75207  0.67550  0.38299  Biso   1.000  O
  H24      1.0000 0.64079  0.62292  0.38081  Biso   1.000  H
  C29      1.0000 0.62698  0.67989  0.33071  Biso   1.000  C
  H25      1.0000 0.85630  0.35580  0.43361  Biso   1.000  H
  O24      1.0000 0.79983  0.42971  0.44113  Biso   1.000  O
  O25      1.0000 0.74677  0.37902  0.31600  Biso   1.000  O
  O26      1.0000 0.76108  0.35330  0.31360  Biso   1.000  O
  C30      1.0000 0.78943  0.66001  0.42281  Biso   1.000  C
  H26      1.0000 0.75353  0.73351  0.45431  Biso   1.000  H
  O27      1.0000 0.77548  0.67772  0.50011  Biso   1.000  O
  H27      1.0000 0.55568  0.67772  0.32661  Biso   1.000  H
  H28      1.0000 0.64711  0.71851  0.32589  Biso   1.000  H
  O28      1.0000 0.67248  0.64641  0.30039  Biso   1.000  O
  C31      1.0000 0.89439  0.45259  0.43609  Biso   1.000  C
  O29      1.0000 0.77090  0.60431  0.43166  Biso   1.000  O
  H29      1.0000 0.86103  0.66691  0.42340  Biso   1.000  H
  H30      1.0000 0.94309  0.42211  0.43599  Biso   1.000  H
  C32      1.0000 0.91249  0.48878  0.47591  Biso   1.000  C
  O30      1.0000 0.90347  0.48250  0.39721  Biso   1.000  O
  C33      1.0000 0.85158  0.56709  0.43160  Biso   1.000  C
  H31      1.0000 0.98117  0.50201  0.47529  Biso   1.000  H
  O31      1.0000 0.89860  0.45662  0.51365  Biso   1.000  O
  C34      1.0000 0.84518  0.53800  0.47500  Biso   1.000  C
  C35      1.0000 0.83711  0.52691  0.39360  Biso   1.000  C
  H32      1.0000 0.91452  0.58730  0.42880  Biso   1.000  H
  H33      1.0000 0.77693  0.52510  0.47949  Biso   1.000  H
  O32      1.0000 0.87048  0.57448  0.50929  Biso   1.000  O
  H34      1.0000 0.76930  0.51220  0.39451  Biso   1.000  H
  C36      1.0000 0.85492  0.55242  0.34981  Biso   1.000  C
  H35      1.0000 0.83748  0.52559  0.32680  Biso   1.000  H
  H36      1.0000 0.81218  0.58479  0.34639  Biso   1.000  H
  O33      1.0000 0.95123  0.56848  0.34431  Biso   1.000  O
  C37      1.0000 0.24117  0.63520  0.58080  Biso   1.000  C
  C38      1.0000 0.13432  0.62222  0.57820  Biso   1.000  C
  H37      1.0000 0.27947  0.60069  0.57670  Biso   1.000  H
  O34      1.0000 0.26319  0.67242  0.54641  Biso   1.000  O
  C39      1.0000 0.26392  0.65952  0.62478  Biso   1.000  C
  C40      1.0000 0.10583  0.58491  0.61681  Biso   1.000  C
  H38      1.0000 0.09798  0.65759  0.58138  Biso   1.000  H
  O35      1.0000 0.10772  0.59888  0.53802  Biso   1.000  O
  C41      1.0000 0.23237  0.62119  0.66051  Biso   1.000  C
  H39      1.0000 0.23107  0.69592  0.62810  Biso   1.000  H
  O36      1.0000 0.36742  0.66630  0.62557  Biso   1.000  O
  O37      1.0000 0.15780  0.53492  0.60962  Biso   1.000  O
  H40      1.0000 0.03431  0.57768  0.61620  Biso   1.000  H
  O38      1.0000 0.13127  0.61092  0.65533  Biso   1.000  O
  H41      1.0000 0.26857  0.58570  0.65761  Biso   1.000  H
  C42      1.0000 0.24757  0.64350  0.70492  Biso   1.000  C
  C43      1.0000 0.40660  0.71761  0.63731  Biso   1.000  C
  C44      1.0000 0.11012  0.48439  0.61919  Biso   1.000  C
  H42      1.0000 0.22511  0.61651  0.72681  Biso   1.000  H
  H43      1.0000 0.31771  0.65040  0.70980  Biso   1.000  H
  O39      1.0000 0.19443  0.69341  0.70931  Biso   1.000  O
  H44      1.0000 0.35318  0.74550  0.63731  Biso   1.000  H
  C45      1.0000 0.48110  0.73420  0.60491  Biso   1.000  C
  O40      1.0000 0.44738  0.71510  0.67889  Biso   1.000  O
  C46      1.0000 0.13628  0.44832  0.58151  Biso   1.000  C
  C47      1.0000 0.14922  0.46241  0.66080  Biso   1.000  C
  H45      1.0000 0.03809  0.48969  0.62101  Biso   1.000  H
  C48      1.0000 0.56360  0.69238  0.60419  Biso   1.000  C
  H46      1.0000 0.50698  0.77151  0.61219  Biso   1.000  H
  O41      1.0000 0.43480  0.73519  0.56271  Biso   1.000  O
  C49      1.0000 0.52173  0.67558  0.68260  Biso   1.000  C
  C50      1.0000 0.10757  0.38879  0.59111  Biso   1.000  C
  H47      1.0000 0.20817  0.45000  0.57689  Biso   1.000  H
  O42      1.0000 0.08838  0.46800  0.54299  Biso   1.000  O
  O43      1.0000 0.12117  0.40551  0.66620  Biso   1.000  O
  H48      1.0000 0.22169  0.46451  0.65989  Biso   1.000  H
  C51      1.0000 0.11470  0.49072  0.70160  Biso   1.000  C
  C52      1.0000 0.60161  0.68729  0.64971  Biso   1.000  C
  H49      1.0000 0.53772  0.65599  0.59440  Biso   1.000  H
  O44      1.0000 0.63948  0.70799  0.57709  Biso   1.000  O
  H50      1.0000 0.49419  0.63820  0.67729  Biso   1.000  H
  C53      1.0000 0.55938  0.67940  0.73000  Biso   1.000  C
  C54      1.0000 0.15467  0.37179  0.63289  Biso   1.000  C
  H51      1.0000 0.03532  0.38489  0.59290  Biso   1.000  H
  O45      1.0000 0.14690  0.35482  0.55650  Biso   1.000  O
  O46      1.0000 0.16020  0.47231  0.73641  Biso   1.000  O
  O47      1.0000 0.02202  0.49811  0.70849  Biso   1.000  O
  O48      1.0000 0.66768  0.64070  0.64762  Biso   1.000  O
  H52      1.0000 0.63788  0.72139  0.65800  Biso   1.000  H
  O49      1.0000 0.59849  0.73010  0.73820  Biso   1.000  O
  O50      1.0000 0.48997  0.66030  0.75749  Biso   1.000  O
  O51      1.0000 0.25527  0.37602  0.62859  Biso   1.000  O
  H53      1.0000 0.13701  0.33280  0.63949  Biso   1.000  H
  C55      1.0000 0.75869  0.64210  0.66451  Biso   1.000  C
  C56      1.0000 0.31742  0.33140  0.64021  Biso   1.000  C
  C57      1.0000 0.82941  0.62082  0.63149  Biso   1.000  C
  O52      1.0000 0.76683  0.61178  0.70361  Biso   1.000  O
  H54      1.0000 0.77562  0.68121  0.67089  Biso   1.000  H
  C58      1.0000 0.38690  0.32512  0.60250  Biso   1.000  C
  H55      1.0000 0.27882  0.29702  0.64440  Biso   1.000  H
  C59      1.0000 0.37273  0.34619  0.68178  Biso   1.000  C
  C60      1.0000 0.80659  0.56121  0.62231  Biso   1.000  C
  H56      1.0000 0.89650  0.62320  0.64391  Biso   1.000  H
  O53      1.0000 0.82606  0.65180  0.59241  Biso   1.000  O
  C61      1.0000 0.73870  0.55509  0.69851  Biso   1.000  C
  O54      1.0000 0.33878  0.31041  0.56450  Biso   1.000  O
  C62      1.0000 0.46039  0.28219  0.61450  Biso   1.000  C
  H57      1.0000 0.42121  0.36082  0.59772  Biso   1.000  H
  O55      1.0000 0.44338  0.30400  0.68969  Biso   1.000  O
  H58      1.0000 0.40893  0.38099  0.67599  Biso   1.000  H
  C63      1.0000 0.31422  0.35490  0.72079  Biso   1.000  C
  C64      1.0000 0.80818  0.52909  0.66422  Biso   1.000  C
  H59      1.0000 0.74073  0.55842  0.60871  Biso   1.000  H
  O56      1.0000 0.87658  0.53562  0.59463  Biso   1.000  O
  H60      1.0000 0.67037  0.55328  0.68751  Biso   1.000  H
  C65      1.0000 0.74379  0.52900  0.74210  Biso   1.000  C
  C66      1.0000 0.51410  0.29772  0.65611  Biso   1.000  C
  H61      1.0000 0.42557  0.24669  0.61951  Biso   1.000  H
  O57      1.0000 0.53031  0.27450  0.58041  Biso   1.000  O
  H62      1.0000 0.29321  0.31900  0.73270  Biso   1.000  H
  H63      1.0000 0.25527  0.37630  0.71331  Biso   1.000  H
  O58      1.0000 0.37149  0.38510  0.75430  Biso   1.000  O
  O59      1.0000 0.76552  0.47568  0.65351  Biso   1.000  O
  H64      1.0000 0.87578  0.52510  0.67570  Biso   1.000  H
  O60      1.0000 0.66289  0.55020  0.76810  Biso   1.000  O
  O61      1.0000 0.85390  0.52399  0.75450  Biso   1.000  O
  O62      1.0000 0.55931  0.34738  0.64801  Biso   1.000  O
  H65      1.0000 0.56280  0.26892  0.66409  Biso   1.000  H
  C67      1.0000 0.81444  0.42811  0.66929  Biso   1.000  C
  C68      1.0000 0.65962  0.35079  0.66139  Biso   1.000  C
  C69      1.0000 0.81727  0.38678  0.63269  Biso   1.000  C
  O63      1.0000 0.76683  0.40621  0.70612  Biso   1.000  O
  H66      1.0000 0.88240  0.43821  0.67739  Biso   1.000  H
  C70      1.0000 0.71253  0.37142  0.62082  Biso   1.000  C
  H67      1.0000 0.68498  0.31419  0.67111  Biso   1.000  H
  C71      1.0000 0.66543  0.39319  0.69760  Biso   1.000  C
  H68      1.0000 0.85303  0.35322  0.64252  Biso   1.000  H
  O64      1.0000 0.86611  0.41032  0.59609  Biso   1.000  O
  H69      1.0000 0.67801  0.40420  0.60881  Biso   1.000  H
  O65      1.0000 0.71013  0.32799  0.59017  Biso   1.000  O
  H70      1.0000 0.63061  0.42729  0.68829  Biso   1.000  H
  C72      1.0000 0.62458  0.37409  0.73878  Biso   1.000  C
  H71      1.0000 0.63221  0.40379  0.76061  Biso   1.000  H
  H72      1.0000 0.55400  0.36801  0.73468  Biso   1.000  H
  O66      1.0000 0.66499  0.32619  0.75580  Biso   1.000  O
  O67      1.0000 0.15097  0.22648  0.49689  Biso   1.000  O
  C73      1.0000 0.20911  0.20582  0.53219  Biso   1.000  C
  C74      1.0000 0.15453  0.21218  0.57371  Biso   1.000  C
  H73      1.0000 0.27017  0.22800  0.53401  Biso   1.000  H
  C75      1.0000 0.23557  0.14748  0.52679  Biso   1.000  C
  H74      1.0000 0.13708  0.25179  0.57741  Biso   1.000  H
  O68      1.0000 0.21173  0.19592  0.60920  Biso   1.000  O
  O69      1.0000 0.06920  0.18178  0.57042  Biso   1.000  O
  H75      1.0000 0.17408  0.12579  0.52451  Biso   1.000  H
  O70      1.0000 0.28943  0.13972  0.48726  Biso   1.000  O
  C76      1.0000 0.29038  0.12690  0.56551  Biso   1.000  C
  C77      1.0000 0.23739  0.13890  0.60722  Biso   1.000  C
  C78      1.0000 0.98001  0.20409  0.58269  Biso   1.000  C
  H76      1.0000 0.35630  0.14420  0.56639  Biso   1.000  H
  O71      1.0000 0.29983  0.07029  0.55887  Biso   1.000  O
  H77      1.0000 0.17757  0.11568  0.60920  Biso   1.000  H
  C79      1.0000 0.30222  0.12920  0.64701  Biso   1.000  C
  C80      1.0000 0.90660  0.18799  0.54752  Biso   1.000  C
  H78      1.0000 0.98437  0.24489  0.58561  Biso   1.000  H
  C81      1.0000 0.94658  0.17702  0.62670  Biso   1.000  C
  C82      1.0000 0.39439  0.04741  0.56391  Biso   1.000  C
  O72      1.0000 0.24677  0.12098  0.68400  Biso   1.000  O
  O73      1.0000 0.26108  0.14670  0.68640  Biso   1.000  O
  C83      1.0000 0.80753  0.19698  0.55949  Biso   1.000  C
  H79      1.0000 0.91503  0.14802  0.54120  Biso   1.000  H
  O74      1.0000 0.93618  0.21810  0.50952  Biso   1.000  O
  H80      1.0000 0.96111  0.13672  0.62631  Biso   1.000  H
  C84      1.0000 0.99760  0.20409  0.66519  Biso   1.000  C
  O75      1.0000 0.84613  0.18561  0.63451  Biso   1.000  O
  H81      1.0000 0.44309  0.07789  0.56401  Biso   1.000  H
  C85      1.0000 0.41249  0.01122  0.52409  Biso   1.000  C
  O76      1.0000 0.40347  0.01750  0.60279  Biso   1.000  O
  C86      1.0000 0.78478  0.16621  0.60169  Biso   1.000  C
  H82      1.0000 0.79692  0.23720  0.56421  Biso   1.000  H
  O77      1.0000 0.74270  0.17809  0.52650  Biso   1.000  O
  O78      1.0000 0.01090  0.26538  0.66070  Biso   1.000  O
  O79      1.0000 0.96322  0.25820  0.67261  Biso   1.000  O
  O80      1.0000 0.39860  0.04338  0.48635  Biso   1.000  O
  H83      1.0000 0.48117  0.99799  0.52471  Biso   1.000  H
  C87      1.0000 0.34518  0.96200  0.52500  Biso   1.000  C
  C88      1.0000 0.33711  0.97309  0.60640  Biso   1.000  C
  O81      1.0000 0.80302  0.11080  0.59245  Biso   1.000  O
  H84      1.0000 0.71507  0.17151  0.61001  Biso   1.000  H
  H85      1.0000 0.27693  0.97490  0.52051  Biso   1.000  H
  O82      1.0000 0.37048  0.92552  0.49071  Biso   1.000  O
  C89      1.0000 0.35158  0.93291  0.56840  Biso   1.000  C
  H86      1.0000 0.26930  0.98780  0.60549  Biso   1.000  H
  C90      1.0000 0.35492  0.94758  0.65019  Biso   1.000  C
  C91      1.0000 0.73237  0.07148  0.60731  Biso   1.000  C
  H87      1.0000 0.41452  0.91270  0.57120  Biso   1.000  H
  O83      1.0000 0.27090  0.89569  0.56834  Biso   1.000  O
  H88      1.0000 0.33748  0.97441  0.67320  Biso   1.000  H
  H89      1.0000 0.31218  0.91521  0.65361  Biso   1.000  H
  O84      1.0000 0.45123  0.93152  0.65569  Biso   1.000  O
  C92      1.0000 0.70788  0.03779  0.56759  Biso   1.000  C
  H90      1.0000 0.67314  0.09058  0.61851  Biso   1.000  H
  C93      1.0000 0.77577  0.03459  0.64209  Biso   1.000  C
  C94      1.0000 0.28943  0.83999  0.57719  Biso   1.000  C
  C95      1.0000 0.64094  0.99141  0.58229  Biso   1.000  C
  H91      1.0000 0.76872  0.02202  0.55490  Biso   1.000  H
  O85      1.0000 0.65809  0.06939  0.53519  Biso   1.000  O
  O86      1.0000 0.71362  0.99150  0.65211  Biso   1.000  O
  H92      1.0000 0.83828  0.01910  0.63100  Biso   1.000  H
  C96      1.0000 0.79619  0.06672  0.68390  Biso   1.000  C
  H93      1.0000 0.36103  0.83309  0.57660  Biso   1.000  H
  C97      1.0000 0.23993  0.80638  0.54101  Biso   1.000  C
  O87      1.0000 0.25207  0.82450  0.61701  Biso   1.000  O
  C98      1.0000 0.68498  0.95859  0.61711  Biso   1.000  C
  O88      1.0000 0.61811  0.95539  0.54530  Biso   1.000  O
  H94      1.0000 0.57901  0.00768  0.59339  Biso   1.000  H
  O89      1.0000 0.88072  0.05382  0.70589  Biso   1.000  O
  O90      1.0000 0.70788  0.07662  0.70261  Biso   1.000  O
  H95      1.0000 0.25353  0.76649  0.54569  Biso   1.000  H
  O91      1.0000 0.27548  0.82228  0.49989  Biso   1.000  O
  C99      1.0000 0.13359  0.81612  0.54390  Biso   1.000  C
  C100     1.0000 0.15242  0.83691  0.62339  Biso   1.000  C
  O92      1.0000 0.76879  0.93000  0.60025  Biso   1.000  O
  H96      1.0000 0.63650  0.93098  0.62761  Biso   1.000  H
  H97      1.0000 0.12088  0.85580  0.53789  Biso   1.000  H
  O93      1.0000 0.08148  0.78379  0.51231  Biso   1.000  O
  C101     1.0000 0.09318  0.80269  0.58861  Biso   1.000  C
  H98      1.0000 0.14079  0.87708  0.61919  Biso   1.000  H
  C102     1.0000 0.12698  0.82011  0.66929  Biso   1.000  C
  C103     1.0000 0.77998  0.87248  0.60839  Biso   1.000  C
  O94      1.0000 0.99491  0.82101  0.58887  Biso   1.000  O
  H99      1.0000 0.09740  0.76239  0.59469  Biso   1.000  H
  H100     1.0000 0.05568  0.82228  0.67339  Biso   1.000  H
  H101     1.0000 0.14711  0.78149  0.67411  Biso   1.000  H
  O95      1.0000 0.17248  0.85359  0.69961  Biso   1.000  O
  C104     1.0000 0.80549  0.84738  0.56560  Biso   1.000  C
  H102     1.0000 0.71667  0.85700  0.61880  Biso   1.000  H
  C105     1.0000 0.85732  0.86390  0.64330  Biso   1.000  C
  C106     1.0000 0.91990  0.78749  0.60409  Biso   1.000  C
  C107     1.0000 0.84053  0.78999  0.57081  Biso   1.000  C
  H103     1.0000 0.85928  0.86948  0.55249  Biso   1.000  H
  O96      1.0000 0.72409  0.85071  0.53743  Biso   1.000  O
  H104     1.0000 0.91518  0.88740  0.63659  Biso   1.000  H
  C108     1.0000 0.81967  0.87770  0.68761  Biso   1.000  C
  O97      1.0000 0.88610  0.80700  0.64398  Biso   1.000  O
  H105     1.0000 0.94360  0.74891  0.60731  Biso   1.000  H
  H106     1.0000 0.78500  0.76690  0.58119  Biso   1.000  H
  O98      1.0000 0.87382  0.76822  0.53044  Biso   1.000  O
  H107     1.0000 0.79059  0.91488  0.68699  Biso   1.000  H
  H108     1.0000 0.76792  0.85129  0.69551  Biso   1.000  H
  O99      1.0000 0.89199  0.87630  0.71930  Biso   1.000  O
  O100     1.0000 0.33980  0.52769  0.23639  Biso   1.000  O
  C109     1.0000 0.38530  0.50928  0.20161  Biso   1.000  C
  C110     1.0000 0.35078  0.53759  0.16082  Biso   1.000  C
  O101     1.0000 0.47798  0.50189  0.20851  Biso   1.000  O
  C111     1.0000 0.38988  0.51561  0.11920  Biso   1.000  C
  H109     1.0000 0.27831  0.53549  0.15991  Biso   1.000  H
  O102     1.0000 0.37883  0.59449  0.16618  Biso   1.000  O
  O103     1.0000 0.34220  0.46508  0.10961  Biso   1.000  O
  C112     1.0000 0.36372  0.55168  0.08150  Biso   1.000  C
  H110     1.0000 0.46191  0.51031  0.12099  Biso   1.000  H
  C113     1.0000 0.34533  0.62821  0.13290  Biso   1.000  C
  C114     1.0000 0.39417  0.41509  0.11680  Biso   1.000  C
  C115     1.0000 0.39243  0.61121  0.09110  Biso   1.000  C
  H111     1.0000 0.29183  0.55000  0.07691  Biso   1.000  H
  O104     1.0000 0.41162  0.53200  0.04301  Biso   1.000  O
  O105     1.0000 0.24473  0.62398  0.12857  Biso   1.000  O
  H112     1.0000 0.36299  0.66720  0.13951  Biso   1.000  H
  O106     1.0000 0.36873  0.38908  0.15535  Biso   1.000  O
  C116     1.0000 0.36568  0.37778  0.07821  Biso   1.000  C
  H113     1.0000 0.46569  0.42232  0.11621  Biso   1.000  H
  H114     1.0000 0.46468  0.61511  0.09288  Biso   1.000  H
  O107     1.0000 0.35310  0.64518  0.05651  Biso   1.000  O
  C117     1.0000 0.18258  0.66860  0.14019  Biso   1.000  C
  C118     1.0000 0.26763  0.37881  0.16049  Biso   1.000  C
  C119     1.0000 0.25883  0.36480  0.08081  Biso   1.000  C
  H115     1.0000 0.40202  0.34241  0.08140  Biso   1.000  H
  O108     1.0000 0.39228  0.40112  0.03800  Biso   1.000  O
  C120     1.0000 0.11310  0.67488  0.10251  Biso   1.000  C
  H116     1.0000 0.22118  0.70298  0.14439  Biso   1.000  H
  C121     1.0000 0.12727  0.65381  0.18180  Biso   1.000  C
  C122     1.0000 0.25243  0.35650  0.20490  Biso   1.000  C
  C123     1.0000 0.23608  0.34048  0.12480  Biso   1.000  C
  H117     1.0000 0.23143  0.41430  0.15760  Biso   1.000  H
  H118     1.0000 0.22053  0.39931  0.07672  Biso   1.000  H
  O109     1.0000 0.23681  0.32758  0.04643  Biso   1.000  O
  C124     1.0000 0.03961  0.71781  0.11449  Biso   1.000  C
  H119     1.0000 0.07879  0.63918  0.09770  Biso   1.000  H
  O110     1.0000 0.16122  0.68959  0.06452  Biso   1.000  O
  H120     1.0000 0.09107  0.61901  0.17601  Biso   1.000  H
  C125     1.0000 0.18578  0.64510  0.22081  Biso   1.000  C
  O111     1.0000 0.05662  0.69600  0.18971  Biso   1.000  O
  O112     1.0000 0.30557  0.30659  0.20929  Biso   1.000  O
  H121     1.0000 0.27489  0.38349  0.22680  Biso   1.000  H
  H122     1.0000 0.18229  0.34960  0.20981  Biso   1.000  H
  H123     1.0000 0.26893  0.30408  0.12809  Biso   1.000  H
  O113     1.0000 0.13258  0.33370  0.12558  Biso   1.000  O
  H124     1.0000 0.07443  0.75331  0.11950  Biso   1.000  H
  C126     1.0000 0.98590  0.70228  0.15610  Biso   1.000  C
  O114     1.0000 0.96969  0.72550  0.08039  Biso   1.000  O
  H125     1.0000 0.20679  0.68100  0.23268  Biso   1.000  H
  H126     1.0000 0.24473  0.62370  0.21329  Biso   1.000  H
  O115     1.0000 0.12851  0.61490  0.25429  Biso   1.000  O
  C127     1.0000 0.09340  0.28239  0.13729  Biso   1.000  C
  O116     1.0000 0.94069  0.65262  0.14803  Biso   1.000  O
  H127     1.0000 0.93720  0.73108  0.16410  Biso   1.000  H
  H128     1.0000 0.14682  0.25450  0.13729  Biso   1.000  H
  C128     1.0000 0.01890  0.26580  0.10489  Biso   1.000  C
  O117     1.0000 0.05262  0.28490  0.17890  Biso   1.000  O
  C129     1.0000 0.84038  0.64921  0.16140  Biso   1.000  C
  O118     1.0000 0.06520  0.26481  0.06273  Biso   1.000  O
  H129     1.0000 0.99302  0.22849  0.11221  Biso   1.000  H
  C130     1.0000 0.93640  0.30762  0.10421  Biso   1.000  C
  C131     1.0000 0.97827  0.32442  0.18261  Biso   1.000  C
  C132     1.0000 0.78747  0.62858  0.12080  Biso   1.000  C
  C133     1.0000 0.83457  0.60681  0.19761  Biso   1.000  C
  H130     1.0000 0.81502  0.68581  0.17110  Biso   1.000  H
  H131     1.0000 0.96228  0.34401  0.09441  Biso   1.000  H
  O119     1.0000 0.86052  0.29201  0.07711  Biso   1.000  O
  C134     1.0000 0.89839  0.31271  0.14969  Biso   1.000  C
  H132     1.0000 0.00581  0.36180  0.17731  Biso   1.000  H
  C135     1.0000 0.94062  0.32060  0.23002  Biso   1.000  C
  C136     1.0000 0.68273  0.61322  0.13271  Biso   1.000  C
  H133     1.0000 0.82199  0.59580  0.10879  Biso   1.000  H
  O120     1.0000 0.78987  0.67201  0.09018  Biso   1.000  O
  O121     1.0000 0.73317  0.59379  0.20614  Biso   1.000  O
  H134     1.0000 0.86939  0.57271  0.18831  Biso   1.000  H
  C137     1.0000 0.87542  0.62591  0.23880  Biso   1.000  C
  H135     1.0000 0.86212  0.27861  0.15799  Biso   1.000  H
  O122     1.0000 0.83232  0.35930  0.14761  Biso   1.000  O
  O123     1.0000 0.01003  0.33970  0.25751  Biso   1.000  O
  O124     1.0000 0.90151  0.26990  0.23821  Biso   1.000  O
  C138     1.0000 0.68556  0.57189  0.16931  Biso   1.000  C
  H136     1.0000 0.64697  0.64678  0.14250  Biso   1.000  H
  O125     1.0000 0.63389  0.58968  0.09611  Biso   1.000  O
  H137     1.0000 0.86779  0.59621  0.26060  Biso   1.000  H
  H138     1.0000 0.94600  0.63199  0.23470  Biso   1.000  H
  O126     1.0000 0.83501  0.67381  0.25582  Biso   1.000  O
  C139     1.0000 0.74131  0.35790  0.16449  Biso   1.000  C
  O127     1.0000 0.73448  0.52432  0.15350  Biso   1.000  O
  H139     1.0000 0.61760  0.56179  0.17741  Biso   1.000  H
  H140     1.0000 0.72438  0.31879  0.17090  Biso   1.000  H
  C140     1.0000 0.67059  0.37918  0.13150  Biso   1.000  C
  O128     1.0000 0.73317  0.38822  0.20360  Biso   1.000  O
  C141     1.0000 0.69182  0.47091  0.16420  Biso   1.000  C
  H141     1.0000 0.60350  0.37680  0.14390  Biso   1.000  H
  O129     1.0000 0.67394  0.34820  0.09240  Biso   1.000  O
  C142     1.0000 0.69341  0.43879  0.12230  Biso   1.000  C
  C143     1.0000 0.76130  0.44491  0.19849  Biso   1.000  C
  H142     1.0000 0.62422  0.47490  0.17568  Biso   1.000  H
  H143     1.0000 0.75927  0.44158  0.10870  Biso   1.000  H
  O130     1.0000 0.62342  0.46438  0.09464  Biso   1.000  O
  H144     1.0000 0.82963  0.44672  0.18749  Biso   1.000  H
  C144     1.0000 0.75621  0.47100  0.24209  Biso   1.000  C
  O131     1.0000 0.83711  0.44980  0.26811  Biso   1.000  O
  O132     1.0000 0.64610  0.47601  0.25451  Biso   1.000  O
  O133     1.0000 0.76319  0.82758  0.45359  Biso   1.000  O
  C145     1.0000 0.74117  0.86480  0.41920  Biso   1.000  C
  C146     1.0000 0.76392  0.84048  0.37522  Biso   1.000  C
  C147     1.0000 0.63432  0.87778  0.42180  Biso   1.000  C
  H145     1.0000 0.77947  0.89931  0.42330  Biso   1.000  H
  C148     1.0000 0.73237  0.87881  0.33949  Biso   1.000  C
  H146     1.0000 0.73107  0.80408  0.37190  Biso   1.000  H
  O134     1.0000 0.86742  0.83370  0.37443  Biso   1.000  O
  C149     1.0000 0.60583  0.91509  0.38319  Biso   1.000  C
  H147     1.0000 0.59798  0.84241  0.41862  Biso   1.000  H
  O135     1.0000 0.60772  0.90112  0.46198  Biso   1.000  O
  C150     1.0000 0.74757  0.85650  0.29508  Biso   1.000  C
  H148     1.0000 0.76857  0.91430  0.34239  Biso   1.000  H
  O136     1.0000 0.63127  0.88908  0.34467  Biso   1.000  O
  C151     1.0000 0.90660  0.78239  0.36269  Biso   1.000  C
  O137     1.0000 0.65780  0.96508  0.39038  Biso   1.000  O
  H149     1.0000 0.53431  0.92232  0.38380  Biso   1.000  H
  O138     1.0000 0.69443  0.80659  0.29069  Biso   1.000  O
  H150     1.0000 0.72511  0.88349  0.27319  Biso   1.000  H
  H151     1.0000 0.81771  0.84960  0.29020  Biso   1.000  H
  H152     1.0000 0.85318  0.75450  0.36269  Biso   1.000  H
  C152     1.0000 0.98110  0.76580  0.39509  Biso   1.000  C
  O139     1.0000 0.94738  0.78490  0.32111  Biso   1.000  O
  C153     1.0000 0.61012  0.01561  0.38081  Biso   1.000  C
  O140     1.0000 0.93480  0.76481  0.43729  Biso   1.000  O
  H153     1.0000 0.00698  0.72849  0.38781  Biso   1.000  H
  C154     1.0000 0.06360  0.80762  0.39581  Biso   1.000  C
  C155     1.0000 0.02173  0.82442  0.31740  Biso   1.000  C
  C156     1.0000 0.63628  0.05168  0.41849  Biso   1.000  C
  H154     1.0000 0.53809  0.01031  0.37899  Biso   1.000  H
  C157     1.0000 0.64922  0.03759  0.33920  Biso   1.000  C
  H155     1.0000 0.03772  0.84401  0.40560  Biso   1.000  H
  O141     1.0000 0.13948  0.79201  0.42291  Biso   1.000  O
  C158     1.0000 0.10161  0.81271  0.35029  Biso   1.000  C
  H156     1.0000 0.99419  0.86180  0.32271  Biso   1.000  H
  C159     1.0000 0.05938  0.82060  0.27000  Biso   1.000  C
  C160     1.0000 0.60757  0.11121  0.40889  Biso   1.000  C
  H157     1.0000 0.70817  0.05000  0.42311  Biso   1.000  H
  O142     1.0000 0.58838  0.03200  0.45701  Biso   1.000  O
  H158     1.0000 0.72169  0.03549  0.34011  Biso   1.000  H
  C161     1.0000 0.61470  0.00928  0.29840  Biso   1.000  C
  O143     1.0000 0.62117  0.09449  0.33380  Biso   1.000  O
  H159     1.0000 0.13788  0.77861  0.34200  Biso   1.000  H
  O144     1.0000 0.16768  0.85930  0.35238  Biso   1.000  O
  O145     1.0000 0.98997  0.83970  0.24251  Biso   1.000  O
  O146     1.0000 0.09849  0.76990  0.26180  Biso   1.000  O
  C162     1.0000 0.65467  0.12821  0.36711  Biso   1.000  C
  H160     1.0000 0.53532  0.11511  0.40710  Biso   1.000  H
  O147     1.0000 0.64690  0.14518  0.44350  Biso   1.000  O
  O148     1.0000 0.66020  0.02769  0.26359  Biso   1.000  O
  O149     1.0000 0.52202  0.00189  0.29151  Biso   1.000  O
  C163     1.0000 0.25869  0.85790  0.33549  Biso   1.000  C
  O150     1.0000 0.75527  0.12398  0.37141  Biso   1.000  O
  H161     1.0000 0.63701  0.16720  0.36051  Biso   1.000  H
  H162     1.0000 0.27562  0.81879  0.32911  Biso   1.000  H
  C164     1.0000 0.32941  0.87918  0.36851  Biso   1.000  C
  O151     1.0000 0.26683  0.88822  0.29639  Biso   1.000  O
  C165     1.0000 0.81742  0.16860  0.35979  Biso   1.000  C
  H163     1.0000 0.39650  0.87680  0.35609  Biso   1.000  H
  O152     1.0000 0.32606  0.84820  0.40759  Biso   1.000  O
  C166     1.0000 0.30659  0.93879  0.37769  Biso   1.000  C
  C167     1.0000 0.23870  0.94491  0.30149  Biso   1.000  C
  C168     1.0000 0.88690  0.17488  0.39750  Biso   1.000  C
  H164     1.0000 0.77882  0.20298  0.35560  Biso   1.000  H
  C169     1.0000 0.87273  0.15381  0.31822  Biso   1.000  C
  H165     1.0000 0.24073  0.94158  0.39129  Biso   1.000  H
  O153     1.0000 0.37658  0.96438  0.40537  Biso   1.000  O
  C170     1.0000 0.30818  0.97091  0.33578  Biso   1.000  C
  H166     1.0000 0.17037  0.94672  0.31249  Biso   1.000  H
  C171     1.0000 0.24379  0.97100  0.25790  Biso   1.000  C
  C172     1.0000 0.96039  0.21781  0.38550  Biso   1.000  C
  H167     1.0000 0.92121  0.13918  0.40228  Biso   1.000  H
  O154     1.0000 0.83878  0.18959  0.43550  Biso   1.000  O
  H168     1.0000 0.90893  0.11901  0.32401  Biso   1.000  H
  C173     1.0000 0.81422  0.14510  0.27921  Biso   1.000  C
  O155     1.0000 0.94338  0.19600  0.31031  Biso   1.000  O
  H169     1.0000 0.37578  0.97490  0.32430  Biso   1.000  H
  O156     1.0000 0.26552  0.02432  0.34649  Biso   1.000  O
  O157     1.0000 0.16289  0.94980  0.23190  Biso   1.000  O
  O158     1.0000 0.35390  0.97601  0.24550  Biso   1.000  O
  H170     1.0000 0.92557  0.25331  0.38049  Biso   1.000  H
  C174     1.0000 0.01410  0.20228  0.34389  Biso   1.000  C
  O159     1.0000 0.03031  0.22550  0.41959  Biso   1.000  O
  H171     1.0000 0.79321  0.18100  0.26730  Biso   1.000  H
  H172     1.0000 0.75527  0.12370  0.28669  Biso   1.000  H
  O160     1.0000 0.87149  0.11490  0.24570  Biso   1.000  O
  C175     1.0000 0.31444  0.07189  0.33071  Biso   1.000  C
  O161     1.0000 0.05931  0.15262  0.35199  Biso   1.000  O
  H173     1.0000 0.06280  0.23108  0.33591  Biso   1.000  H
  H174     1.0000 0.38240  0.06179  0.32261  Biso   1.000  H
  C176     1.0000 0.31727  0.11322  0.36731  Biso   1.000  C
  O162     1.0000 0.26683  0.09379  0.29388  Biso   1.000  O
  C177     1.0000 0.15962  0.14921  0.33861  Biso   1.000  C
  H175     1.0000 0.35303  0.14678  0.35748  Biso   1.000  H
  O163     1.0000 0.36611  0.08968  0.40391  Biso   1.000  O
  C178     1.0000 0.21253  0.12858  0.37918  Biso   1.000  C
  C179     1.0000 0.16543  0.10681  0.30240  Biso   1.000  C
  H176     1.0000 0.18498  0.18581  0.32889  Biso   1.000  H
  H177     1.0000 0.17801  0.09580  0.39119  Biso   1.000  H
  O164     1.0000 0.21013  0.17201  0.40983  Biso   1.000  O
  H178     1.0000 0.13061  0.07271  0.31171  Biso   1.000  H
  C180     1.0000 0.12458  0.12591  0.26122  Biso   1.000  C
  H179     1.0000 0.13221  0.09621  0.23939  Biso   1.000  H
  H180     1.0000 0.05400  0.13199  0.26532  Biso   1.000  H
  O165     1.0000 0.16499  0.17381  0.24420  Biso   1.000  O
  O166     1.0000 0.40151  0.23010  0.76179  Biso   1.000  O
  C181     1.0000 0.44062  0.17940  0.76998  Biso   1.000  C
  C182     1.0000 0.47827  0.17558  0.81739  Biso   1.000  C
  O167     1.0000 0.51003  0.16030  0.74249  Biso   1.000  O
  C183     1.0000 0.39839  0.18729  0.85031  Biso   1.000  C
  H181     1.0000 0.50581  0.13820  0.82269  Biso   1.000  H
  O168     1.0000 0.55262  0.21510  0.82110  Biso   1.000  O
  O169     1.0000 0.33232  0.14070  0.85239  Biso   1.000  O
  C184     1.0000 0.43640  0.19238  0.89579  Biso   1.000  C
  H182     1.0000 0.36212  0.22139  0.84201  Biso   1.000  H
  C185     1.0000 0.59340  0.21761  0.86271  Biso   1.000  C
  C186     1.0000 0.24131  0.14210  0.83551  Biso   1.000  C
  C187     1.0000 0.51890  0.23420  0.89511  Biso   1.000  C
  H183     1.0000 0.46228  0.15599  0.90559  Biso   1.000  H
  O170     1.0000 0.36052  0.20799  0.92289  Biso   1.000  O
  O171     1.0000 0.63258  0.16630  0.87442  Biso   1.000  O
  H184     1.0000 0.64682  0.24550  0.86271  Biso   1.000  H
  O172     1.0000 0.23317  0.11178  0.79640  Biso   1.000  O
  C188     1.0000 0.17059  0.12082  0.86850  Biso   1.000  C
  H185     1.0000 0.22438  0.18121  0.82910  Biso   1.000  H
  H186     1.0000 0.49302  0.27151  0.88779  Biso   1.000  H
  O173     1.0000 0.56520  0.23519  0.93727  Biso   1.000  O
  C189     1.0000 0.73608  0.15952  0.87520  Biso   1.000  C
  C190     1.0000 0.26130  0.05509  0.80151  Biso   1.000  C
  C191     1.0000 0.19341  0.06121  0.87770  Biso   1.000  C
  H187     1.0000 0.10350  0.12320  0.85610  Biso   1.000  H
  O174     1.0000 0.17394  0.15180  0.90760  Biso   1.000  O
  C192     1.0000 0.75883  0.13520  0.91919  Biso   1.000  C
  H188     1.0000 0.76893  0.19592  0.87191  Biso   1.000  H
  C193     1.0000 0.76763  0.12119  0.83951  Biso   1.000  C
  C194     1.0000 0.25621  0.02900  0.75791  Biso   1.000  C
  C195     1.0000 0.19182  0.02909  0.83580  Biso   1.000  C
  H189     1.0000 0.32963  0.05328  0.81251  Biso   1.000  H
  H190     1.0000 0.25927  0.05842  0.89130  Biso   1.000  H
  O175     1.0000 0.12342  0.03562  0.90536  Biso   1.000  O
  C196     1.0000 0.86568  0.12222  0.92179  Biso   1.000  C
  H191     1.0000 0.72053  0.10069  0.92328  Biso   1.000  H
  O176     1.0000 0.73681  0.17242  0.95357  Biso   1.000  O
  H192     1.0000 0.73143  0.08570  0.84240  Biso   1.000  H
  C197     1.0000 0.75243  0.14350  0.79510  Biso   1.000  C
  O177     1.0000 0.86873  0.11092  0.84465  Biso   1.000  O
  O178     1.0000 0.33711  0.05020  0.73189  Biso   1.000  O
  O179     1.0000 0.14610  0.02399  0.74549  Biso   1.000  O
  H193     1.0000 0.12422  0.02510  0.82432  Biso   1.000  H
  O180     1.0000 0.23448  0.97568  0.84650  Biso   1.000  O
  C198     1.0000 0.89417  0.08491  0.88320  Biso   1.000  C
  H194     1.0000 0.90202  0.15759  0.91860  Biso   1.000  H
  O181     1.0000 0.89228  0.09888  0.96200  Biso   1.000  O
  H195     1.0000 0.77489  0.11651  0.77320  Biso   1.000  H
  H196     1.0000 0.68229  0.15040  0.79019  Biso   1.000  H
  O182     1.0000 0.80557  0.19341  0.79071  Biso   1.000  O
  C199     1.0000 0.18556  0.92811  0.83069  Biso   1.000  C
  O183     1.0000 0.84220  0.03492  0.89039  Biso   1.000  O
  H197     1.0000 0.96569  0.07768  0.88379  Biso   1.000  H
  H198     1.0000 0.11760  0.93821  0.82259  Biso   1.000  H
  C200     1.0000 0.18273  0.88678  0.86729  Biso   1.000  C
  O184     1.0000 0.23317  0.90621  0.79386  Biso   1.000  O
  C201     1.0000 0.88988  0.98439  0.88080  Biso   1.000  C
  H199     1.0000 0.14697  0.85322  0.85750  Biso   1.000  H
  O185     1.0000 0.13389  0.91032  0.90389  Biso   1.000  O
  C202     1.0000 0.28747  0.87142  0.87920  Biso   1.000  C
  C203     1.0000 0.33457  0.89319  0.80239  Biso   1.000  C
  C204     1.0000 0.86372  0.94832  0.91850  Biso   1.000  C
  C205     1.0000 0.85078  0.96241  0.83918  Biso   1.000  C
  H200     1.0000 0.96191  0.98969  0.87901  Biso   1.000  H
  H201     1.0000 0.32199  0.90420  0.89121  Biso   1.000  H
  O186     1.0000 0.28987  0.82799  0.90982  Biso   1.000  O
  C206     1.0000 0.34038  0.85079  0.83860  Biso   1.000  C
  H202     1.0000 0.36939  0.92729  0.81169  Biso   1.000  H
  C207     1.0000 0.37542  0.87409  0.76120  Biso   1.000  C
  C208     1.0000 0.89243  0.88879  0.90890  Biso   1.000  C
  H203     1.0000 0.79183  0.95000  0.92309  Biso   1.000  H
  O187     1.0000 0.91162  0.96800  0.95699  Biso   1.000  O
  O188     1.0000 0.87883  0.90551  0.83382  Biso   1.000  O
  H204     1.0000 0.77831  0.96451  0.84009  Biso   1.000  H
  C209     1.0000 0.88530  0.99072  0.79839  Biso   1.000  C
  H205     1.0000 0.31502  0.81419  0.82890  Biso   1.000  H
  O189     1.0000 0.44069  0.84738  0.85197  Biso   1.000  O
  H206     1.0000 0.36779  0.90379  0.73940  Biso   1.000  H
  H207     1.0000 0.44600  0.86801  0.76530  Biso   1.000  H
  O190     1.0000 0.33501  0.82619  0.74418  Biso   1.000  O
  C210     1.0000 0.84533  0.87179  0.86710  Biso   1.000  C
  H208     1.0000 0.96468  0.88489  0.90712  Biso   1.000  H
  O191     1.0000 0.85310  0.85482  0.94349  Biso   1.000  O
  O192     1.0000 0.83980  0.97231  0.76361  Biso   1.000  O
  O193     1.0000 0.97798  0.99811  0.79149  Biso   1.000  O
  C211     1.0000 0.48590  0.79772  0.84390  Biso   1.000  C
  O194     1.0000 0.74473  0.87602  0.87143  Biso   1.000  O
  H209     1.0000 0.86299  0.83280  0.86049  Biso   1.000  H
  H210     1.0000 0.43720  0.76892  0.83590  Biso   1.000  H
  C212     1.0000 0.53961  0.78219  0.88551  Biso   1.000  C
  O195     1.0000 0.55662  0.80400  0.81029  Biso   1.000  O
  C213     1.0000 0.68258  0.83140  0.85981  Biso   1.000  C
  H211     1.0000 0.57443  0.74669  0.88050  Biso   1.000  H
  O196     1.0000 0.46969  0.77450  0.91961  Biso   1.000  O
  C214     1.0000 0.61310  0.82512  0.89749  Biso   1.000  C
  C215     1.0000 0.62727  0.84619  0.81820  Biso   1.000  C
  H212     1.0000 0.72118  0.79702  0.85561  Biso   1.000  H
  H213     1.0000 0.57879  0.86082  0.90230  Biso   1.000  H
  O197     1.0000 0.66122  0.81041  0.93548  Biso   1.000  O
  H214     1.0000 0.59107  0.88099  0.82399  Biso   1.000  H
  C216     1.0000 0.68578  0.85490  0.77919  Biso   1.000  C
  H215     1.0000 0.70679  0.81900  0.76732  Biso   1.000  H
  H216     1.0000 0.74473  0.87630  0.78671  Biso   1.000  H
  O198     1.0000 0.62851  0.88510  0.74571  Biso   1.000  O
  O199     1.0000 0.75323  0.62098  0.81599  Biso   1.000  O
  C217     1.0000 0.69778  0.62920  0.85301  Biso   1.000  C
  C218     1.0000 0.76261  0.63890  0.89280  Biso   1.000  C
  O200     1.0000 0.73892  0.64670  0.81361  Biso   1.000  O
  C219     1.0000 0.70962  0.62690  0.93451  Biso   1.000  C
  H217     1.0000 0.82243  0.61568  0.89082  Biso   1.000  H
  O201     1.0000 0.78827  0.69592  0.89082  Biso   1.000  O
  O202     1.0000 0.70017  0.57029  0.94115  Biso   1.000  O
  C220     1.0000 0.76443  0.64748  0.97319  Biso   1.000  C
  H218     1.0000 0.64370  0.64420  0.93360  Biso   1.000  H
  C221     1.0000 0.84547  0.71218  0.92631  Biso   1.000  C
  C222     1.0000 0.60561  0.54741  0.93610  Biso   1.000  C
  C223     1.0000 0.79089  0.70582  0.96779  Biso   1.000  C
  H219     1.0000 0.82592  0.62579  0.97550  Biso   1.000  H
  O203     1.0000 0.71057  0.63972  0.01275  Biso   1.000  O
  H220     1.0000 0.86292  0.75179  0.92260  Biso   1.000  H
  O204     1.0000 0.93080  0.68178  0.92956  Biso   1.000  O
  C224     1.0000 0.58751  0.51122  0.97589  Biso   1.000  C
  O205     1.0000 0.59653  0.51750  0.89722  Biso   1.000  O
  H221     1.0000 0.55691  0.57789  0.93601  Biso   1.000  H
  H222     1.0000 0.72983  0.72800  0.96600  Biso   1.000  H
  O206     1.0000 0.84903  0.72648  0.00312  Biso   1.000  O
  C225     1.0000 0.01999  0.70409  0.91730  Biso   1.000  C
  C226     1.0000 0.65482  0.46200  0.97501  Biso   1.000  C
  H223     1.0000 0.51883  0.49799  0.97531  Biso   1.000  H
  O207     1.0000 0.60140  0.54338  0.01363  Biso   1.000  O
  C227     1.0000 0.66289  0.47309  0.89361  Biso   1.000  C
  C228     1.0000 0.09340  0.68799  0.95250  Biso   1.000  C
  C229     1.0000 0.05342  0.67702  0.87331  Biso   1.000  C
  H224     1.0000 0.01563  0.74489  0.91440  Biso   1.000  H
  C230     1.0000 0.64842  0.43291  0.93161  Biso   1.000  C
  H225     1.0000 0.72307  0.47490  0.97950  Biso   1.000  H
  O208     1.0000 0.62952  0.42552  0.00930  Biso   1.000  O
  H226     1.0000 0.73070  0.48780  0.89449  Biso   1.000  H
  C231     1.0000 0.64508  0.44758  0.84979  Biso   1.000  C
  C232     1.0000 0.19247  0.69698  0.94050  Biso   1.000  C
  H227     1.0000 0.08497  0.64802  0.95881  Biso   1.000  H
  O209     1.0000 0.06382  0.71810  0.99050  Biso   1.000  O
  O210     1.0000 0.15387  0.68561  0.86550  Biso   1.000  O
  H228     1.0000 0.03889  0.63672  0.87370  Biso   1.000  H
  C233     1.0000 0.00240  0.70409  0.83479  Biso   1.000  C
  O211     1.0000 0.72910  0.39569  0.93168  Biso   1.000  O
  H229     1.0000 0.58548  0.41270  0.92882  Biso   1.000  H
  H230     1.0000 0.66252  0.47441  0.82679  Biso   1.000  H
  H231     1.0000 0.68782  0.41521  0.84641  Biso   1.000  H
  O212     1.0000 0.54877  0.43152  0.84429  Biso   1.000  O
  C234     1.0000 0.21522  0.66621  0.89830  Biso   1.000  C
  H232     1.0000 0.20308  0.73720  0.93581  Biso   1.000  H
  O213     1.0000 0.25730  0.67809  0.97348  Biso   1.000  O
  O214     1.0000 0.98910  0.76538  0.83931  Biso   1.000  O
  O215     1.0000 0.03678  0.75820  0.82741  Biso   1.000  O
  C235     1.0000 0.71057  0.33999  0.92280  Biso   1.000  C
  O216     1.0000 0.19698  0.61080  0.90754  Biso   1.000  O
  H233     1.0000 0.28493  0.67151  0.89000  Biso   1.000  H
  O217     1.0000 0.74793  0.32450  0.88297  Biso   1.000  O
  C236     1.0000 0.76007  0.30638  0.95901  Biso   1.000  C
  H234     1.0000 0.63897  0.33309  0.92341  Biso   1.000  H
  C237     1.0000 0.26763  0.57148  0.89270  Biso   1.000  C
  C238     1.0000 0.84758  0.33691  0.87660  Biso   1.000  C
  C239     1.0000 0.86641  0.31612  0.95611  Biso   1.000  C
  H235     1.0000 0.74647  0.26649  0.95429  Biso   1.000  H
  O218     1.0000 0.72452  0.32228  0.00010  Biso   1.000  O
  C240     1.0000 0.29212  0.53779  0.93239  Biso   1.000  C
  C241     1.0000 0.22423  0.53459  0.85789  Biso   1.000  C
  H236     1.0000 0.32686  0.59058  0.88151  Biso   1.000  H
  C242     1.0000 0.87302  0.32011  0.83069  Biso   1.000  C
  C243     1.0000 0.90682  0.30269  0.91141  Biso   1.000  C
  H237     1.0000 0.85921  0.37708  0.88080  Biso   1.000  H
  H238     1.0000 0.87912  0.35580  0.96210  Biso   1.000  H
  O219     1.0000 0.91852  0.28379  0.98770  Biso   1.000  O
  C244     1.0000 0.35906  0.49141  0.91769  Biso   1.000  C
  H239     1.0000 0.23128  0.52202  0.94512  Biso   1.000  H
  O220     1.0000 0.34191  0.56939  0.96480  Biso   1.000  O
  O221     1.0000 0.28638  0.49150  0.84790  Biso   1.000  O
  H240     1.0000 0.16172  0.51910  0.86899  Biso   1.000  H
  C245     1.0000 0.20381  0.56672  0.81608  Biso   1.000  C
  O222     1.0000 0.82752  0.35359  0.80040  Biso   1.000  O
  H241     1.0000 0.94432  0.32228  0.82659  Biso   1.000  H
  H242     1.0000 0.85289  0.28149  0.82591  Biso   1.000  H
  H243     1.0000 0.90260  0.26239  0.90529  Biso   1.000  H
  O223     1.0000 0.00509  0.32101  0.91112  Biso   1.000  O
  C246     1.0000 0.31502  0.45859  0.88291  Biso   1.000  C
  H244     1.0000 0.42099  0.50768  0.90659  Biso   1.000  H
  O224     1.0000 0.38189  0.45539  0.95471  Biso   1.000  O
  O225     1.0000 0.11928  0.55382  0.79409  Biso   1.000  O
  O226     1.0000 0.29212  0.57662  0.79741  Biso   1.000  O
  C247     1.0000 0.08010  0.28749  0.89589  Biso   1.000  C
  O227     1.0000 0.23121  0.43000  0.89976  Biso   1.000  O
  H245     1.0000 0.36350  0.43098  0.87240  Biso   1.000  H
  H246     1.0000 0.05640  0.24891  0.89270  Biso   1.000  H
  C248     1.0000 0.15947  0.28999  0.92921  Biso   1.000  C
  O228     1.0000 0.11390  0.30700  0.85604  Biso   1.000  O
  C249     1.0000 0.22002  0.37248  0.89160  Biso   1.000  C
  H247     1.0000 0.21500  0.26690  0.91879  Biso   1.000  H
  O229     1.0000 0.12618  0.26822  0.96958  Biso   1.000  O
  C250     1.0000 0.19451  0.34738  0.93441  Biso   1.000  C
  C251     1.0000 0.14268  0.36390  0.85669  Biso   1.000  C
  H248     1.0000 0.28333  0.35700  0.88119  Biso   1.000  H
  H249     1.0000 0.14072  0.36948  0.94749  Biso   1.000  H
  O230     1.0000 0.27591  0.35071  0.96259  Biso   1.000  O
  H250     1.0000 0.08482  0.38740  0.86339  Biso   1.000  H
  C252     1.0000 0.18033  0.37770  0.81241  Biso   1.000  C
  H251     1.0000 0.20941  0.41488  0.81299  Biso   1.000  H
  H252     1.0000 0.23208  0.35129  0.80450  Biso   1.000  H
  O231     1.0000 0.10801  0.37630  0.78069  Biso   1.000  O
  O232     1.0000 0.53678  0.74180  0.17259  Biso   1.000  O
  C253     1.0000 0.50240  0.79591  0.16521  Biso   1.000  C
  O233     1.0000 0.48910  0.73462  0.16069  Biso   1.000  O
  C254     1.0000 0.55342  0.82298  0.12669  Biso   1.000  C
  C255     1.0000 0.51999  0.79591  0.08270  Biso   1.000  C
  H253     1.0000 0.53889  0.86328  0.12630  Biso   1.000  H
  O234     1.0000 0.65387  0.81439  0.13450  Biso   1.000  O
  C256     1.0000 0.59340  0.81201  0.04750  Biso   1.000  C
  H254     1.0000 0.51563  0.75511  0.08560  Biso   1.000  H
  O235     1.0000 0.43080  0.81822  0.07044  Biso   1.000  O
  C257     1.0000 0.71522  0.83379  0.10170  Biso   1.000  C
  C258     1.0000 0.69247  0.80302  0.05950  Biso   1.000  C
  H255     1.0000 0.58497  0.85198  0.04119  Biso   1.000  H
  O236     1.0000 0.56382  0.78190  0.00950  Biso   1.000  O
  C259     1.0000 0.34547  0.78782  0.07369  Biso   1.000  C
  O237     1.0000 0.69698  0.88920  0.09246  Biso   1.000  O
  H256     1.0000 0.78493  0.82849  0.11000  Biso   1.000  H
  H257     1.0000 0.70308  0.76280  0.06419  Biso   1.000  H
  O238     1.0000 0.75730  0.82191  0.02652  Biso   1.000  O
  H258     1.0000 0.36292  0.74821  0.07740  Biso   1.000  H
  C260     1.0000 0.29089  0.79418  0.03221  Biso   1.000  C
  O239     1.0000 0.28827  0.80408  0.10918  Biso   1.000  O
  C261     1.0000 0.76763  0.92852  0.10730  Biso   1.000  C
  H259     1.0000 0.22983  0.77200  0.03400  Biso   1.000  H
  C262     1.0000 0.26443  0.85252  0.02681  Biso   1.000  C
  O240     1.0000 0.34903  0.77352  0.99688  Biso   1.000  O
  C263     1.0000 0.26261  0.86110  0.10720  Biso   1.000  C
  C264     1.0000 0.79212  0.96221  0.06761  Biso   1.000  C
  H260     1.0000 0.82686  0.90942  0.11849  Biso   1.000  H
  C265     1.0000 0.72423  0.96541  0.14211  Biso   1.000  C
  H261     1.0000 0.32592  0.87421  0.02450  Biso   1.000  H
  C266     1.0000 0.20962  0.87310  0.06549  Biso   1.000  C
  O241     1.0000 0.21057  0.86028  0.98725  Biso   1.000  O
  H262     1.0000 0.32243  0.88432  0.10918  Biso   1.000  H
  C267     1.0000 0.19778  0.87080  0.14699  Biso   1.000  C
  H263     1.0000 0.73128  0.97798  0.05488  Biso   1.000  H
  O242     1.0000 0.84191  0.93061  0.03520  Biso   1.000  O
  C268     1.0000 0.85906  0.00859  0.08231  Biso   1.000  C
  H264     1.0000 0.66172  0.98090  0.13101  Biso   1.000  H
  C269     1.0000 0.70381  0.93328  0.18392  Biso   1.000  C
  O243     1.0000 0.78638  0.00850  0.15210  Biso   1.000  O
  H265     1.0000 0.14370  0.85580  0.06640  Biso   1.000  H
  O244     1.0000 0.20017  0.92971  0.05885  Biso   1.000  O
  O245     1.0000 0.25323  0.87902  0.18401  Biso   1.000  O
  O246     1.0000 0.23892  0.85330  0.18639  Biso   1.000  O
  H266     1.0000 0.92099  0.99232  0.09341  Biso   1.000  H
  C270     1.0000 0.81502  0.04141  0.11709  Biso   1.000  C
  O247     1.0000 0.88189  0.04461  0.04529  Biso   1.000  O
  O248     1.0000 0.61928  0.94618  0.20591  Biso   1.000  O
  O249     1.0000 0.79212  0.92338  0.20259  Biso   1.000  O
  C271     1.0000 0.10561  0.95259  0.06390  Biso   1.000  C
  O250     1.0000 0.73121  0.07000  0.10024  Biso   1.000  O
  H267     1.0000 0.86350  0.06902  0.12760  Biso   1.000  H
  H268     1.0000 0.05691  0.92211  0.06399  Biso   1.000  H
  C272     1.0000 0.08751  0.98878  0.02411  Biso   1.000  C
  O251     1.0000 0.09653  0.98250  0.10278  Biso   1.000  O
  C273     1.0000 0.72002  0.12752  0.10840  Biso   1.000  C
  O252     1.0000 0.10140  0.95662  0.98637  Biso   1.000  O
  H269     1.0000 0.01883  0.00201  0.02469  Biso   1.000  H
  C274     1.0000 0.15482  0.03800  0.02499  Biso   1.000  C
  C275     1.0000 0.16289  0.02691  0.10639  Biso   1.000  C
  C276     1.0000 0.69451  0.15262  0.06559  Biso   1.000  C
  H270     1.0000 0.78333  0.14300  0.11881  Biso   1.000  H
  C277     1.0000 0.64268  0.13610  0.14331  Biso   1.000  C
  O253     1.0000 0.12952  0.07448  0.99070  Biso   1.000  O
  H271     1.0000 0.22307  0.02510  0.02050  Biso   1.000  H
  C278     1.0000 0.14842  0.06709  0.06839  Biso   1.000  C
  H272     1.0000 0.23070  0.01220  0.10551  Biso   1.000  H
  C279     1.0000 0.14508  0.05242  0.15021  Biso   1.000  C
  C280     1.0000 0.65947  0.21001  0.07079  Biso   1.000  C
  H273     1.0000 0.64072  0.13052  0.05251  Biso   1.000  H
  O254     1.0000 0.77591  0.14929  0.03741  Biso   1.000  O
  H274     1.0000 0.58482  0.11260  0.13661  Biso   1.000  H
  C281     1.0000 0.68033  0.12230  0.18759  Biso   1.000  C
  O255     1.0000 0.61390  0.19300  0.14396  Biso   1.000  O
  H275     1.0000 0.08548  0.08730  0.07118  Biso   1.000  H
  O256     1.0000 0.22910  0.10431  0.06832  Biso   1.000  O
  H276     1.0000 0.16252  0.02559  0.17321  Biso   1.000  H
  H277     1.0000 0.18782  0.08479  0.15359  Biso   1.000  H
  O257     1.0000 0.04877  0.06848  0.15571  Biso   1.000  O
  C282     1.0000 0.58010  0.21251  0.10411  Biso   1.000  C
  H278     1.0000 0.71500  0.23310  0.08121  Biso   1.000  H
  O258     1.0000 0.62618  0.23178  0.03042  Biso   1.000  O
  H279     1.0000 0.70941  0.08512  0.18701  Biso   1.000  H
  H280     1.0000 0.73208  0.14871  0.19550  Biso   1.000  H
  O259     1.0000 0.60801  0.12370  0.21931  Biso   1.000  O
  C283     1.0000 0.21057  0.16001  0.07720  Biso   1.000  C
  O260     1.0000 0.50509  0.17899  0.08888  Biso   1.000  O
  H281     1.0000 0.55640  0.25109  0.10730  Biso   1.000  H
  H282     1.0000 0.13897  0.16691  0.07659  Biso   1.000  H
  C284     1.0000 0.26007  0.19362  0.04099  Biso   1.000  C
  O261     1.0000 0.24793  0.17550  0.11703  Biso   1.000  O
  C285     1.0000 0.40682  0.19731  0.08859  Biso   1.000  C
  O262     1.0000 0.22452  0.17772  0.99990  Biso   1.000  O
  H283     1.0000 0.24647  0.23351  0.04571  Biso   1.000  H
  C286     1.0000 0.36641  0.18388  0.04389  Biso   1.000  C
  C287     1.0000 0.34758  0.16309  0.12340  Biso   1.000  C
  H284     1.0000 0.40260  0.23761  0.09471  Biso   1.000  H
  H285     1.0000 0.37912  0.14420  0.03790  Biso   1.000  H
  O263     1.0000 0.41852  0.21621  0.01230  Biso   1.000  O
  H286     1.0000 0.35921  0.12292  0.11920  Biso   1.000  H
  C288     1.0000 0.37302  0.17989  0.16931  Biso   1.000  C
  H287     1.0000 0.44432  0.17772  0.17341  Biso   1.000  H
  H288     1.0000 0.35289  0.21851  0.17409  Biso   1.000  H
  O264     1.0000 0.32752  0.14641  0.19960  Biso   1.000  O
  Ne1      1.0000 0.03955  0.48896  0.15014  Biso   1.000  Ne
  He1      1.0000 0.11382  0.47137  0.26614  Biso   1.000  He
  He2      1.0000 0.03721  0.49119  0.14928  Biso   1.000  He
  Ar1      1.0000 0.03789  0.49171  0.14920  Biso   1.000  Ar
  Ne2      1.0000 0.53857  0.49002  0.40605  Biso   1.000  Ne
  He3      1.0000 0.52542  0.49391  0.46117  Biso   1.000  He
  He4      1.0000 0.61907  0.50340  0.29444  Biso   1.000  He
  Ar2      1.0000 0.53529  0.49767  0.44333  Biso   1.000  Ar
  Ne3      1.0000 0.03857  0.00998  0.59395  Biso   1.000  Ne
  He5      1.0000 0.11019  0.99344  0.68610  Biso   1.000  He
  He6      1.0000 0.02868  0.00640  0.54822  Biso   1.000  He
  Ar3      1.0000 0.03765  0.00231  0.55677  Biso   1.000  Ar
  Ne4      1.0000 0.46045  0.51104  0.65014  Biso   1.000  Ne
  He7      1.0000 0.39369  0.52797  0.74633  Biso   1.000  He
  He8      1.0000 0.46279  0.50882  0.64930  Biso   1.000  He
  Ar4      1.0000 0.46210  0.50829  0.64920  Biso   1.000  Ar
  Ne5      1.0000 0.46143  0.99002  0.09395  Biso   1.000  Ne
  He9      1.0000 0.44127  0.98691  0.12764  Biso   1.000  He
  He10     1.0000 0.47420  0.99388  0.03991  Biso   1.000  He
  Ar5      1.0000 0.46466  0.99772  0.05673  Biso   1.000  Ar
  Ne6      1.0000 0.96045  0.98896  0.34986  Biso   1.000  Ne
  He11     1.0000 0.99117  0.99256  0.41896  Biso   1.000  He
  He12     1.0000 0.88875  0.97159  0.24063  Biso   1.000  He
  Ar6      1.0000 0.99208  0.99239  0.41894  Biso   1.000  Ar
  Ne7      1.0000 0.53955  0.01104  0.84986  Biso   1.000  Ne
  He13     1.0000 0.52417  0.00769  0.88659  Biso   1.000  He
  He14     1.0000 0.60585  0.02792  0.75439  Biso   1.000  He
  Ar7      1.0000 0.53737  0.00333  0.88305  Biso   1.000  Ar
  Ne8      1.0000 0.96143  0.50998  0.90605  Biso   1.000  Ne
  He15     1.0000 0.97656  0.50591  0.96686  Biso   1.000  He
  He16     1.0000 0.89129  0.49285  0.81570  Biso   1.000  He
  Ar8      1.0000 0.97406  0.49303  0.94843  Biso   1.000  Ar
