data_image0
_cell_length_a       19.055
_cell_length_b       23.696
_cell_length_c       32.357
_cell_angle_alpha    90
_cell_angle_beta     90
_cell_angle_gamma    90

_symmetry_space_group_name_H-M    "P 1"
_symmetry_int_tables_number       1

loop_
  _symmetry_equiv_pos_as_xyz
  'x, y, z'

loop_
  _atom_site_label
  _atom_site_occupancy
  _atom_site_fract_x
  _atom_site_fract_y
  _atom_site_fract_z
  _atom_site_thermal_displace_type
  _atom_site_B_iso_or_equiv
  _atom_site_type_symbol
  O1       1.0000 0.47678  0.57478  0.59449  Biso   1.000  O
  C1       1.0000 0.42551  0.57782  0.62481  Biso   1.000  C
  C2       1.0000 0.53807  0.60571  0.60460  Biso   1.000  C
  O2       1.0000 0.40052  0.63361  0.63087  Biso   1.000  O
  H1       1.0000 0.38510  0.55360  0.61610  Biso   1.000  H
  C3       1.0000 0.45133  0.55689  0.66579  Biso   1.000  C
  C4       1.0000 0.56940  0.58681  0.64391  Biso   1.000  C
  H2       1.0000 0.52548  0.64648  0.60719  Biso   1.000  H
  C5       1.0000 0.58620  0.59858  0.56850  Biso   1.000  C
  C6       1.0000 0.33041  0.64741  0.61971  Biso   1.000  C
  H3       1.0000 0.46618  0.51671  0.66221  Biso   1.000  H
  O3       1.0000 0.39701  0.55782  0.69561  Biso   1.000  O
  C7       1.0000 0.51378  0.58951  0.67871  Biso   1.000  C
  H4       1.0000 0.58520  0.54680  0.64070  Biso   1.000  H
  O4       1.0000 0.62640  0.61939  0.65494  Biso   1.000  O
  H5       1.0000 0.56012  0.60508  0.54251  Biso   1.000  H
  H6       1.0000 0.62482  0.62652  0.56998  Biso   1.000  H
  O5       1.0000 0.61459  0.54241  0.56881  Biso   1.000  O
  C8       1.0000 0.32931  0.68011  0.58049  Biso   1.000  C
  C9       1.0000 0.30102  0.68092  0.65541  Biso   1.000  C
  H7       1.0000 0.30260  0.61192  0.61619  Biso   1.000  H
  H8       1.0000 0.50029  0.62968  0.68381  Biso   1.000  H
  O6       1.0000 0.54322  0.56600  0.71530  Biso   1.000  O
  C10      1.0000 0.69152  0.59419  0.65470  Biso   1.000  C
  C11      1.0000 0.34731  0.64610  0.54381  Biso   1.000  C
  H9       1.0000 0.36342  0.71202  0.58290  Biso   1.000  H
  O7       1.0000 0.26098  0.70261  0.57264  Biso   1.000  O
  C12      1.0000 0.22708  0.69889  0.64289  Biso   1.000  C
  H10      1.0000 0.33067  0.71502  0.66041  Biso   1.000  H
  O8       1.0000 0.29861  0.64661  0.69191  Biso   1.000  O
  H11      1.0000 0.68512  0.55271  0.65080  Biso   1.000  H
  C13      1.0000 0.72611  0.60441  0.69741  Biso   1.000  C
  O9       1.0000 0.73529  0.61441  0.62308  Biso   1.000  O
  O10      1.0000 0.30218  0.59732  0.54109  Biso   1.000  O
  H12      1.0000 0.34201  0.66940  0.51859  Biso   1.000  H
  H13      1.0000 0.39690  0.63382  0.54560  Biso   1.000  H
  C14      1.0000 0.23201  0.73422  0.60500  Biso   1.000  C
  H14      1.0000 0.19822  0.66458  0.63699  Biso   1.000  H
  O11      1.0000 0.19638  0.72962  0.67652  Biso   1.000  O
  H15      1.0000 0.77271  0.58520  0.69849  Biso   1.000  H
  O12      1.0000 0.68308  0.58411  0.72918  Biso   1.000  O
  C15      1.0000 0.73597  0.66792  0.70210  Biso   1.000  C
  C16      1.0000 0.74852  0.67568  0.62589  Biso   1.000  C
  O13      1.0000 0.27410  0.78161  0.61353  Biso   1.000  O
  H16      1.0000 0.18399  0.74721  0.59700  Biso   1.000  H
  H17      1.0000 0.68911  0.68691  0.70180  Biso   1.000  H
  O14      1.0000 0.77108  0.68041  0.74006  Biso   1.000  O
  C17      1.0000 0.77932  0.68910  0.66669  Biso   1.000  C
  H18      1.0000 0.70349  0.69678  0.62221  Biso   1.000  H
  C18      1.0000 0.79570  0.68712  0.59041  Biso   1.000  C
  C19      1.0000 0.24571  0.83748  0.60719  Biso   1.000  C
  H19      1.0000 0.82802  0.67362  0.66860  Biso   1.000  H
  O15      1.0000 0.78100  0.74970  0.67080  Biso   1.000  O
  H20      1.0000 0.77271  0.67429  0.56461  Biso   1.000  H
  H21      1.0000 0.80341  0.72831  0.58810  Biso   1.000  H
  O16      1.0000 0.86208  0.65952  0.59434  Biso   1.000  O
  C20      1.0000 0.24991  0.86690  0.64669  Biso   1.000  C
  H22      1.0000 0.19570  0.83491  0.59811  Biso   1.000  H
  C21      1.0000 0.28848  0.86449  0.57440  Biso   1.000  C
  C22      1.0000 0.84440  0.77701  0.66990  Biso   1.000  C
  C23      1.0000 0.22913  0.92948  0.63881  Biso   1.000  C
  H23      1.0000 0.29940  0.86542  0.65711  Biso   1.000  H
  O17      1.0000 0.20441  0.84449  0.67729  Biso   1.000  O
  H24      1.0000 0.33918  0.86128  0.58219  Biso   1.000  H
  C24      1.0000 0.27888  0.83989  0.53169  Biso   1.000  C
  O18      1.0000 0.27111  0.92298  0.57079  Biso   1.000  O
  H25      1.0000 0.88302  0.74840  0.67080  Biso   1.000  H
  C25      1.0000 0.84870  0.81360  0.70801  Biso   1.000  C
  O19      1.0000 0.85122  0.80891  0.63439  Biso   1.000  O
  C26      1.0000 0.27442  0.95459  0.60750  Biso   1.000  C
  O20      1.0000 0.23238  0.96088  0.67624  Biso   1.000  O
  H26      1.0000 0.31472  0.85601  0.51300  Biso   1.000  H
  H27      1.0000 0.28659  0.79862  0.53299  Biso   1.000  H
  O21      1.0000 0.21322  0.85031  0.51584  Biso   1.000  O
  H28      1.0000 0.89520  0.83309  0.70730  Biso   1.000  H
  O22      1.0000 0.84618  0.78182  0.74491  Biso   1.000  O
  C27      1.0000 0.79438  0.85761  0.70600  Biso   1.000  C
  C28      1.0000 0.79969  0.85272  0.62951  Biso   1.000  C
  H29      1.0000 0.25862  0.99409  0.60179  Biso   1.000  H
  O23      1.0000 0.34469  0.95560  0.62271  Biso   1.000  O
  H30      1.0000 0.74689  0.83951  0.70640  Biso   1.000  H
  O24      1.0000 0.80157  0.89441  0.74179  Biso   1.000  O
  C29      1.0000 0.80252  0.89159  0.66721  Biso   1.000  C
  H31      1.0000 0.75219  0.83478  0.62849  Biso   1.000  H
  C30      1.0000 0.81301  0.88070  0.58930  Biso   1.000  C
  C31      1.0000 0.37838  0.00802  0.62540  Biso   1.000  C
  H32      1.0000 0.84770  0.91311  0.66771  Biso   1.000  H
  O25      1.0000 0.74479  0.92919  0.66366  Biso   1.000  O
  H33      1.0000 0.81322  0.85208  0.56699  Biso   1.000  H
  H34      1.0000 0.77512  0.90809  0.58349  Biso   1.000  H
  O26      1.0000 0.87499  0.90749  0.59010  Biso   1.000  O
  C32      1.0000 0.40981  0.01321  0.66650  Biso   1.000  C
  H35      1.0000 0.34311  0.03870  0.62150  Biso   1.000  H
  C33      1.0000 0.43432  0.01279  0.59211  Biso   1.000  C
  C34      1.0000 0.76148  0.98801  0.66082  Biso   1.000  C
  H36      1.0000 0.44209  0.98059  0.67120  Biso   1.000  H
  C35      1.0000 0.45180  0.06828  0.66999  Biso   1.000  C
  O27      1.0000 0.35718  0.01329  0.69772  Biso   1.000  O
  H37      1.0000 0.46507  0.97869  0.59310  Biso   1.000  H
  O28      1.0000 0.47699  0.06250  0.59727  Biso   1.000  O
  C36      1.0000 0.40441  0.01832  0.54999  Biso   1.000  C
  C37      1.0000 0.72579  0.01912  0.69549  Biso   1.000  C
  O29      1.0000 0.73991  0.00890  0.62237  Biso   1.000  O
  H38      1.0000 0.81338  0.99278  0.66350  Biso   1.000  H
  C38      1.0000 0.50711  0.06748  0.63649  Biso   1.000  C
  H39      1.0000 0.41910  0.10031  0.66400  Biso   1.000  H
  O30      1.0000 0.48019  0.07702  0.70878  Biso   1.000  O
  O31      1.0000 0.36101  0.06702  0.54678  Biso   1.000  O
  C39      1.0000 0.64671  0.01038  0.69120  Biso   1.000  C
  O32      1.0000 0.74999  0.99882  0.73369  Biso   1.000  O
  H40      1.0000 0.73681  0.06018  0.69330  Biso   1.000  H
  C40      1.0000 0.66507  0.00612  0.61538  Biso   1.000  C
  O33      1.0000 0.55251  0.02211  0.64422  Biso   1.000  O
  H41      1.0000 0.53451  0.10352  0.63779  Biso   1.000  H
  C41      1.0000 0.62582  0.03359  0.64981  Biso   1.000  C
  H42      1.0000 0.63448  0.96949  0.69330  Biso   1.000  H
  O34      1.0000 0.61260  0.04212  0.72315  Biso   1.000  O
  H43      1.0000 0.65091  0.96548  0.61409  Biso   1.000  H
  C42      1.0000 0.65211  0.03241  0.57440  Biso   1.000  C
  H44      1.0000 0.63401  0.07529  0.64919  Biso   1.000  H
  H45      1.0000 0.68008  0.01241  0.55320  Biso   1.000  H
  H46      1.0000 0.60189  0.02832  0.56720  Biso   1.000  H
  O35      1.0000 0.67069  0.09170  0.57434  Biso   1.000  O
  O36      1.0000 0.47678  0.42522  0.40551  Biso   1.000  O
  C43      1.0000 0.42551  0.42218  0.37519  Biso   1.000  C
  C44      1.0000 0.53807  0.39429  0.39540  Biso   1.000  C
  O37      1.0000 0.40052  0.36639  0.36913  Biso   1.000  O
  H47      1.0000 0.38510  0.44640  0.38390  Biso   1.000  H
  C45      1.0000 0.45133  0.44311  0.33421  Biso   1.000  C
  C46      1.0000 0.56940  0.41319  0.35609  Biso   1.000  C
  H48      1.0000 0.52548  0.35352  0.39281  Biso   1.000  H
  C47      1.0000 0.58620  0.40142  0.43150  Biso   1.000  C
  C48      1.0000 0.33041  0.35259  0.38029  Biso   1.000  C
  H49      1.0000 0.46618  0.48329  0.33779  Biso   1.000  H
  O38      1.0000 0.39701  0.44218  0.30439  Biso   1.000  O
  C49      1.0000 0.51378  0.41049  0.32129  Biso   1.000  C
  H50      1.0000 0.58520  0.45320  0.35930  Biso   1.000  H
  O39      1.0000 0.62640  0.38061  0.34506  Biso   1.000  O
  H51      1.0000 0.56012  0.39492  0.45749  Biso   1.000  H
  H52      1.0000 0.62482  0.37348  0.43002  Biso   1.000  H
  O40      1.0000 0.61459  0.45759  0.43119  Biso   1.000  O
  C50      1.0000 0.30102  0.31908  0.34459  Biso   1.000  C
  C51      1.0000 0.32931  0.31989  0.41951  Biso   1.000  C
  H53      1.0000 0.30260  0.38808  0.38381  Biso   1.000  H
  H54      1.0000 0.50029  0.37032  0.31619  Biso   1.000  H
  O41      1.0000 0.54322  0.43400  0.28470  Biso   1.000  O
  C52      1.0000 0.69152  0.40581  0.34530  Biso   1.000  C
  C53      1.0000 0.22708  0.30111  0.35711  Biso   1.000  C
  H55      1.0000 0.33067  0.28498  0.33959  Biso   1.000  H
  O42      1.0000 0.29861  0.35339  0.30809  Biso   1.000  O
  O43      1.0000 0.26098  0.29739  0.42736  Biso   1.000  O
  H56      1.0000 0.36342  0.28798  0.41710  Biso   1.000  H
  C54      1.0000 0.34731  0.35390  0.45619  Biso   1.000  C
  H57      1.0000 0.68512  0.44729  0.34920  Biso   1.000  H
  C55      1.0000 0.72611  0.39559  0.30259  Biso   1.000  C
  O44      1.0000 0.73529  0.38559  0.37692  Biso   1.000  O
  O45      1.0000 0.19638  0.27038  0.32348  Biso   1.000  O
  C56      1.0000 0.23201  0.26578  0.39500  Biso   1.000  C
  H58      1.0000 0.19822  0.33542  0.36301  Biso   1.000  H
  H59      1.0000 0.34201  0.33060  0.48141  Biso   1.000  H
  H60      1.0000 0.39690  0.36618  0.45440  Biso   1.000  H
  O46      1.0000 0.30218  0.40268  0.45891  Biso   1.000  O
  H61      1.0000 0.77271  0.41480  0.30151  Biso   1.000  H
  O47      1.0000 0.68308  0.41589  0.27082  Biso   1.000  O
  C57      1.0000 0.73597  0.33208  0.29790  Biso   1.000  C
  C58      1.0000 0.74852  0.32432  0.37411  Biso   1.000  C
  O48      1.0000 0.27410  0.21839  0.38647  Biso   1.000  O
  H62      1.0000 0.18399  0.25279  0.40300  Biso   1.000  H
  H63      1.0000 0.68911  0.31309  0.29820  Biso   1.000  H
  O49      1.0000 0.77108  0.31959  0.25994  Biso   1.000  O
  C59      1.0000 0.77932  0.31090  0.33331  Biso   1.000  C
  H64      1.0000 0.70349  0.30322  0.37779  Biso   1.000  H
  C60      1.0000 0.79570  0.31288  0.40959  Biso   1.000  C
  C61      1.0000 0.24571  0.16252  0.39281  Biso   1.000  C
  H65      1.0000 0.82802  0.32638  0.33140  Biso   1.000  H
  O50      1.0000 0.78100  0.25030  0.32920  Biso   1.000  O
  H66      1.0000 0.77271  0.32571  0.43539  Biso   1.000  H
  H67      1.0000 0.80341  0.27169  0.41190  Biso   1.000  H
  O51      1.0000 0.86208  0.34048  0.40566  Biso   1.000  O
  C62      1.0000 0.24991  0.13310  0.35331  Biso   1.000  C
  H68      1.0000 0.19570  0.16509  0.40189  Biso   1.000  H
  C63      1.0000 0.28848  0.13551  0.42560  Biso   1.000  C
  C64      1.0000 0.84440  0.22299  0.33010  Biso   1.000  C
  C65      1.0000 0.22913  0.07052  0.36119  Biso   1.000  C
  H69      1.0000 0.29940  0.13458  0.34289  Biso   1.000  H
  O52      1.0000 0.20441  0.15551  0.32271  Biso   1.000  O
  H70      1.0000 0.33918  0.13872  0.41781  Biso   1.000  H
  C66      1.0000 0.27888  0.16011  0.46831  Biso   1.000  C
  O53      1.0000 0.27111  0.07702  0.42921  Biso   1.000  O
  H71      1.0000 0.88302  0.25160  0.32920  Biso   1.000  H
  C67      1.0000 0.84870  0.18640  0.29199  Biso   1.000  C
  O54      1.0000 0.85122  0.19109  0.36561  Biso   1.000  O
  C68      1.0000 0.27442  0.04541  0.39250  Biso   1.000  C
  O55      1.0000 0.23238  0.03912  0.32376  Biso   1.000  O
  H72      1.0000 0.31472  0.14399  0.48700  Biso   1.000  H
  H73      1.0000 0.28659  0.20138  0.46701  Biso   1.000  H
  O56      1.0000 0.21322  0.14969  0.48416  Biso   1.000  O
  H74      1.0000 0.89520  0.16691  0.29270  Biso   1.000  H
  O57      1.0000 0.84618  0.21818  0.25509  Biso   1.000  O
  C69      1.0000 0.79438  0.14239  0.29400  Biso   1.000  C
  C70      1.0000 0.79969  0.14728  0.37049  Biso   1.000  C
  H75      1.0000 0.25862  0.00591  0.39821  Biso   1.000  H
  O58      1.0000 0.34469  0.04440  0.37729  Biso   1.000  O
  H76      1.0000 0.74689  0.16049  0.29360  Biso   1.000  H
  O59      1.0000 0.80157  0.10559  0.25821  Biso   1.000  O
  C71      1.0000 0.80252  0.10841  0.33279  Biso   1.000  C
  H77      1.0000 0.75219  0.16522  0.37151  Biso   1.000  H
  C72      1.0000 0.81301  0.11930  0.41070  Biso   1.000  C
  C73      1.0000 0.37838  0.99198  0.37460  Biso   1.000  C
  O60      1.0000 0.74479  0.07081  0.33634  Biso   1.000  O
  H78      1.0000 0.84770  0.08689  0.33229  Biso   1.000  H
  H79      1.0000 0.81322  0.14792  0.43301  Biso   1.000  H
  H80      1.0000 0.77512  0.09191  0.41651  Biso   1.000  H
  O61      1.0000 0.87499  0.09251  0.40990  Biso   1.000  O
  C74      1.0000 0.40981  0.98679  0.33350  Biso   1.000  C
  H81      1.0000 0.34311  0.96130  0.37850  Biso   1.000  H
  C75      1.0000 0.43432  0.98721  0.40789  Biso   1.000  C
  C76      1.0000 0.76148  0.01199  0.33918  Biso   1.000  C
  H82      1.0000 0.44209  0.01941  0.32880  Biso   1.000  H
  C77      1.0000 0.45180  0.93172  0.33001  Biso   1.000  C
  O62      1.0000 0.35718  0.98671  0.30228  Biso   1.000  O
  H83      1.0000 0.46507  0.02131  0.40690  Biso   1.000  H
  O63      1.0000 0.47699  0.93750  0.40273  Biso   1.000  O
  C78      1.0000 0.40441  0.98168  0.45001  Biso   1.000  C
  C79      1.0000 0.72579  0.98088  0.30451  Biso   1.000  C
  O64      1.0000 0.73991  0.99110  0.37763  Biso   1.000  O
  H84      1.0000 0.81338  0.00722  0.33650  Biso   1.000  H
  C80      1.0000 0.50711  0.93252  0.36351  Biso   1.000  C
  H85      1.0000 0.41910  0.89969  0.33600  Biso   1.000  H
  O65      1.0000 0.48019  0.92298  0.29122  Biso   1.000  O
  O66      1.0000 0.36101  0.93298  0.45322  Biso   1.000  O
  C81      1.0000 0.64671  0.98962  0.30880  Biso   1.000  C
  O67      1.0000 0.74999  0.00118  0.26631  Biso   1.000  O
  H86      1.0000 0.73681  0.93982  0.30670  Biso   1.000  H
  C82      1.0000 0.66507  0.99388  0.38462  Biso   1.000  C
  O68      1.0000 0.55251  0.97789  0.35578  Biso   1.000  O
  H87      1.0000 0.53451  0.89648  0.36221  Biso   1.000  H
  C83      1.0000 0.62582  0.96641  0.35019  Biso   1.000  C
  H88      1.0000 0.63448  0.03051  0.30670  Biso   1.000  H
  O69      1.0000 0.61260  0.95788  0.27685  Biso   1.000  O
  H89      1.0000 0.65091  0.03452  0.38591  Biso   1.000  H
  C84      1.0000 0.65211  0.96759  0.42560  Biso   1.000  C
  H90      1.0000 0.63401  0.92471  0.35081  Biso   1.000  H
  H91      1.0000 0.68008  0.98759  0.44680  Biso   1.000  H
  H92      1.0000 0.60189  0.97168  0.43280  Biso   1.000  H
  O70      1.0000 0.67069  0.90830  0.42566  Biso   1.000  O
  O71      1.0000 0.37502  0.40749  0.59010  Biso   1.000  O
  C85      1.0000 0.31299  0.38070  0.58930  Biso   1.000  C
  C86      1.0000 0.29971  0.35272  0.62951  Biso   1.000  C
  H93      1.0000 0.31320  0.35208  0.56699  Biso   1.000  H
  H94      1.0000 0.27510  0.40809  0.58349  Biso   1.000  H
  O72      1.0000 0.35119  0.30891  0.63439  Biso   1.000  O
  C87      1.0000 0.30249  0.39159  0.66721  Biso   1.000  C
  H95      1.0000 0.25222  0.33478  0.62849  Biso   1.000  H
  C88      1.0000 0.34442  0.27701  0.66990  Biso   1.000  C
  C89      1.0000 0.29441  0.35761  0.70600  Biso   1.000  C
  H96      1.0000 0.34768  0.41311  0.66771  Biso   1.000  H
  O73      1.0000 0.24482  0.42919  0.66366  Biso   1.000  O
  O74      1.0000 0.28098  0.24970  0.67080  Biso   1.000  O
  H97      1.0000 0.38300  0.24840  0.67080  Biso   1.000  H
  C90      1.0000 0.34867  0.31360  0.70801  Biso   1.000  C
  H98      1.0000 0.24692  0.33951  0.70640  Biso   1.000  H
  O75      1.0000 0.30160  0.39441  0.74179  Biso   1.000  O
  C91      1.0000 0.26151  0.48801  0.66082  Biso   1.000  C
  C92      1.0000 0.27930  0.18910  0.66669  Biso   1.000  C
  H99      1.0000 0.39522  0.33309  0.70730  Biso   1.000  H
  O76      1.0000 0.34621  0.28182  0.74491  Biso   1.000  O
  H100     1.0000 0.31341  0.49278  0.66350  Biso   1.000  H
  C93      1.0000 0.22582  0.51912  0.69549  Biso   1.000  C
  O77      1.0000 0.23988  0.50890  0.62237  Biso   1.000  O
  C94      1.0000 0.24849  0.17568  0.62589  Biso   1.000  C
  C95      1.0000 0.23600  0.16792  0.70210  Biso   1.000  C
  H101     1.0000 0.32800  0.17362  0.66860  Biso   1.000  H
  H102     1.0000 0.23679  0.56018  0.69330  Biso   1.000  H
  O78      1.0000 0.25001  0.49882  0.73369  Biso   1.000  O
  C96      1.0000 0.14668  0.51038  0.69120  Biso   1.000  C
  C97      1.0000 0.16510  0.50612  0.61538  Biso   1.000  C
  C98      1.0000 0.29572  0.18712  0.59041  Biso   1.000  C
  H103     1.0000 0.20352  0.19678  0.62221  Biso   1.000  H
  O79      1.0000 0.23532  0.11441  0.62308  Biso   1.000  O
  C99      1.0000 0.22608  0.10441  0.69741  Biso   1.000  C
  H104     1.0000 0.18908  0.18691  0.70180  Biso   1.000  H
  O80      1.0000 0.27111  0.18041  0.74006  Biso   1.000  O
  H105     1.0000 0.13451  0.46949  0.69330  Biso   1.000  H
  O81      1.0000 0.11262  0.54212  0.72315  Biso   1.000  O
  C100     1.0000 0.12579  0.53359  0.64981  Biso   1.000  C
  H106     1.0000 0.15088  0.46548  0.61409  Biso   1.000  H
  C101     1.0000 0.15209  0.53241  0.57440  Biso   1.000  C
  H107     1.0000 0.27268  0.17429  0.56461  Biso   1.000  H
  H108     1.0000 0.30338  0.22831  0.58810  Biso   1.000  H
  O82      1.0000 0.36211  0.15952  0.59434  Biso   1.000  O
  C102     1.0000 0.19150  0.09419  0.65470  Biso   1.000  C
  H109     1.0000 0.27268  0.08520  0.69849  Biso   1.000  H
  O83      1.0000 0.18310  0.08411  0.72918  Biso   1.000  O
  H110     1.0000 0.13398  0.57529  0.64919  Biso   1.000  H
  O84      1.0000 0.05248  0.52211  0.64422  Biso   1.000  O
  H111     1.0000 0.18011  0.51241  0.55320  Biso   1.000  H
  H112     1.0000 0.10192  0.52832  0.56720  Biso   1.000  H
  O85      1.0000 0.17072  0.59170  0.57434  Biso   1.000  O
  O86      1.0000 0.12642  0.11939  0.65494  Biso   1.000  O
  H113     1.0000 0.18510  0.05271  0.65080  Biso   1.000  H
  C103     1.0000 0.00708  0.56748  0.63649  Biso   1.000  C
  C104     1.0000 0.06938  0.08681  0.64391  Biso   1.000  C
  H114     1.0000 0.03448  0.60352  0.63779  Biso   1.000  H
  C105     1.0000 0.95182  0.56828  0.66999  Biso   1.000  C
  O87      1.0000 0.97701  0.56250  0.59727  Biso   1.000  O
  C106     1.0000 0.01380  0.08951  0.67871  Biso   1.000  C
  H115     1.0000 0.08517  0.04680  0.64070  Biso   1.000  H
  C107     1.0000 0.03810  0.10571  0.60460  Biso   1.000  C
  H116     1.0000 0.91908  0.60031  0.66400  Biso   1.000  H
  O88      1.0000 0.98022  0.57702  0.70878  Biso   1.000  O
  C108     1.0000 0.90979  0.51321  0.66650  Biso   1.000  C
  C109     1.0000 0.93430  0.51279  0.59211  Biso   1.000  C
  H117     1.0000 0.00031  0.12968  0.68381  Biso   1.000  H
  O89      1.0000 0.04319  0.06600  0.71530  Biso   1.000  O
  C110     1.0000 0.95130  0.05689  0.66579  Biso   1.000  C
  H118     1.0000 0.02551  0.14648  0.60719  Biso   1.000  H
  C111     1.0000 0.08622  0.09858  0.56850  Biso   1.000  C
  O90      1.0000 0.97680  0.07478  0.59449  Biso   1.000  O
  H119     1.0000 0.94211  0.48059  0.67120  Biso   1.000  H
  O91      1.0000 0.85720  0.51329  0.69772  Biso   1.000  O
  C112     1.0000 0.87840  0.50802  0.62540  Biso   1.000  C
  H120     1.0000 0.96510  0.47869  0.59310  Biso   1.000  H
  C113     1.0000 0.90438  0.51832  0.54999  Biso   1.000  C
  C114     1.0000 0.92548  0.07782  0.62481  Biso   1.000  C
  H121     1.0000 0.96620  0.01671  0.66221  Biso   1.000  H
  O92      1.0000 0.89698  0.05782  0.69561  Biso   1.000  O
  H122     1.0000 0.06009  0.10508  0.54251  Biso   1.000  H
  H123     1.0000 0.12480  0.12652  0.56998  Biso   1.000  H
  O93      1.0000 0.11462  0.04241  0.56881  Biso   1.000  O
  H124     1.0000 0.84309  0.53870  0.62150  Biso   1.000  H
  O94      1.0000 0.84471  0.45560  0.62271  Biso   1.000  O
  O95      1.0000 0.86098  0.56702  0.54678  Biso   1.000  O
  O96      1.0000 0.90050  0.13361  0.63087  Biso   1.000  O
  H125     1.0000 0.88512  0.05360  0.61610  Biso   1.000  H
  C115     1.0000 0.77439  0.45459  0.60750  Biso   1.000  C
  C116     1.0000 0.83039  0.14741  0.61971  Biso   1.000  C
  C117     1.0000 0.72910  0.42948  0.63881  Biso   1.000  C
  O97      1.0000 0.77108  0.42298  0.57079  Biso   1.000  O
  H126     1.0000 0.75859  0.49409  0.60179  Biso   1.000  H
  C118     1.0000 0.80100  0.18092  0.65541  Biso   1.000  C
  H127     1.0000 0.80262  0.11192  0.61619  Biso   1.000  H
  C119     1.0000 0.82928  0.18011  0.58049  Biso   1.000  C
  C120     1.0000 0.74988  0.36690  0.64669  Biso   1.000  C
  O98      1.0000 0.73241  0.46088  0.67624  Biso   1.000  O
  C121     1.0000 0.78851  0.36449  0.57440  Biso   1.000  C
  C122     1.0000 0.72711  0.19889  0.64289  Biso   1.000  C
  H128     1.0000 0.83070  0.21502  0.66041  Biso   1.000  H
  O99      1.0000 0.79858  0.14661  0.69191  Biso   1.000  O
  H129     1.0000 0.86340  0.21202  0.58290  Biso   1.000  H
  C123     1.0000 0.84728  0.14610  0.54381  Biso   1.000  C
  O100     1.0000 0.76101  0.20261  0.57264  Biso   1.000  O
  C124     1.0000 0.74568  0.33748  0.60719  Biso   1.000  C
  H130     1.0000 0.79942  0.36542  0.65711  Biso   1.000  H
  O101     1.0000 0.70438  0.34449  0.67729  Biso   1.000  O
  H131     1.0000 0.83920  0.36128  0.58219  Biso   1.000  H
  C125     1.0000 0.77890  0.33989  0.53169  Biso   1.000  C
  C126     1.0000 0.73199  0.23422  0.60500  Biso   1.000  C
  H132     1.0000 0.69819  0.16458  0.63699  Biso   1.000  H
  O102     1.0000 0.69641  0.22962  0.67652  Biso   1.000  O
  H133     1.0000 0.84198  0.16940  0.51859  Biso   1.000  H
  H134     1.0000 0.89688  0.13382  0.54560  Biso   1.000  H
  O103     1.0000 0.80220  0.09732  0.54109  Biso   1.000  O
  O104     1.0000 0.77408  0.28161  0.61353  Biso   1.000  O
  H135     1.0000 0.69572  0.33491  0.59811  Biso   1.000  H
  H136     1.0000 0.81469  0.35601  0.51300  Biso   1.000  H
  H137     1.0000 0.78662  0.29862  0.53299  Biso   1.000  H
  O105     1.0000 0.71320  0.35031  0.51584  Biso   1.000  O
  H138     1.0000 0.68402  0.24721  0.59700  Biso   1.000  H
  O106     1.0000 0.37502  0.59251  0.40990  Biso   1.000  O
  C127     1.0000 0.31299  0.61930  0.41070  Biso   1.000  C
  C128     1.0000 0.29971  0.64728  0.37049  Biso   1.000  C
  H139     1.0000 0.31320  0.64792  0.43301  Biso   1.000  H
  H140     1.0000 0.27510  0.59191  0.41651  Biso   1.000  H
  C129     1.0000 0.30249  0.60841  0.33279  Biso   1.000  C
  H141     1.0000 0.25222  0.66522  0.37151  Biso   1.000  H
  O107     1.0000 0.35119  0.69109  0.36561  Biso   1.000  O
  O108     1.0000 0.24482  0.57081  0.33634  Biso   1.000  O
  C130     1.0000 0.29441  0.64239  0.29400  Biso   1.000  C
  H142     1.0000 0.34768  0.58689  0.33229  Biso   1.000  H
  C131     1.0000 0.34442  0.72299  0.33010  Biso   1.000  C
  C132     1.0000 0.26151  0.51199  0.33918  Biso   1.000  C
  C133     1.0000 0.34867  0.68640  0.29199  Biso   1.000  C
  H143     1.0000 0.24692  0.66049  0.29360  Biso   1.000  H
  O109     1.0000 0.30160  0.60559  0.25821  Biso   1.000  O
  O110     1.0000 0.28098  0.75030  0.32920  Biso   1.000  O
  H144     1.0000 0.38300  0.75160  0.32920  Biso   1.000  H
  C134     1.0000 0.22582  0.48088  0.30451  Biso   1.000  C
  H145     1.0000 0.31341  0.50722  0.33650  Biso   1.000  H
  O111     1.0000 0.23988  0.49110  0.37763  Biso   1.000  O
  H146     1.0000 0.39522  0.66691  0.29270  Biso   1.000  H
  O112     1.0000 0.34621  0.71818  0.25509  Biso   1.000  O
  C135     1.0000 0.27930  0.81090  0.33331  Biso   1.000  C
  C136     1.0000 0.14668  0.48962  0.30880  Biso   1.000  C
  H147     1.0000 0.23679  0.43982  0.30670  Biso   1.000  H
  O113     1.0000 0.25001  0.50118  0.26631  Biso   1.000  O
  C137     1.0000 0.16510  0.49388  0.38462  Biso   1.000  C
  C138     1.0000 0.23600  0.83208  0.29790  Biso   1.000  C
  H148     1.0000 0.32800  0.82638  0.33140  Biso   1.000  H
  C139     1.0000 0.24849  0.82432  0.37411  Biso   1.000  C
  O114     1.0000 0.11262  0.45788  0.27685  Biso   1.000  O
  H149     1.0000 0.13451  0.53051  0.30670  Biso   1.000  H
  C140     1.0000 0.12579  0.46641  0.35019  Biso   1.000  C
  H150     1.0000 0.15088  0.53452  0.38591  Biso   1.000  H
  C141     1.0000 0.15209  0.46759  0.42560  Biso   1.000  C
  C142     1.0000 0.22608  0.89559  0.30259  Biso   1.000  C
  H151     1.0000 0.18908  0.81309  0.29820  Biso   1.000  H
  O115     1.0000 0.27111  0.81959  0.25994  Biso   1.000  O
  H152     1.0000 0.20352  0.80322  0.37779  Biso   1.000  H
  O116     1.0000 0.23532  0.88559  0.37692  Biso   1.000  O
  C143     1.0000 0.29572  0.81288  0.40959  Biso   1.000  C
  H153     1.0000 0.13398  0.42471  0.35081  Biso   1.000  H
  O117     1.0000 0.05248  0.47789  0.35578  Biso   1.000  O
  H154     1.0000 0.18011  0.48759  0.44680  Biso   1.000  H
  H155     1.0000 0.10192  0.47168  0.43280  Biso   1.000  H
  O118     1.0000 0.17072  0.40830  0.42566  Biso   1.000  O
  C144     1.0000 0.19150  0.90581  0.34530  Biso   1.000  C
  H156     1.0000 0.27268  0.91480  0.30151  Biso   1.000  H
  O119     1.0000 0.18310  0.91589  0.27082  Biso   1.000  O
  H157     1.0000 0.27268  0.82571  0.43539  Biso   1.000  H
  H158     1.0000 0.30338  0.77169  0.41190  Biso   1.000  H
  O120     1.0000 0.36211  0.84048  0.40566  Biso   1.000  O
  C145     1.0000 0.00708  0.43252  0.36351  Biso   1.000  C
  O121     1.0000 0.12642  0.88061  0.34506  Biso   1.000  O
  H159     1.0000 0.18510  0.94729  0.34920  Biso   1.000  H
  H160     1.0000 0.03448  0.39648  0.36221  Biso   1.000  H
  C146     1.0000 0.95182  0.43172  0.33001  Biso   1.000  C
  O122     1.0000 0.97701  0.43750  0.40273  Biso   1.000  O
  C147     1.0000 0.06938  0.91319  0.35609  Biso   1.000  C
  H161     1.0000 0.91908  0.39969  0.33600  Biso   1.000  H
  O123     1.0000 0.98022  0.42298  0.29122  Biso   1.000  O
  C148     1.0000 0.90979  0.48679  0.33350  Biso   1.000  C
  C149     1.0000 0.93430  0.48721  0.40789  Biso   1.000  C
  C150     1.0000 0.01380  0.91049  0.32129  Biso   1.000  C
  H162     1.0000 0.08517  0.95320  0.35930  Biso   1.000  H
  C151     1.0000 0.03810  0.89429  0.39540  Biso   1.000  C
  H163     1.0000 0.94211  0.51941  0.32880  Biso   1.000  H
  O124     1.0000 0.85720  0.48671  0.30228  Biso   1.000  O
  C152     1.0000 0.87840  0.49198  0.37460  Biso   1.000  C
  H164     1.0000 0.96510  0.52131  0.40690  Biso   1.000  H
  C153     1.0000 0.90438  0.48168  0.45001  Biso   1.000  C
  H165     1.0000 0.00031  0.87032  0.31619  Biso   1.000  H
  O125     1.0000 0.04319  0.93400  0.28470  Biso   1.000  O
  C154     1.0000 0.95130  0.94311  0.33421  Biso   1.000  C
  H166     1.0000 0.02551  0.85352  0.39281  Biso   1.000  H
  C155     1.0000 0.08622  0.90142  0.43150  Biso   1.000  C
  O126     1.0000 0.97680  0.92522  0.40551  Biso   1.000  O
  H167     1.0000 0.84309  0.46130  0.37850  Biso   1.000  H
  O127     1.0000 0.84471  0.54440  0.37729  Biso   1.000  O
  O128     1.0000 0.86098  0.43298  0.45322  Biso   1.000  O
  C156     1.0000 0.92548  0.92218  0.37519  Biso   1.000  C
  H168     1.0000 0.96620  0.98329  0.33779  Biso   1.000  H
  O129     1.0000 0.89698  0.94218  0.30439  Biso   1.000  O
  H169     1.0000 0.06009  0.89492  0.45749  Biso   1.000  H
  H170     1.0000 0.12480  0.87348  0.43002  Biso   1.000  H
  O130     1.0000 0.11462  0.95759  0.43119  Biso   1.000  O
  C157     1.0000 0.77439  0.54541  0.39250  Biso   1.000  C
  O131     1.0000 0.90050  0.86639  0.36913  Biso   1.000  O
  H171     1.0000 0.88512  0.94640  0.38390  Biso   1.000  H
  H172     1.0000 0.75859  0.50591  0.39821  Biso   1.000  H
  C158     1.0000 0.72910  0.57052  0.36119  Biso   1.000  C
  O132     1.0000 0.77108  0.57702  0.42921  Biso   1.000  O
  C159     1.0000 0.83039  0.85259  0.38029  Biso   1.000  C
  O133     1.0000 0.73241  0.53912  0.32376  Biso   1.000  O
  C160     1.0000 0.74988  0.63310  0.35331  Biso   1.000  C
  C161     1.0000 0.78851  0.63551  0.42560  Biso   1.000  C
  C162     1.0000 0.80100  0.81908  0.34459  Biso   1.000  C
  C163     1.0000 0.82928  0.81989  0.41951  Biso   1.000  C
  H173     1.0000 0.80262  0.88808  0.38381  Biso   1.000  H
  H174     1.0000 0.79942  0.63458  0.34289  Biso   1.000  H
  O134     1.0000 0.70438  0.65551  0.32271  Biso   1.000  O
  C164     1.0000 0.74568  0.66252  0.39281  Biso   1.000  C
  H175     1.0000 0.83920  0.63872  0.41781  Biso   1.000  H
  C165     1.0000 0.77890  0.66011  0.46831  Biso   1.000  C
  C166     1.0000 0.72711  0.80111  0.35711  Biso   1.000  C
  H176     1.0000 0.83070  0.78498  0.33959  Biso   1.000  H
  O135     1.0000 0.79858  0.85339  0.30809  Biso   1.000  O
  O136     1.0000 0.76101  0.79739  0.42736  Biso   1.000  O
  H177     1.0000 0.86340  0.78798  0.41710  Biso   1.000  H
  C167     1.0000 0.84728  0.85390  0.45619  Biso   1.000  C
  H178     1.0000 0.69572  0.66509  0.40189  Biso   1.000  H
  O137     1.0000 0.77408  0.71839  0.38647  Biso   1.000  O
  H179     1.0000 0.81469  0.64399  0.48700  Biso   1.000  H
  H180     1.0000 0.78662  0.70138  0.46701  Biso   1.000  H
  O138     1.0000 0.71320  0.64969  0.48416  Biso   1.000  O
  C168     1.0000 0.73199  0.76578  0.39500  Biso   1.000  C
  H181     1.0000 0.69819  0.83542  0.36301  Biso   1.000  H
  O139     1.0000 0.69641  0.77038  0.32348  Biso   1.000  O
  H182     1.0000 0.84198  0.83060  0.48141  Biso   1.000  H
  H183     1.0000 0.89688  0.86618  0.45440  Biso   1.000  H
  O140     1.0000 0.80220  0.90268  0.45891  Biso   1.000  O
  H184     1.0000 0.68402  0.75279  0.40300  Biso   1.000  H
  O141     1.0000 0.45678  0.56600  0.78468  Biso   1.000  O
  C169     1.0000 0.48622  0.58951  0.82131  Biso   1.000  C
  C170     1.0000 0.43060  0.58681  0.85611  Biso   1.000  C
  C171     1.0000 0.54867  0.55689  0.83419  Biso   1.000  C
  H185     1.0000 0.49971  0.62968  0.81621  Biso   1.000  H
  O142     1.0000 0.37360  0.61939  0.84507  Biso   1.000  O
  H186     1.0000 0.41480  0.54680  0.85929  Biso   1.000  H
  C172     1.0000 0.46193  0.60571  0.89539  Biso   1.000  C
  C173     1.0000 0.57449  0.57782  0.87520  Biso   1.000  C
  H187     1.0000 0.53382  0.51671  0.83781  Biso   1.000  H
  O143     1.0000 0.60299  0.55782  0.80440  Biso   1.000  O
  C174     1.0000 0.30848  0.59419  0.84529  Biso   1.000  C
  H188     1.0000 0.47452  0.64648  0.89279  Biso   1.000  H
  C175     1.0000 0.41380  0.59858  0.93151  Biso   1.000  C
  O144     1.0000 0.52322  0.57478  0.90549  Biso   1.000  O
  O145     1.0000 0.59948  0.63361  0.86912  Biso   1.000  O
  H189     1.0000 0.61490  0.55360  0.88389  Biso   1.000  H
  C176     1.0000 0.27389  0.60441  0.80261  Biso   1.000  C
  H190     1.0000 0.31488  0.55271  0.84921  Biso   1.000  H
  O146     1.0000 0.26471  0.61441  0.87690  Biso   1.000  O
  H191     1.0000 0.43988  0.60508  0.95751  Biso   1.000  H
  H192     1.0000 0.37518  0.62652  0.93000  Biso   1.000  H
  O147     1.0000 0.38541  0.54241  0.93120  Biso   1.000  O
  C177     1.0000 0.66959  0.64741  0.88030  Biso   1.000  C
  O148     1.0000 0.31692  0.58411  0.77084  Biso   1.000  O
  H193     1.0000 0.22729  0.58520  0.80150  Biso   1.000  H
  C178     1.0000 0.26403  0.66792  0.79791  Biso   1.000  C
  C179     1.0000 0.25148  0.67568  0.87409  Biso   1.000  C
  C180     1.0000 0.69898  0.68092  0.84461  Biso   1.000  C
  H194     1.0000 0.69740  0.61192  0.88380  Biso   1.000  H
  C181     1.0000 0.67069  0.68011  0.91949  Biso   1.000  C
  H195     1.0000 0.31089  0.68691  0.79819  Biso   1.000  H
  O149     1.0000 0.22892  0.68041  0.75996  Biso   1.000  O
  C182     1.0000 0.22068  0.68910  0.83330  Biso   1.000  C
  H196     1.0000 0.29651  0.69678  0.87780  Biso   1.000  H
  C183     1.0000 0.20430  0.68712  0.90960  Biso   1.000  C
  C184     1.0000 0.77292  0.69889  0.85709  Biso   1.000  C
  H197     1.0000 0.66933  0.71502  0.83960  Biso   1.000  H
  O150     1.0000 0.70139  0.64661  0.80808  Biso   1.000  O
  H198     1.0000 0.63658  0.71202  0.91711  Biso   1.000  H
  C185     1.0000 0.65269  0.64610  0.95621  Biso   1.000  C
  O151     1.0000 0.73902  0.70261  0.92737  Biso   1.000  O
  H199     1.0000 0.17198  0.67362  0.83141  Biso   1.000  H
  O152     1.0000 0.21900  0.74970  0.82919  Biso   1.000  O
  H200     1.0000 0.22729  0.67429  0.93541  Biso   1.000  H
  H201     1.0000 0.19659  0.72831  0.91189  Biso   1.000  H
  O153     1.0000 0.13792  0.65952  0.90568  Biso   1.000  O
  C186     1.0000 0.76799  0.73422  0.89501  Biso   1.000  C
  H202     1.0000 0.80178  0.66458  0.86300  Biso   1.000  H
  O154     1.0000 0.80362  0.72962  0.82350  Biso   1.000  O
  H203     1.0000 0.65799  0.66940  0.98140  Biso   1.000  H
  H204     1.0000 0.60310  0.63382  0.95441  Biso   1.000  H
  O155     1.0000 0.69782  0.59732  0.95890  Biso   1.000  O
  C187     1.0000 0.15560  0.77701  0.83011  Biso   1.000  C
  O156     1.0000 0.72590  0.78161  0.88649  Biso   1.000  O
  H205     1.0000 0.81601  0.74721  0.90299  Biso   1.000  H
  H206     1.0000 0.11698  0.74840  0.82919  Biso   1.000  H
  C188     1.0000 0.15130  0.81360  0.79201  Biso   1.000  C
  O157     1.0000 0.14878  0.80891  0.86559  Biso   1.000  O
  C189     1.0000 0.75429  0.83748  0.89279  Biso   1.000  C
  H207     1.0000 0.10480  0.83309  0.79269  Biso   1.000  H
  O158     1.0000 0.15382  0.78182  0.75511  Biso   1.000  O
  C190     1.0000 0.20562  0.85761  0.79399  Biso   1.000  C
  C191     1.0000 0.20031  0.85272  0.87051  Biso   1.000  C
  C192     1.0000 0.75009  0.86690  0.85329  Biso   1.000  C
  H208     1.0000 0.80430  0.83491  0.90191  Biso   1.000  H
  C193     1.0000 0.71152  0.86449  0.92561  Biso   1.000  C
  H209     1.0000 0.25311  0.83951  0.79361  Biso   1.000  H
  O159     1.0000 0.19843  0.89441  0.75820  Biso   1.000  O
  C194     1.0000 0.19748  0.89159  0.83280  Biso   1.000  C
  H210     1.0000 0.24781  0.83478  0.87150  Biso   1.000  H
  C195     1.0000 0.18699  0.88070  0.91071  Biso   1.000  C
  C196     1.0000 0.77087  0.92948  0.86120  Biso   1.000  C
  H211     1.0000 0.70060  0.86542  0.84291  Biso   1.000  H
  O160     1.0000 0.79559  0.84449  0.82270  Biso   1.000  O
  H212     1.0000 0.66082  0.86128  0.91779  Biso   1.000  H
  C197     1.0000 0.72112  0.83989  0.96829  Biso   1.000  C
  O161     1.0000 0.72889  0.92298  0.92923  Biso   1.000  O
  H213     1.0000 0.15230  0.91311  0.83231  Biso   1.000  H
  O162     1.0000 0.25521  0.92919  0.83633  Biso   1.000  O
  H214     1.0000 0.18678  0.85208  0.93300  Biso   1.000  H
  H215     1.0000 0.22488  0.90809  0.91649  Biso   1.000  H
  O163     1.0000 0.12501  0.90749  0.90991  Biso   1.000  O
  C198     1.0000 0.72558  0.95459  0.89251  Biso   1.000  C
  O164     1.0000 0.76762  0.96088  0.82378  Biso   1.000  O
  H216     1.0000 0.68528  0.85601  0.98699  Biso   1.000  H
  H217     1.0000 0.71341  0.79862  0.96699  Biso   1.000  H
  O165     1.0000 0.78678  0.85031  0.98415  Biso   1.000  O
  C199     1.0000 0.23852  0.98801  0.83920  Biso   1.000  C
  H218     1.0000 0.74138  0.99409  0.89820  Biso   1.000  H
  O166     1.0000 0.65531  0.95560  0.87728  Biso   1.000  O
  H219     1.0000 0.18662  0.99278  0.83651  Biso   1.000  H
  C200     1.0000 0.27421  0.01912  0.80449  Biso   1.000  C
  O167     1.0000 0.26009  0.00890  0.87762  Biso   1.000  O
  C201     1.0000 0.62162  0.00802  0.87459  Biso   1.000  C
  O168     1.0000 0.25001  0.99882  0.76629  Biso   1.000  O
  H220     1.0000 0.26319  0.06018  0.80669  Biso   1.000  H
  C202     1.0000 0.35329  0.01038  0.80879  Biso   1.000  C
  C203     1.0000 0.33493  0.00612  0.88460  Biso   1.000  C
  C204     1.0000 0.59019  0.01321  0.83351  Biso   1.000  C
  C205     1.0000 0.56568  0.01279  0.90790  Biso   1.000  C
  H221     1.0000 0.65689  0.03870  0.87851  Biso   1.000  H
  H222     1.0000 0.36552  0.96949  0.80669  Biso   1.000  H
  O169     1.0000 0.38740  0.04212  0.77686  Biso   1.000  O
  C206     1.0000 0.37418  0.03359  0.85020  Biso   1.000  C
  H223     1.0000 0.34909  0.96548  0.88590  Biso   1.000  H
  C207     1.0000 0.34789  0.03241  0.92561  Biso   1.000  C
  C208     1.0000 0.54820  0.06828  0.82999  Biso   1.000  C
  H224     1.0000 0.55791  0.98059  0.82879  Biso   1.000  H
  O170     1.0000 0.64282  0.01329  0.80230  Biso   1.000  O
  O171     1.0000 0.52301  0.06250  0.90274  Biso   1.000  O
  H225     1.0000 0.53493  0.97869  0.90691  Biso   1.000  H
  C209     1.0000 0.59559  0.01832  0.95000  Biso   1.000  C
  H226     1.0000 0.36599  0.07529  0.85079  Biso   1.000  H
  O172     1.0000 0.44749  0.02211  0.85577  Biso   1.000  O
  H227     1.0000 0.31992  0.01241  0.94681  Biso   1.000  H
  H228     1.0000 0.39811  0.02832  0.93281  Biso   1.000  H
  O173     1.0000 0.32931  0.09170  0.92567  Biso   1.000  O
  C210     1.0000 0.49289  0.06748  0.86349  Biso   1.000  C
  H229     1.0000 0.58090  0.10031  0.83599  Biso   1.000  H
  O174     1.0000 0.51981  0.07702  0.79124  Biso   1.000  O
  O175     1.0000 0.63899  0.06702  0.95324  Biso   1.000  O
  H230     1.0000 0.46549  0.10352  0.86219  Biso   1.000  H
  O176     1.0000 0.45678  0.43400  0.21532  Biso   1.000  O
  C211     1.0000 0.48622  0.41049  0.17869  Biso   1.000  C
  C212     1.0000 0.43060  0.41319  0.14389  Biso   1.000  C
  C213     1.0000 0.54867  0.44311  0.16581  Biso   1.000  C
  H231     1.0000 0.49971  0.37032  0.18379  Biso   1.000  H
  O177     1.0000 0.37360  0.38061  0.15493  Biso   1.000  O
  H232     1.0000 0.41480  0.45320  0.14071  Biso   1.000  H
  C214     1.0000 0.46193  0.39429  0.10461  Biso   1.000  C
  C215     1.0000 0.57449  0.42218  0.12480  Biso   1.000  C
  H233     1.0000 0.53382  0.48329  0.16219  Biso   1.000  H
  O178     1.0000 0.60299  0.44218  0.19560  Biso   1.000  O
  C216     1.0000 0.30848  0.40581  0.15471  Biso   1.000  C
  H234     1.0000 0.47452  0.35352  0.10721  Biso   1.000  H
  C217     1.0000 0.41380  0.40142  0.06849  Biso   1.000  C
  O179     1.0000 0.52322  0.42522  0.09451  Biso   1.000  O
  O180     1.0000 0.59948  0.36639  0.13088  Biso   1.000  O
  H235     1.0000 0.61490  0.44640  0.11611  Biso   1.000  H
  C218     1.0000 0.27389  0.39559  0.19739  Biso   1.000  C
  H236     1.0000 0.31488  0.44729  0.15079  Biso   1.000  H
  O181     1.0000 0.26471  0.38559  0.12310  Biso   1.000  O
  H237     1.0000 0.43988  0.39492  0.04249  Biso   1.000  H
  H238     1.0000 0.37518  0.37348  0.07000  Biso   1.000  H
  O182     1.0000 0.38541  0.45759  0.06880  Biso   1.000  O
  C219     1.0000 0.66959  0.35259  0.11970  Biso   1.000  C
  C220     1.0000 0.26403  0.33208  0.20209  Biso   1.000  C
  H239     1.0000 0.22729  0.41480  0.19850  Biso   1.000  H
  O183     1.0000 0.31692  0.41589  0.22916  Biso   1.000  O
  C221     1.0000 0.25148  0.32432  0.12591  Biso   1.000  C
  C222     1.0000 0.69898  0.31908  0.15539  Biso   1.000  C
  H240     1.0000 0.69740  0.38808  0.11620  Biso   1.000  H
  C223     1.0000 0.67069  0.31989  0.08051  Biso   1.000  C
  O184     1.0000 0.22892  0.31959  0.24004  Biso   1.000  O
  H241     1.0000 0.31089  0.31309  0.20181  Biso   1.000  H
  C224     1.0000 0.22068  0.31090  0.16670  Biso   1.000  C
  H242     1.0000 0.29651  0.30322  0.12220  Biso   1.000  H
  C225     1.0000 0.20430  0.31288  0.09040  Biso   1.000  C
  C226     1.0000 0.77292  0.30111  0.14291  Biso   1.000  C
  H243     1.0000 0.66933  0.28498  0.16040  Biso   1.000  H
  O185     1.0000 0.70139  0.35339  0.19192  Biso   1.000  O
  H244     1.0000 0.63658  0.28798  0.08289  Biso   1.000  H
  C227     1.0000 0.65269  0.35390  0.04379  Biso   1.000  C
  O186     1.0000 0.73902  0.29739  0.07263  Biso   1.000  O
  H245     1.0000 0.17198  0.32638  0.16859  Biso   1.000  H
  O187     1.0000 0.21900  0.25030  0.17081  Biso   1.000  O
  H246     1.0000 0.22729  0.32571  0.06459  Biso   1.000  H
  H247     1.0000 0.19659  0.27169  0.08811  Biso   1.000  H
  O188     1.0000 0.13792  0.34048  0.09432  Biso   1.000  O
  C228     1.0000 0.76799  0.26578  0.10499  Biso   1.000  C
  H248     1.0000 0.80178  0.33542  0.13700  Biso   1.000  H
  O189     1.0000 0.80362  0.27038  0.17650  Biso   1.000  O
  H249     1.0000 0.65799  0.33060  0.01860  Biso   1.000  H
  H250     1.0000 0.60310  0.36618  0.04559  Biso   1.000  H
  O190     1.0000 0.69782  0.40268  0.04110  Biso   1.000  O
  C229     1.0000 0.15560  0.22299  0.16989  Biso   1.000  C
  O191     1.0000 0.72590  0.21839  0.11351  Biso   1.000  O
  H251     1.0000 0.81601  0.25279  0.09701  Biso   1.000  H
  H252     1.0000 0.11698  0.25160  0.17081  Biso   1.000  H
  C230     1.0000 0.15130  0.18640  0.20799  Biso   1.000  C
  O192     1.0000 0.14878  0.19109  0.13441  Biso   1.000  O
  C231     1.0000 0.75429  0.16252  0.10721  Biso   1.000  C
  H253     1.0000 0.10480  0.16691  0.20731  Biso   1.000  H
  O193     1.0000 0.15382  0.21818  0.24489  Biso   1.000  O
  C232     1.0000 0.20562  0.14239  0.20601  Biso   1.000  C
  C233     1.0000 0.20031  0.14728  0.12949  Biso   1.000  C
  C234     1.0000 0.75009  0.13310  0.14671  Biso   1.000  C
  H254     1.0000 0.80430  0.16509  0.09809  Biso   1.000  H
  C235     1.0000 0.71152  0.13551  0.07439  Biso   1.000  C
  H255     1.0000 0.25311  0.16049  0.20639  Biso   1.000  H
  O194     1.0000 0.19843  0.10559  0.24180  Biso   1.000  O
  C236     1.0000 0.19748  0.10841  0.16720  Biso   1.000  C
  H256     1.0000 0.24781  0.16522  0.12850  Biso   1.000  H
  C237     1.0000 0.18699  0.11930  0.08929  Biso   1.000  C
  C238     1.0000 0.77087  0.07052  0.13880  Biso   1.000  C
  H257     1.0000 0.70060  0.13458  0.15709  Biso   1.000  H
  O195     1.0000 0.79559  0.15551  0.17730  Biso   1.000  O
  H258     1.0000 0.66082  0.13872  0.08221  Biso   1.000  H
  C239     1.0000 0.72112  0.16011  0.03171  Biso   1.000  C
  O196     1.0000 0.72889  0.07702  0.07077  Biso   1.000  O
  H259     1.0000 0.15230  0.08689  0.16769  Biso   1.000  H
  O197     1.0000 0.25521  0.07081  0.16367  Biso   1.000  O
  H260     1.0000 0.18678  0.14792  0.06700  Biso   1.000  H
  H261     1.0000 0.22488  0.09191  0.08351  Biso   1.000  H
  O198     1.0000 0.12501  0.09251  0.09009  Biso   1.000  O
  C240     1.0000 0.72558  0.04541  0.10749  Biso   1.000  C
  O199     1.0000 0.76762  0.03912  0.17622  Biso   1.000  O
  H262     1.0000 0.68528  0.14399  0.01301  Biso   1.000  H
  H263     1.0000 0.71341  0.20138  0.03301  Biso   1.000  H
  O200     1.0000 0.78678  0.14969  0.01585  Biso   1.000  O
  C241     1.0000 0.23852  0.01199  0.16080  Biso   1.000  C
  O201     1.0000 0.65531  0.04440  0.12272  Biso   1.000  O
  H264     1.0000 0.74138  0.00591  0.10180  Biso   1.000  H
  H265     1.0000 0.18662  0.00722  0.16349  Biso   1.000  H
  C242     1.0000 0.27421  0.98088  0.19551  Biso   1.000  C
  O202     1.0000 0.26009  0.99110  0.12238  Biso   1.000  O
  C243     1.0000 0.62162  0.99198  0.12541  Biso   1.000  C
  O203     1.0000 0.25001  0.00118  0.23371  Biso   1.000  O
  H266     1.0000 0.26319  0.93982  0.19331  Biso   1.000  H
  C244     1.0000 0.35329  0.98962  0.19121  Biso   1.000  C
  C245     1.0000 0.33493  0.99388  0.11540  Biso   1.000  C
  C246     1.0000 0.59019  0.98679  0.16649  Biso   1.000  C
  C247     1.0000 0.56568  0.98721  0.09210  Biso   1.000  C
  H267     1.0000 0.65689  0.96130  0.12149  Biso   1.000  H
  H268     1.0000 0.36552  0.03051  0.19331  Biso   1.000  H
  O204     1.0000 0.38740  0.95788  0.22314  Biso   1.000  O
  C248     1.0000 0.37418  0.96641  0.14980  Biso   1.000  C
  H269     1.0000 0.34909  0.03452  0.11410  Biso   1.000  H
  C249     1.0000 0.34789  0.96759  0.07439  Biso   1.000  C
  C250     1.0000 0.54820  0.93172  0.17001  Biso   1.000  C
  H270     1.0000 0.55791  0.01941  0.17121  Biso   1.000  H
  O205     1.0000 0.64282  0.98671  0.19770  Biso   1.000  O
  O206     1.0000 0.52301  0.93750  0.09726  Biso   1.000  O
  H271     1.0000 0.53493  0.02131  0.09309  Biso   1.000  H
  C251     1.0000 0.59559  0.98168  0.05000  Biso   1.000  C
  H272     1.0000 0.36599  0.92471  0.14921  Biso   1.000  H
  O207     1.0000 0.44749  0.97789  0.14423  Biso   1.000  O
  H273     1.0000 0.31992  0.98759  0.05319  Biso   1.000  H
  H274     1.0000 0.39811  0.97168  0.06719  Biso   1.000  H
  O208     1.0000 0.32931  0.90830  0.07433  Biso   1.000  O
  C252     1.0000 0.49289  0.93252  0.13651  Biso   1.000  C
  H275     1.0000 0.58090  0.89969  0.16401  Biso   1.000  H
  O209     1.0000 0.51981  0.92298  0.20876  Biso   1.000  O
  O210     1.0000 0.63899  0.93298  0.04676  Biso   1.000  O
  H276     1.0000 0.46549  0.89648  0.13781  Biso   1.000  H
  O211     1.0000 0.69840  0.39441  0.75820  Biso   1.000  O
  C253     1.0000 0.70559  0.35761  0.79399  Biso   1.000  C
  C254     1.0000 0.65133  0.31360  0.79201  Biso   1.000  C
  H277     1.0000 0.75308  0.33951  0.79361  Biso   1.000  H
  C255     1.0000 0.69751  0.39159  0.83280  Biso   1.000  C
  O212     1.0000 0.65379  0.28182  0.75511  Biso   1.000  O
  C256     1.0000 0.65558  0.27701  0.83011  Biso   1.000  C
  H278     1.0000 0.60478  0.33309  0.79269  Biso   1.000  H
  C257     1.0000 0.70029  0.35272  0.87051  Biso   1.000  C
  H279     1.0000 0.65232  0.41311  0.83231  Biso   1.000  H
  O213     1.0000 0.75518  0.42919  0.83633  Biso   1.000  O
  O214     1.0000 0.71902  0.24970  0.82919  Biso   1.000  O
  H280     1.0000 0.61700  0.24840  0.82919  Biso   1.000  H
  O215     1.0000 0.64881  0.30891  0.86559  Biso   1.000  O
  H281     1.0000 0.74778  0.33478  0.87150  Biso   1.000  H
  C258     1.0000 0.68701  0.38070  0.91071  Biso   1.000  C
  C259     1.0000 0.73849  0.48801  0.83920  Biso   1.000  C
  C260     1.0000 0.72070  0.18910  0.83330  Biso   1.000  C
  H282     1.0000 0.68680  0.35208  0.93300  Biso   1.000  H
  H283     1.0000 0.72490  0.40809  0.91649  Biso   1.000  H
  O216     1.0000 0.62498  0.40749  0.90991  Biso   1.000  O
  H284     1.0000 0.68659  0.49278  0.83651  Biso   1.000  H
  C261     1.0000 0.77418  0.51912  0.80449  Biso   1.000  C
  O217     1.0000 0.76012  0.50890  0.87762  Biso   1.000  O
  C262     1.0000 0.76400  0.16792  0.79791  Biso   1.000  C
  H285     1.0000 0.67200  0.17362  0.83141  Biso   1.000  H
  C263     1.0000 0.75151  0.17568  0.87409  Biso   1.000  C
  H286     1.0000 0.76321  0.56018  0.80669  Biso   1.000  H
  O218     1.0000 0.74999  0.49882  0.76629  Biso   1.000  O
  C264     1.0000 0.85332  0.51038  0.80879  Biso   1.000  C
  C265     1.0000 0.83490  0.50612  0.88460  Biso   1.000  C
  C266     1.0000 0.77392  0.10441  0.80261  Biso   1.000  C
  H287     1.0000 0.81092  0.18691  0.79819  Biso   1.000  H
  O219     1.0000 0.72889  0.18041  0.75996  Biso   1.000  O
  H288     1.0000 0.79648  0.19678  0.87780  Biso   1.000  H
  O220     1.0000 0.76468  0.11441  0.87690  Biso   1.000  O
  C267     1.0000 0.70428  0.18712  0.90960  Biso   1.000  C
  H289     1.0000 0.86549  0.46949  0.80669  Biso   1.000  H
  O221     1.0000 0.88738  0.54212  0.77686  Biso   1.000  O
  C268     1.0000 0.87421  0.53359  0.85020  Biso   1.000  C
  H290     1.0000 0.84912  0.46548  0.88590  Biso   1.000  H
  C269     1.0000 0.84791  0.53241  0.92561  Biso   1.000  C
  C270     1.0000 0.80850  0.09419  0.84529  Biso   1.000  C
  H291     1.0000 0.72732  0.08520  0.80150  Biso   1.000  H
  O222     1.0000 0.81690  0.08411  0.77084  Biso   1.000  O
  H292     1.0000 0.72732  0.17429  0.93541  Biso   1.000  H
  H293     1.0000 0.69662  0.22831  0.91189  Biso   1.000  H
  O223     1.0000 0.63789  0.15952  0.90568  Biso   1.000  O
  H294     1.0000 0.86602  0.57529  0.85079  Biso   1.000  H
  O224     1.0000 0.94752  0.52211  0.85577  Biso   1.000  O
  H295     1.0000 0.81989  0.51241  0.94681  Biso   1.000  H
  H296     1.0000 0.89808  0.52832  0.93281  Biso   1.000  H
  O225     1.0000 0.82928  0.59170  0.92567  Biso   1.000  O
  O226     1.0000 0.87358  0.11939  0.84507  Biso   1.000  O
  H297     1.0000 0.81490  0.05271  0.84921  Biso   1.000  H
  C271     1.0000 0.99292  0.56748  0.86349  Biso   1.000  C
  C272     1.0000 0.93062  0.08681  0.85611  Biso   1.000  C
  H298     1.0000 0.96552  0.60352  0.86219  Biso   1.000  H
  C273     1.0000 0.04818  0.56828  0.82999  Biso   1.000  C
  O227     1.0000 0.02299  0.56250  0.90274  Biso   1.000  O
  C274     1.0000 0.98620  0.08951  0.82131  Biso   1.000  C
  H299     1.0000 0.91483  0.04680  0.85929  Biso   1.000  H
  C275     1.0000 0.96190  0.10571  0.89539  Biso   1.000  C
  H300     1.0000 0.08092  0.60031  0.83599  Biso   1.000  H
  O228     1.0000 0.01978  0.57702  0.79124  Biso   1.000  O
  C276     1.0000 0.09021  0.51321  0.83351  Biso   1.000  C
  C277     1.0000 0.06570  0.51279  0.90790  Biso   1.000  C
  H301     1.0000 0.99969  0.12968  0.81621  Biso   1.000  H
  O229     1.0000 0.95681  0.06600  0.78468  Biso   1.000  O
  C278     1.0000 0.04870  0.05689  0.83419  Biso   1.000  C
  H302     1.0000 0.97449  0.14648  0.89279  Biso   1.000  H
  C279     1.0000 0.91378  0.09858  0.93151  Biso   1.000  C
  O230     1.0000 0.02320  0.07478  0.90549  Biso   1.000  O
  H303     1.0000 0.05789  0.48059  0.82879  Biso   1.000  H
  O231     1.0000 0.14280  0.51329  0.80230  Biso   1.000  O
  C280     1.0000 0.12160  0.50802  0.87459  Biso   1.000  C
  H304     1.0000 0.03490  0.47869  0.90691  Biso   1.000  H
  C281     1.0000 0.09562  0.51832  0.95000  Biso   1.000  C
  C282     1.0000 0.07452  0.07782  0.87520  Biso   1.000  C
  H305     1.0000 0.03380  0.01671  0.83781  Biso   1.000  H
  O232     1.0000 0.10302  0.05782  0.80440  Biso   1.000  O
  H306     1.0000 0.93991  0.10508  0.95751  Biso   1.000  H
  H307     1.0000 0.87520  0.12652  0.93000  Biso   1.000  H
  O233     1.0000 0.88538  0.04241  0.93120  Biso   1.000  O
  H308     1.0000 0.15691  0.53870  0.87851  Biso   1.000  H
  O234     1.0000 0.15529  0.45560  0.87728  Biso   1.000  O
  O235     1.0000 0.13902  0.56702  0.95324  Biso   1.000  O
  O236     1.0000 0.09950  0.13361  0.86912  Biso   1.000  O
  H309     1.0000 0.11488  0.05360  0.88389  Biso   1.000  H
  C283     1.0000 0.22561  0.45459  0.89251  Biso   1.000  C
  C284     1.0000 0.16961  0.14741  0.88030  Biso   1.000  C
  H310     1.0000 0.24141  0.49409  0.89820  Biso   1.000  H
  C285     1.0000 0.27090  0.42948  0.86120  Biso   1.000  C
  O237     1.0000 0.22892  0.42298  0.92923  Biso   1.000  O
  C286     1.0000 0.19900  0.18092  0.84461  Biso   1.000  C
  H311     1.0000 0.19738  0.11192  0.88380  Biso   1.000  H
  C287     1.0000 0.17072  0.18011  0.91949  Biso   1.000  C
  O238     1.0000 0.26759  0.46088  0.82378  Biso   1.000  O
  C288     1.0000 0.25012  0.36690  0.85329  Biso   1.000  C
  C289     1.0000 0.21149  0.36449  0.92561  Biso   1.000  C
  C290     1.0000 0.27289  0.19889  0.85709  Biso   1.000  C
  H312     1.0000 0.16930  0.21502  0.83960  Biso   1.000  H
  O239     1.0000 0.20142  0.14661  0.80808  Biso   1.000  O
  H313     1.0000 0.13660  0.21202  0.91711  Biso   1.000  H
  C291     1.0000 0.15272  0.14610  0.95621  Biso   1.000  C
  O240     1.0000 0.23899  0.20261  0.92737  Biso   1.000  O
  H314     1.0000 0.20058  0.36542  0.84291  Biso   1.000  H
  O241     1.0000 0.29562  0.34449  0.82270  Biso   1.000  O
  C292     1.0000 0.25432  0.33748  0.89279  Biso   1.000  C
  H315     1.0000 0.16080  0.36128  0.91779  Biso   1.000  H
  C293     1.0000 0.22110  0.33989  0.96829  Biso   1.000  C
  C294     1.0000 0.26801  0.23422  0.89501  Biso   1.000  C
  H316     1.0000 0.30181  0.16458  0.86300  Biso   1.000  H
  O242     1.0000 0.30359  0.22962  0.82350  Biso   1.000  O
  H317     1.0000 0.15802  0.16940  0.98140  Biso   1.000  H
  H318     1.0000 0.10312  0.13382  0.95441  Biso   1.000  H
  O243     1.0000 0.19780  0.09732  0.95890  Biso   1.000  O
  O244     1.0000 0.22592  0.28161  0.88649  Biso   1.000  O
  H319     1.0000 0.30428  0.33491  0.90191  Biso   1.000  H
  H320     1.0000 0.18531  0.35601  0.98699  Biso   1.000  H
  H321     1.0000 0.21338  0.29862  0.96699  Biso   1.000  H
  O245     1.0000 0.28680  0.35031  0.98415  Biso   1.000  O
  H322     1.0000 0.31598  0.24721  0.90299  Biso   1.000  H
  O246     1.0000 0.69840  0.60559  0.24180  Biso   1.000  O
  C295     1.0000 0.70559  0.64239  0.20601  Biso   1.000  C
  C296     1.0000 0.69751  0.60841  0.16720  Biso   1.000  C
  C297     1.0000 0.65133  0.68640  0.20799  Biso   1.000  C
  H323     1.0000 0.75308  0.66049  0.20639  Biso   1.000  H
  O247     1.0000 0.75518  0.57081  0.16367  Biso   1.000  O
  H324     1.0000 0.65232  0.58689  0.16769  Biso   1.000  H
  C298     1.0000 0.70029  0.64728  0.12949  Biso   1.000  C
  C299     1.0000 0.65558  0.72299  0.16989  Biso   1.000  C
  H325     1.0000 0.60478  0.66691  0.20731  Biso   1.000  H
  O248     1.0000 0.65379  0.71818  0.24489  Biso   1.000  O
  C300     1.0000 0.73849  0.51199  0.16080  Biso   1.000  C
  H326     1.0000 0.74778  0.66522  0.12850  Biso   1.000  H
  O249     1.0000 0.64881  0.69109  0.13441  Biso   1.000  O
  C301     1.0000 0.68701  0.61930  0.08929  Biso   1.000  C
  O250     1.0000 0.71902  0.75030  0.17081  Biso   1.000  O
  H327     1.0000 0.61700  0.75160  0.17081  Biso   1.000  H
  C302     1.0000 0.77418  0.48088  0.19551  Biso   1.000  C
  H328     1.0000 0.68659  0.50722  0.16349  Biso   1.000  H
  O251     1.0000 0.76012  0.49110  0.12238  Biso   1.000  O
  H329     1.0000 0.68680  0.64792  0.06700  Biso   1.000  H
  H330     1.0000 0.72490  0.59191  0.08351  Biso   1.000  H
  O252     1.0000 0.62498  0.59251  0.09009  Biso   1.000  O
  C303     1.0000 0.72070  0.81090  0.16670  Biso   1.000  C
  O253     1.0000 0.74999  0.50118  0.23371  Biso   1.000  O
  H331     1.0000 0.76321  0.43982  0.19331  Biso   1.000  H
  C304     1.0000 0.85332  0.48962  0.19121  Biso   1.000  C
  C305     1.0000 0.83490  0.49388  0.11540  Biso   1.000  C
  C306     1.0000 0.76400  0.83208  0.20209  Biso   1.000  C
  H332     1.0000 0.67200  0.82638  0.16859  Biso   1.000  H
  C307     1.0000 0.75151  0.82432  0.12591  Biso   1.000  C
  H333     1.0000 0.86549  0.53051  0.19331  Biso   1.000  H
  O254     1.0000 0.88738  0.45788  0.22314  Biso   1.000  O
  C308     1.0000 0.87421  0.46641  0.14980  Biso   1.000  C
  H334     1.0000 0.84912  0.53452  0.11410  Biso   1.000  H
  C309     1.0000 0.84791  0.46759  0.07439  Biso   1.000  C
  C310     1.0000 0.77392  0.89559  0.19739  Biso   1.000  C
  H335     1.0000 0.81092  0.81309  0.20181  Biso   1.000  H
  O255     1.0000 0.72889  0.81959  0.24004  Biso   1.000  O
  H336     1.0000 0.79648  0.80322  0.12220  Biso   1.000  H
  O256     1.0000 0.76468  0.88559  0.12310  Biso   1.000  O
  C311     1.0000 0.70428  0.81288  0.09040  Biso   1.000  C
  H337     1.0000 0.86602  0.42471  0.14921  Biso   1.000  H
  O257     1.0000 0.94752  0.47789  0.14423  Biso   1.000  O
  H338     1.0000 0.81989  0.48759  0.05319  Biso   1.000  H
  H339     1.0000 0.89808  0.47168  0.06719  Biso   1.000  H
  O258     1.0000 0.82928  0.40830  0.07433  Biso   1.000  O
  C312     1.0000 0.80850  0.90581  0.15471  Biso   1.000  C
  H340     1.0000 0.72732  0.91480  0.19850  Biso   1.000  H
  O259     1.0000 0.81690  0.91589  0.22916  Biso   1.000  O
  H341     1.0000 0.72732  0.82571  0.06459  Biso   1.000  H
  H342     1.0000 0.69662  0.77169  0.08811  Biso   1.000  H
  O260     1.0000 0.63789  0.84048  0.09432  Biso   1.000  O
  C313     1.0000 0.99292  0.43252  0.13651  Biso   1.000  C
  O261     1.0000 0.87358  0.88061  0.15493  Biso   1.000  O
  H343     1.0000 0.81490  0.94729  0.15079  Biso   1.000  H
  H344     1.0000 0.96552  0.39648  0.13781  Biso   1.000  H
  C314     1.0000 0.04818  0.43172  0.17001  Biso   1.000  C
  O262     1.0000 0.02299  0.43750  0.09726  Biso   1.000  O
  C315     1.0000 0.93062  0.91319  0.14389  Biso   1.000  C
  H345     1.0000 0.08092  0.39969  0.16401  Biso   1.000  H
  O263     1.0000 0.01978  0.42298  0.20876  Biso   1.000  O
  C316     1.0000 0.09021  0.48679  0.16649  Biso   1.000  C
  C317     1.0000 0.06570  0.48721  0.09210  Biso   1.000  C
  C318     1.0000 0.98620  0.91049  0.17869  Biso   1.000  C
  H346     1.0000 0.91483  0.95320  0.14071  Biso   1.000  H
  C319     1.0000 0.96190  0.89429  0.10461  Biso   1.000  C
  H347     1.0000 0.05789  0.51941  0.17121  Biso   1.000  H
  O264     1.0000 0.14280  0.48671  0.19770  Biso   1.000  O
  C320     1.0000 0.12160  0.49198  0.12541  Biso   1.000  C
  H348     1.0000 0.03490  0.52131  0.09309  Biso   1.000  H
  C321     1.0000 0.09562  0.48168  0.05000  Biso   1.000  C
  H349     1.0000 0.99969  0.87032  0.18379  Biso   1.000  H
  O265     1.0000 0.95681  0.93400  0.21532  Biso   1.000  O
  C322     1.0000 0.04870  0.94311  0.16581  Biso   1.000  C
  H350     1.0000 0.97449  0.85352  0.10721  Biso   1.000  H
  C323     1.0000 0.91378  0.90142  0.06849  Biso   1.000  C
  O266     1.0000 0.02320  0.92522  0.09451  Biso   1.000  O
  H351     1.0000 0.15691  0.46130  0.12149  Biso   1.000  H
  O267     1.0000 0.15529  0.54440  0.12272  Biso   1.000  O
  O268     1.0000 0.13902  0.43298  0.04676  Biso   1.000  O
  C324     1.0000 0.07452  0.92218  0.12480  Biso   1.000  C
  H352     1.0000 0.03380  0.98329  0.16219  Biso   1.000  H
  O269     1.0000 0.10302  0.94218  0.19560  Biso   1.000  O
  H353     1.0000 0.93991  0.89492  0.04249  Biso   1.000  H
  H354     1.0000 0.87520  0.87348  0.07000  Biso   1.000  H
  O270     1.0000 0.88538  0.95759  0.06880  Biso   1.000  O
  C325     1.0000 0.22561  0.54541  0.10749  Biso   1.000  C
  O271     1.0000 0.09950  0.86639  0.13088  Biso   1.000  O
  H355     1.0000 0.11488  0.94640  0.11611  Biso   1.000  H
  H356     1.0000 0.24141  0.50591  0.10180  Biso   1.000  H
  C326     1.0000 0.27090  0.57052  0.13880  Biso   1.000  C
  O272     1.0000 0.22892  0.57702  0.07077  Biso   1.000  O
  C327     1.0000 0.16961  0.85259  0.11970  Biso   1.000  C
  O273     1.0000 0.26759  0.53912  0.17622  Biso   1.000  O
  C328     1.0000 0.25012  0.63310  0.14671  Biso   1.000  C
  C329     1.0000 0.21149  0.63551  0.07439  Biso   1.000  C
  C330     1.0000 0.19900  0.81908  0.15539  Biso   1.000  C
  C331     1.0000 0.17072  0.81989  0.08051  Biso   1.000  C
  H357     1.0000 0.19738  0.88808  0.11620  Biso   1.000  H
  H358     1.0000 0.20058  0.63458  0.15709  Biso   1.000  H
  O274     1.0000 0.29562  0.65551  0.17730  Biso   1.000  O
  C332     1.0000 0.25432  0.66252  0.10721  Biso   1.000  C
  H359     1.0000 0.16080  0.63872  0.08221  Biso   1.000  H
  C333     1.0000 0.22110  0.66011  0.03171  Biso   1.000  C
  C334     1.0000 0.27289  0.80111  0.14291  Biso   1.000  C
  H360     1.0000 0.16930  0.78498  0.16040  Biso   1.000  H
  O275     1.0000 0.20142  0.85339  0.19192  Biso   1.000  O
  O276     1.0000 0.23899  0.79739  0.07263  Biso   1.000  O
  H361     1.0000 0.13660  0.78798  0.08289  Biso   1.000  H
  C335     1.0000 0.15272  0.85390  0.04379  Biso   1.000  C
  H362     1.0000 0.30428  0.66509  0.09809  Biso   1.000  H
  O277     1.0000 0.22592  0.71839  0.11351  Biso   1.000  O
  H363     1.0000 0.18531  0.64399  0.01301  Biso   1.000  H
  H364     1.0000 0.21338  0.70138  0.03301  Biso   1.000  H
  O278     1.0000 0.28680  0.64969  0.01585  Biso   1.000  O
  C336     1.0000 0.26801  0.76578  0.10499  Biso   1.000  C
  H365     1.0000 0.30181  0.83542  0.13700  Biso   1.000  H
  O279     1.0000 0.30359  0.77038  0.17650  Biso   1.000  O
  H366     1.0000 0.15802  0.83060  0.01860  Biso   1.000  H
  H367     1.0000 0.10312  0.86618  0.04559  Biso   1.000  H
  O280     1.0000 0.19780  0.90268  0.04110  Biso   1.000  O
  H368     1.0000 0.31598  0.75279  0.09701  Biso   1.000  H
  Ne1      1.0000 0.46607  0.18687  0.13881  Biso   1.000  Ne
  He1      1.0000 0.46950  0.18711  0.16212  Biso   1.000  He
  He2      1.0000 0.45666  0.18227  0.10204  Biso   1.000  He
  Ar1      1.0000 0.46927  0.18088  0.14474  Biso   1.000  Ar
  Ne2      1.0000 0.53393  0.18687  0.36118  Biso   1.000  Ne
  He3      1.0000 0.54396  0.18235  0.39994  Biso   1.000  He
  He4      1.0000 0.53178  0.18565  0.34139  Biso   1.000  He
  Ar2      1.0000 0.53112  0.18044  0.35503  Biso   1.000  Ar
  Ne3      1.0000 0.03393  0.68687  0.36118  Biso   1.000  Ne
  He5      1.0000 0.04397  0.68236  0.39994  Biso   1.000  He
  He6      1.0000 0.01553  0.68813  0.29290  Biso   1.000  He
  Ar3      1.0000 0.03020  0.68062  0.35622  Biso   1.000  Ar
  Ne4      1.0000 0.96607  0.68687  0.13881  Biso   1.000  Ne
  He7      1.0000 0.96948  0.68711  0.16212  Biso   1.000  He
  He8      1.0000 0.95665  0.68228  0.10204  Biso   1.000  He
  Ar4      1.0000 0.96982  0.68061  0.14377  Biso   1.000  Ar
  Ne5      1.0000 0.03393  0.31313  0.63882  Biso   1.000  Ne
  He9      1.0000 0.02893  0.31110  0.66641  Biso   1.000  He
  He10     1.0000 0.04376  0.31767  0.60072  Biso   1.000  He
  Ar5      1.0000 0.03020  0.31938  0.64378  Biso   1.000  Ar
  Ne6      1.0000 0.53393  0.81313  0.63882  Biso   1.000  Ne
  He11     1.0000 0.52890  0.81110  0.66641  Biso   1.000  He
  He12     1.0000 0.54375  0.81768  0.60072  Biso   1.000  He
  Ar6      1.0000 0.53113  0.81929  0.64068  Biso   1.000  Ar
  Ne7      1.0000 0.96607  0.31313  0.86119  Biso   1.000  Ne
  He13     1.0000 0.95654  0.31771  0.89831  Biso   1.000  He
  He14     1.0000 0.97061  0.31162  0.83484  Biso   1.000  He
  Ar7      1.0000 0.96980  0.31938  0.85621  Biso   1.000  Ar
  Ne8      1.0000 0.46607  0.81313  0.86119  Biso   1.000  Ne
  He15     1.0000 0.45655  0.81772  0.89831  Biso   1.000  He
  He16     1.0000 0.47063  0.81162  0.83484  Biso   1.000  He
  Ar8      1.0000 0.46910  0.81912  0.85942  Biso   1.000  Ar
