data_image0
_cell_length_a       19.293
_cell_length_b       24.063
_cell_length_c       32.873
_cell_angle_alpha    90
_cell_angle_beta     90
_cell_angle_gamma    90

_symmetry_space_group_name_H-M    "P 1"
_symmetry_int_tables_number       1

loop_
  _symmetry_equiv_pos_as_xyz
  'x, y, z'

loop_
  _atom_site_label
  _atom_site_occupancy
  _atom_site_fract_x
  _atom_site_fract_y
  _atom_site_fract_z
  _atom_site_thermal_displace_type
  _atom_site_B_iso_or_equiv
  _atom_site_type_symbol
  O1       1.0000 0.38942  0.44878  0.56700  Biso   1.000  O
  C1       1.0000 0.41528  0.39422  0.56831  Biso   1.000  C
  C2       1.0000 0.46478  0.38748  0.60530  Biso   1.000  C
  H1       1.0000 0.44068  0.38611  0.54279  Biso   1.000  H
  H2       1.0000 0.37651  0.36762  0.57059  Biso   1.000  H
  C3       1.0000 0.43368  0.40822  0.64339  Biso   1.000  C
  H3       1.0000 0.47691  0.34738  0.60861  Biso   1.000  H
  O2       1.0000 0.52651  0.41832  0.59499  Biso   1.000  O
  O3       1.0000 0.37470  0.37589  0.65470  Biso   1.000  O
  C4       1.0000 0.48629  0.40569  0.67779  Biso   1.000  C
  H4       1.0000 0.41901  0.44770  0.63940  Biso   1.000  H
  C5       1.0000 0.57840  0.41570  0.62620  Biso   1.000  C
  C6       1.0000 0.30970  0.40340  0.65449  Biso   1.000  C
  C7       1.0000 0.55098  0.43669  0.66520  Biso   1.000  C
  H5       1.0000 0.49878  0.36591  0.68251  Biso   1.000  H
  O4       1.0000 0.45892  0.42792  0.71490  Biso   1.000  O
  O5       1.0000 0.60182  0.36089  0.63125  Biso   1.000  O
  H6       1.0000 0.61851  0.43939  0.61789  Biso   1.000  H
  O6       1.0000 0.26663  0.38250  0.62367  Biso   1.000  O
  C8       1.0000 0.27518  0.39102  0.69699  Biso   1.000  C
  H7       1.0000 0.31638  0.44429  0.65090  Biso   1.000  H
  H8       1.0000 0.53750  0.47642  0.66091  Biso   1.000  H
  O7       1.0000 0.60338  0.43619  0.69501  Biso   1.000  O
  C9       1.0000 0.67258  0.34879  0.62039  Biso   1.000  C
  C10      1.0000 0.25247  0.32319  0.62529  Biso   1.000  C
  C11      1.0000 0.26289  0.33030  0.70219  Biso   1.000  C
  H9       1.0000 0.22931  0.41030  0.69790  Biso   1.000  H
  O8       1.0000 0.31701  0.41279  0.72850  Biso   1.000  O
  C12      1.0000 0.70119  0.31609  0.65659  Biso   1.000  C
  H10      1.0000 0.69922  0.38412  0.61680  Biso   1.000  H
  C13      1.0000 0.67491  0.31480  0.58169  Biso   1.000  C
  C14      1.0000 0.20562  0.31168  0.58890  Biso   1.000  C
  C15      1.0000 0.22169  0.30769  0.66611  Biso   1.000  C
  H11      1.0000 0.29700  0.30250  0.62151  Biso   1.000  H
  H12      1.0000 0.30882  0.31110  0.70289  Biso   1.000  H
  O9       1.0000 0.22770  0.31858  0.73845  Biso   1.000  O
  C16      1.0000 0.77551  0.29838  0.64439  Biso   1.000  C
  H13      1.0000 0.67169  0.28288  0.66249  Biso   1.000  H
  O10      1.0000 0.70518  0.35149  0.69114  Biso   1.000  O
  H14      1.0000 0.64179  0.28301  0.58379  Biso   1.000  H
  O11      1.0000 0.74421  0.29390  0.57433  Biso   1.000  O
  C17      1.0000 0.65708  0.35029  0.54409  Biso   1.000  C
  H15      1.0000 0.22879  0.32419  0.56359  Biso   1.000  H
  H16      1.0000 0.19733  0.27120  0.58659  Biso   1.000  H
  O12      1.0000 0.13969  0.34048  0.59340  Biso   1.000  O
  H17      1.0000 0.17328  0.32232  0.66760  Biso   1.000  H
  O13      1.0000 0.22008  0.24930  0.67046  Biso   1.000  O
  C18      1.0000 0.77158  0.26269  0.60621  Biso   1.000  C
  H18      1.0000 0.80350  0.33242  0.63840  Biso   1.000  H
  O14      1.0000 0.80791  0.26842  0.67770  Biso   1.000  O
  H19      1.0000 0.66211  0.32731  0.51930  Biso   1.000  H
  H20      1.0000 0.60830  0.36259  0.54589  Biso   1.000  H
  O15      1.0000 0.70051  0.39692  0.54111  Biso   1.000  O
  C19      1.0000 0.15508  0.22100  0.66921  Biso   1.000  C
  O16      1.0000 0.72980  0.21519  0.61582  Biso   1.000  O
  H21      1.0000 0.81931  0.25001  0.59870  Biso   1.000  H
  H22      1.0000 0.11642  0.24868  0.66930  Biso   1.000  H
  C20      1.0000 0.14980  0.18410  0.70620  Biso   1.000  C
  O17      1.0000 0.15099  0.18709  0.63313  Biso   1.000  O
  C21      1.0000 0.75660  0.16128  0.60919  Biso   1.000  C
  H23      1.0000 0.10361  0.16540  0.70599  Biso   1.000  H
  O18      1.0000 0.15420  0.21772  0.74167  Biso   1.000  O
  C22      1.0000 0.20448  0.14059  0.70590  Biso   1.000  C
  C23      1.0000 0.20152  0.14620  0.63100  Biso   1.000  C
  C24      1.0000 0.75390  0.13012  0.64929  Biso   1.000  C
  H24      1.0000 0.80578  0.16419  0.59991  Biso   1.000  H
  C25      1.0000 0.71311  0.13298  0.57561  Biso   1.000  C
  H25      1.0000 0.25102  0.15892  0.70708  Biso   1.000  H
  O19      1.0000 0.19639  0.10531  0.74076  Biso   1.000  O
  C26      1.0000 0.19909  0.10709  0.66650  Biso   1.000  C
  H26      1.0000 0.24802  0.16461  0.63049  Biso   1.000  H
  C27      1.0000 0.18971  0.11649  0.58939  Biso   1.000  C
  C28      1.0000 0.77189  0.06932  0.64150  Biso   1.000  C
  H27      1.0000 0.70570  0.13211  0.66030  Biso   1.000  H
  O20      1.0000 0.79811  0.15339  0.67709  Biso   1.000  O
  H28      1.0000 0.66288  0.13652  0.58261  Biso   1.000  H
  C29      1.0000 0.72462  0.15688  0.53409  Biso   1.000  C
  O21      1.0000 0.73042  0.07472  0.57202  Biso   1.000  O
  H29      1.0000 0.15430  0.08619  0.66620  Biso   1.000  H
  O22      1.0000 0.25491  0.06919  0.66514  Biso   1.000  O
  H30      1.0000 0.18789  0.14462  0.56740  Biso   1.000  H
  H31      1.0000 0.22899  0.09130  0.58379  Biso   1.000  H
  O23      1.0000 0.12839  0.08632  0.58969  Biso   1.000  O
  C30      1.0000 0.72622  0.04330  0.60910  Biso   1.000  C
  H32      1.0000 0.82061  0.06820  0.63110  Biso   1.000  H
  O24      1.0000 0.76992  0.03670  0.67733  Biso   1.000  O
  O25      1.0000 0.79728  0.13980  0.51760  Biso   1.000  O
  O26      1.0000 0.78018  0.15368  0.51760  Biso   1.000  O
  C31      1.0000 0.23978  0.01080  0.66231  Biso   1.000  C
  O27      1.0000 0.65599  0.04322  0.62383  Biso   1.000  O
  H33      1.0000 0.74162  0.00428  0.60399  Biso   1.000  H
  H34      1.0000 0.18862  0.00549  0.66520  Biso   1.000  H
  C32      1.0000 0.27513  0.98038  0.69549  Biso   1.000  C
  O28      1.0000 0.26041  0.99048  0.62340  Biso   1.000  O
  C33      1.0000 0.62209  0.99090  0.62611  Biso   1.000  C
  O29      1.0000 0.25040  0.99921  0.73404  Biso   1.000  O
  C34      1.0000 0.35422  0.98699  0.69239  Biso   1.000  C
  C35      1.0000 0.33302  0.99402  0.61540  Biso   1.000  C
  C36      1.0000 0.59021  0.98579  0.66809  Biso   1.000  C
  C37      1.0000 0.56751  0.98799  0.59310  Biso   1.000  C
  H35      1.0000 0.65671  0.96052  0.62200  Biso   1.000  H
  O30      1.0000 0.38620  0.95782  0.72287  Biso   1.000  O
  C38      1.0000 0.37511  0.96522  0.65050  Biso   1.000  C
  C39      1.0000 0.34779  0.96709  0.57549  Biso   1.000  C
  C40      1.0000 0.54901  0.93139  0.66830  Biso   1.000  C
  H36      1.0000 0.55891  0.01799  0.67381  Biso   1.000  H
  O31      1.0000 0.64490  0.98392  0.69689  Biso   1.000  O
  O32      1.0000 0.52190  0.93949  0.59766  Biso   1.000  O
  H37      1.0000 0.53828  0.02232  0.59480  Biso   1.000  H
  C41      1.0000 0.59478  0.98329  0.55030  Biso   1.000  C
  O33      1.0000 0.44679  0.97760  0.64512  Biso   1.000  O
  H38      1.0000 0.32100  0.98620  0.55401  Biso   1.000  H
  H39      1.0000 0.39761  0.97149  0.56910  Biso   1.000  H
  O34      1.0000 0.33069  0.90911  0.57521  Biso   1.000  O
  C42      1.0000 0.49261  0.93301  0.63630  Biso   1.000  C
  H40      1.0000 0.58109  0.89980  0.66240  Biso   1.000  H
  O35      1.0000 0.51801  0.92341  0.70781  Biso   1.000  O
  H41      1.0000 0.62038  0.01750  0.54291  Biso   1.000  H
  H42      1.0000 0.55580  0.97889  0.53101  Biso   1.000  H
  O36      1.0000 0.64091  0.93529  0.54741  Biso   1.000  O
  H43      1.0000 0.46608  0.89731  0.63709  Biso   1.000  H
  O37      1.0000 0.38942  0.55122  0.43300  Biso   1.000  O
  C43      1.0000 0.41528  0.60578  0.43169  Biso   1.000  C
  C44      1.0000 0.46478  0.61252  0.39470  Biso   1.000  C
  H44      1.0000 0.44068  0.61389  0.45721  Biso   1.000  H
  H45      1.0000 0.37651  0.63238  0.42941  Biso   1.000  H
  C45      1.0000 0.43368  0.59178  0.35661  Biso   1.000  C
  H46      1.0000 0.47691  0.65262  0.39139  Biso   1.000  H
  O38      1.0000 0.52651  0.58168  0.40501  Biso   1.000  O
  O39      1.0000 0.37470  0.62411  0.34530  Biso   1.000  O
  C46      1.0000 0.48629  0.59431  0.32221  Biso   1.000  C
  H47      1.0000 0.41901  0.55230  0.36060  Biso   1.000  H
  C47      1.0000 0.57840  0.58430  0.37380  Biso   1.000  C
  C48      1.0000 0.30970  0.59660  0.34551  Biso   1.000  C
  C49      1.0000 0.55098  0.56331  0.33480  Biso   1.000  C
  H48      1.0000 0.49878  0.63409  0.31749  Biso   1.000  H
  O40      1.0000 0.45892  0.57208  0.28510  Biso   1.000  O
  O41      1.0000 0.60182  0.63911  0.36875  Biso   1.000  O
  H49      1.0000 0.61851  0.56061  0.38211  Biso   1.000  H
  C50      1.0000 0.27518  0.60898  0.30301  Biso   1.000  C
  H50      1.0000 0.31638  0.55571  0.34910  Biso   1.000  H
  O42      1.0000 0.26663  0.61750  0.37633  Biso   1.000  O
  H51      1.0000 0.53750  0.52358  0.33909  Biso   1.000  H
  O43      1.0000 0.60338  0.56381  0.30499  Biso   1.000  O
  C51      1.0000 0.67258  0.65121  0.37961  Biso   1.000  C
  O44      1.0000 0.31701  0.58721  0.27150  Biso   1.000  O
  H52      1.0000 0.22931  0.58970  0.30210  Biso   1.000  H
  C52      1.0000 0.26289  0.66970  0.29781  Biso   1.000  C
  C53      1.0000 0.25247  0.67681  0.37471  Biso   1.000  C
  C54      1.0000 0.70119  0.68391  0.34341  Biso   1.000  C
  H53      1.0000 0.69922  0.61588  0.38320  Biso   1.000  H
  C55      1.0000 0.67491  0.68520  0.41831  Biso   1.000  C
  H54      1.0000 0.30882  0.68890  0.29711  Biso   1.000  H
  O45      1.0000 0.22770  0.68142  0.26155  Biso   1.000  O
  C56      1.0000 0.22169  0.69231  0.33389  Biso   1.000  C
  H55      1.0000 0.29700  0.69750  0.37849  Biso   1.000  H
  C57      1.0000 0.20562  0.68832  0.41110  Biso   1.000  C
  C58      1.0000 0.77551  0.70162  0.35561  Biso   1.000  C
  H56      1.0000 0.67169  0.71712  0.33751  Biso   1.000  H
  O46      1.0000 0.70518  0.64851  0.30886  Biso   1.000  O
  H57      1.0000 0.64179  0.71699  0.41621  Biso   1.000  H
  O47      1.0000 0.74421  0.70610  0.42567  Biso   1.000  O
  C59      1.0000 0.65708  0.64971  0.45591  Biso   1.000  C
  H58      1.0000 0.17328  0.67768  0.33240  Biso   1.000  H
  O48      1.0000 0.22008  0.75070  0.32954  Biso   1.000  O
  H59      1.0000 0.22879  0.67581  0.43641  Biso   1.000  H
  H60      1.0000 0.19733  0.72880  0.41341  Biso   1.000  H
  O49      1.0000 0.13969  0.65952  0.40660  Biso   1.000  O
  C60      1.0000 0.77158  0.73731  0.39379  Biso   1.000  C
  H61      1.0000 0.80350  0.66758  0.36160  Biso   1.000  H
  O50      1.0000 0.80791  0.73158  0.32230  Biso   1.000  O
  H62      1.0000 0.66211  0.67269  0.48070  Biso   1.000  H
  H63      1.0000 0.60830  0.63741  0.45411  Biso   1.000  H
  O51      1.0000 0.70051  0.60308  0.45889  Biso   1.000  O
  C61      1.0000 0.15508  0.77900  0.33079  Biso   1.000  C
  O52      1.0000 0.72980  0.78481  0.38418  Biso   1.000  O
  H64      1.0000 0.81931  0.74999  0.40130  Biso   1.000  H
  H65      1.0000 0.11642  0.75132  0.33070  Biso   1.000  H
  C62      1.0000 0.14980  0.81590  0.29380  Biso   1.000  C
  O53      1.0000 0.15099  0.81291  0.36687  Biso   1.000  O
  C63      1.0000 0.75660  0.83872  0.39081  Biso   1.000  C
  H66      1.0000 0.10361  0.83460  0.29401  Biso   1.000  H
  O54      1.0000 0.15420  0.78228  0.25833  Biso   1.000  O
  C64      1.0000 0.20448  0.85941  0.29410  Biso   1.000  C
  C65      1.0000 0.20152  0.85380  0.36900  Biso   1.000  C
  C66      1.0000 0.75390  0.86988  0.35071  Biso   1.000  C
  H67      1.0000 0.80578  0.83581  0.40009  Biso   1.000  H
  C67      1.0000 0.71311  0.86702  0.42439  Biso   1.000  C
  H68      1.0000 0.25102  0.84108  0.29292  Biso   1.000  H
  O55      1.0000 0.19639  0.89469  0.25924  Biso   1.000  O
  C68      1.0000 0.19909  0.89291  0.33350  Biso   1.000  C
  H69      1.0000 0.24802  0.83539  0.36951  Biso   1.000  H
  C69      1.0000 0.18971  0.88351  0.41061  Biso   1.000  C
  C70      1.0000 0.77189  0.93068  0.35850  Biso   1.000  C
  H70      1.0000 0.70570  0.86789  0.33970  Biso   1.000  H
  O56      1.0000 0.79811  0.84661  0.32291  Biso   1.000  O
  H71      1.0000 0.66288  0.86348  0.41739  Biso   1.000  H
  C71      1.0000 0.72462  0.84312  0.46591  Biso   1.000  C
  O57      1.0000 0.73042  0.92528  0.42798  Biso   1.000  O
  H72      1.0000 0.15430  0.91381  0.33380  Biso   1.000  H
  O58      1.0000 0.25491  0.93081  0.33486  Biso   1.000  O
  H73      1.0000 0.18789  0.85538  0.43260  Biso   1.000  H
  H74      1.0000 0.22899  0.90870  0.41621  Biso   1.000  H
  O59      1.0000 0.12839  0.91368  0.41031  Biso   1.000  O
  C72      1.0000 0.72622  0.95670  0.39090  Biso   1.000  C
  H75      1.0000 0.82061  0.93180  0.36890  Biso   1.000  H
  O60      1.0000 0.76992  0.96330  0.32267  Biso   1.000  O
  O61      1.0000 0.79728  0.86020  0.48240  Biso   1.000  O
  O62      1.0000 0.78018  0.84632  0.48240  Biso   1.000  O
  C73      1.0000 0.23978  0.98920  0.33769  Biso   1.000  C
  O63      1.0000 0.65599  0.95678  0.37617  Biso   1.000  O
  H76      1.0000 0.74162  0.99572  0.39601  Biso   1.000  H
  H77      1.0000 0.18862  0.99451  0.33480  Biso   1.000  H
  C74      1.0000 0.27513  0.01962  0.30451  Biso   1.000  C
  O64      1.0000 0.26041  0.00952  0.37660  Biso   1.000  O
  C75      1.0000 0.62209  0.00910  0.37389  Biso   1.000  C
  O65      1.0000 0.25040  0.00079  0.26596  Biso   1.000  O
  C76      1.0000 0.35422  0.01301  0.30761  Biso   1.000  C
  C77      1.0000 0.33302  0.00598  0.38460  Biso   1.000  C
  C78      1.0000 0.59021  0.01421  0.33191  Biso   1.000  C
  C79      1.0000 0.56751  0.01201  0.40690  Biso   1.000  C
  H78      1.0000 0.65671  0.03948  0.37800  Biso   1.000  H
  O66      1.0000 0.38620  0.04218  0.27713  Biso   1.000  O
  C80      1.0000 0.37511  0.03478  0.34950  Biso   1.000  C
  C81      1.0000 0.34779  0.03291  0.42451  Biso   1.000  C
  C82      1.0000 0.54901  0.06861  0.33170  Biso   1.000  C
  H79      1.0000 0.55891  0.98201  0.32619  Biso   1.000  H
  O67      1.0000 0.64490  0.01608  0.30311  Biso   1.000  O
  O68      1.0000 0.52190  0.06051  0.40234  Biso   1.000  O
  H80      1.0000 0.53828  0.97768  0.40520  Biso   1.000  H
  C83      1.0000 0.59478  0.01671  0.44970  Biso   1.000  C
  O69      1.0000 0.44679  0.02240  0.35488  Biso   1.000  O
  H81      1.0000 0.32100  0.01380  0.44599  Biso   1.000  H
  H82      1.0000 0.39761  0.02851  0.43090  Biso   1.000  H
  O70      1.0000 0.33069  0.09089  0.42479  Biso   1.000  O
  C84      1.0000 0.49261  0.06699  0.36370  Biso   1.000  C
  H83      1.0000 0.58109  0.10020  0.33760  Biso   1.000  H
  O71      1.0000 0.51801  0.07659  0.29219  Biso   1.000  O
  H84      1.0000 0.62038  0.98250  0.45709  Biso   1.000  H
  H85      1.0000 0.55580  0.02111  0.46899  Biso   1.000  H
  O72      1.0000 0.64091  0.06471  0.45259  Biso   1.000  O
  H86      1.0000 0.46608  0.10269  0.36291  Biso   1.000  H
  O73      1.0000 0.62841  0.58629  0.58969  Biso   1.000  O
  C85      1.0000 0.68968  0.61651  0.58939  Biso   1.000  C
  C86      1.0000 0.70150  0.64622  0.63100  Biso   1.000  C
  H87      1.0000 0.68792  0.64460  0.56740  Biso   1.000  H
  H88      1.0000 0.72902  0.59128  0.58379  Biso   1.000  H
  C87      1.0000 0.69911  0.60711  0.66650  Biso   1.000  C
  H89      1.0000 0.74799  0.66459  0.63049  Biso   1.000  H
  O74      1.0000 0.65101  0.68711  0.63313  Biso   1.000  O
  C88      1.0000 0.70450  0.64061  0.70590  Biso   1.000  C
  H90      1.0000 0.65428  0.58621  0.66620  Biso   1.000  H
  O75      1.0000 0.75489  0.56921  0.66514  Biso   1.000  O
  C89      1.0000 0.65511  0.72098  0.66921  Biso   1.000  C
  C90      1.0000 0.64982  0.68408  0.70620  Biso   1.000  C
  H91      1.0000 0.75100  0.65890  0.70708  Biso   1.000  H
  O76      1.0000 0.69642  0.60529  0.74076  Biso   1.000  O
  C91      1.0000 0.73980  0.51078  0.66231  Biso   1.000  C
  O77      1.0000 0.72011  0.74928  0.67046  Biso   1.000  O
  H92      1.0000 0.61639  0.74870  0.66930  Biso   1.000  H
  H93      1.0000 0.60359  0.66542  0.70599  Biso   1.000  H
  O78      1.0000 0.65418  0.71770  0.74167  Biso   1.000  O
  H94      1.0000 0.68859  0.50551  0.66520  Biso   1.000  H
  C92      1.0000 0.77510  0.48041  0.69549  Biso   1.000  C
  O79      1.0000 0.76038  0.49050  0.62340  Biso   1.000  O
  C93      1.0000 0.72171  0.80771  0.66611  Biso   1.000  C
  O80      1.0000 0.75038  0.49919  0.73404  Biso   1.000  O
  C94      1.0000 0.85420  0.48701  0.69239  Biso   1.000  C
  C95      1.0000 0.83300  0.49399  0.61540  Biso   1.000  C
  C96      1.0000 0.76292  0.83032  0.70219  Biso   1.000  C
  H95      1.0000 0.67330  0.82230  0.66760  Biso   1.000  H
  C97      1.0000 0.75250  0.82321  0.62529  Biso   1.000  C
  O81      1.0000 0.88618  0.45780  0.72287  Biso   1.000  O
  C98      1.0000 0.87508  0.46520  0.65050  Biso   1.000  C
  C99      1.0000 0.84782  0.46711  0.57549  Biso   1.000  C
  C100     1.0000 0.77520  0.89099  0.69699  Biso   1.000  C
  H96      1.0000 0.80879  0.81108  0.70289  Biso   1.000  H
  O82      1.0000 0.72773  0.81860  0.73845  Biso   1.000  O
  H97      1.0000 0.79702  0.80252  0.62151  Biso   1.000  H
  O83      1.0000 0.76660  0.88252  0.62367  Biso   1.000  O
  C101     1.0000 0.70559  0.81170  0.58890  Biso   1.000  C
  O84      1.0000 0.94682  0.47758  0.64512  Biso   1.000  O
  H98      1.0000 0.82102  0.48618  0.55401  Biso   1.000  H
  H99      1.0000 0.89758  0.47151  0.56910  Biso   1.000  H
  O85      1.0000 0.83072  0.40909  0.57521  Biso   1.000  O
  C102     1.0000 0.80972  0.90342  0.65449  Biso   1.000  C
  H100     1.0000 0.72928  0.91032  0.69790  Biso   1.000  H
  O86      1.0000 0.81698  0.91281  0.72850  Biso   1.000  O
  H101     1.0000 0.72881  0.82421  0.56359  Biso   1.000  H
  H102     1.0000 0.69730  0.77118  0.58659  Biso   1.000  H
  O87      1.0000 0.63971  0.84050  0.59340  Biso   1.000  O
  C103     1.0000 0.99259  0.43299  0.63630  Biso   1.000  C
  O88      1.0000 0.87472  0.87591  0.65470  Biso   1.000  O
  H103     1.0000 0.81641  0.94431  0.65090  Biso   1.000  H
  H104     1.0000 0.96610  0.39729  0.63709  Biso   1.000  H
  C104     1.0000 0.04898  0.43141  0.66830  Biso   1.000  C
  O89      1.0000 0.02193  0.43951  0.59766  Biso   1.000  O
  C105     1.0000 0.93371  0.90820  0.64339  Biso   1.000  C
  H105     1.0000 0.08112  0.39978  0.66240  Biso   1.000  H
  O90      1.0000 0.01799  0.42339  0.70781  Biso   1.000  O
  C106     1.0000 0.09019  0.48581  0.66809  Biso   1.000  C
  C107     1.0000 0.06749  0.48801  0.59310  Biso   1.000  C
  C108     1.0000 0.98632  0.90571  0.67779  Biso   1.000  C
  H106     1.0000 0.91899  0.94772  0.63940  Biso   1.000  H
  C109     1.0000 0.96481  0.88750  0.60530  Biso   1.000  C
  H107     1.0000 0.05888  0.51802  0.67381  Biso   1.000  H
  O91      1.0000 0.14492  0.48390  0.69689  Biso   1.000  O
  C110     1.0000 0.12212  0.49092  0.62611  Biso   1.000  C
  H108     1.0000 0.03830  0.52230  0.59480  Biso   1.000  H
  C111     1.0000 0.09480  0.48331  0.55030  Biso   1.000  C
  H109     1.0000 0.99881  0.86589  0.68251  Biso   1.000  H
  O92      1.0000 0.95890  0.92790  0.71490  Biso   1.000  O
  C112     1.0000 0.05100  0.93671  0.66520  Biso   1.000  C
  H110     1.0000 0.97688  0.84740  0.60861  Biso   1.000  H
  C113     1.0000 0.91531  0.89419  0.56831  Biso   1.000  C
  O93      1.0000 0.02649  0.91830  0.59499  Biso   1.000  O
  H111     1.0000 0.15669  0.46050  0.62200  Biso   1.000  H
  O94      1.0000 0.15602  0.54320  0.62383  Biso   1.000  O
  H112     1.0000 0.05582  0.47891  0.53101  Biso   1.000  H
  H113     1.0000 0.12041  0.51752  0.54291  Biso   1.000  H
  O95      1.0000 0.14088  0.43532  0.54741  Biso   1.000  O
  C114     1.0000 0.07842  0.91568  0.62620  Biso   1.000  C
  H114     1.0000 0.03747  0.97640  0.66091  Biso   1.000  H
  O96      1.0000 0.10341  0.93621  0.69501  Biso   1.000  O
  H115     1.0000 0.94070  0.88609  0.54279  Biso   1.000  H
  H116     1.0000 0.87648  0.86760  0.57059  Biso   1.000  H
  O97      1.0000 0.88939  0.94880  0.56700  Biso   1.000  O
  C115     1.0000 0.22620  0.54328  0.60910  Biso   1.000  C
  O98      1.0000 0.10180  0.86091  0.63125  Biso   1.000  O
  H117     1.0000 0.11849  0.93941  0.61789  Biso   1.000  H
  H118     1.0000 0.24159  0.50430  0.60399  Biso   1.000  H
  C116     1.0000 0.27191  0.56930  0.64150  Biso   1.000  C
  O99      1.0000 0.23039  0.57470  0.57202  Biso   1.000  O
  C117     1.0000 0.17260  0.84881  0.62039  Biso   1.000  C
  H119     1.0000 0.32058  0.56822  0.63110  Biso   1.000  H
  O100     1.0000 0.26989  0.53672  0.67733  Biso   1.000  O
  C118     1.0000 0.25387  0.63010  0.64929  Biso   1.000  C
  C119     1.0000 0.21308  0.63301  0.57561  Biso   1.000  C
  C120     1.0000 0.20121  0.81611  0.65659  Biso   1.000  C
  H120     1.0000 0.19919  0.88410  0.61680  Biso   1.000  H
  C121     1.0000 0.17488  0.81482  0.58169  Biso   1.000  C
  H121     1.0000 0.20572  0.63209  0.66030  Biso   1.000  H
  O101     1.0000 0.29809  0.65341  0.67709  Biso   1.000  O
  C122     1.0000 0.25662  0.66131  0.60919  Biso   1.000  C
  H122     1.0000 0.16291  0.63650  0.58261  Biso   1.000  H
  C123     1.0000 0.22459  0.65690  0.53409  Biso   1.000  C
  C124     1.0000 0.27549  0.79840  0.64439  Biso   1.000  C
  H123     1.0000 0.17172  0.78290  0.66249  Biso   1.000  H
  O102     1.0000 0.20520  0.85151  0.69114  Biso   1.000  O
  H124     1.0000 0.14181  0.78299  0.58379  Biso   1.000  H
  O103     1.0000 0.24418  0.79392  0.57433  Biso   1.000  O
  C125     1.0000 0.15710  0.85031  0.54409  Biso   1.000  C
  H125     1.0000 0.30581  0.66421  0.59991  Biso   1.000  H
  O104     1.0000 0.22982  0.71521  0.61582  Biso   1.000  O
  O105     1.0000 0.29731  0.63982  0.51760  Biso   1.000  O
  O106     1.0000 0.28021  0.65370  0.51760  Biso   1.000  O
  C126     1.0000 0.27160  0.76271  0.60621  Biso   1.000  C
  H126     1.0000 0.30348  0.83240  0.63840  Biso   1.000  H
  O107     1.0000 0.30788  0.76840  0.67770  Biso   1.000  O
  H127     1.0000 0.16208  0.82729  0.51930  Biso   1.000  H
  H128     1.0000 0.10828  0.86261  0.54589  Biso   1.000  H
  O108     1.0000 0.20049  0.89690  0.54111  Biso   1.000  O
  H129     1.0000 0.31929  0.74999  0.59870  Biso   1.000  H
  O109     1.0000 0.62841  0.41371  0.41031  Biso   1.000  O
  C127     1.0000 0.68968  0.38349  0.41061  Biso   1.000  C
  C128     1.0000 0.70150  0.35378  0.36900  Biso   1.000  C
  H130     1.0000 0.68792  0.35540  0.43260  Biso   1.000  H
  H131     1.0000 0.72902  0.40872  0.41621  Biso   1.000  H
  O110     1.0000 0.65101  0.31289  0.36687  Biso   1.000  O
  C129     1.0000 0.69911  0.39289  0.33350  Biso   1.000  C
  H132     1.0000 0.74799  0.33541  0.36951  Biso   1.000  H
  C130     1.0000 0.65511  0.27902  0.33079  Biso   1.000  C
  C131     1.0000 0.70450  0.35939  0.29410  Biso   1.000  C
  H133     1.0000 0.65428  0.41379  0.33380  Biso   1.000  H
  O111     1.0000 0.75489  0.43079  0.33486  Biso   1.000  O
  C132     1.0000 0.64982  0.31592  0.29380  Biso   1.000  C
  O112     1.0000 0.72011  0.25072  0.32954  Biso   1.000  O
  H134     1.0000 0.61639  0.25130  0.33070  Biso   1.000  H
  H135     1.0000 0.75100  0.34110  0.29292  Biso   1.000  H
  O113     1.0000 0.69642  0.39471  0.25924  Biso   1.000  O
  C133     1.0000 0.73980  0.48922  0.33769  Biso   1.000  C
  O114     1.0000 0.65418  0.28230  0.25833  Biso   1.000  O
  H136     1.0000 0.60359  0.33458  0.29401  Biso   1.000  H
  C134     1.0000 0.72171  0.19229  0.33389  Biso   1.000  C
  H137     1.0000 0.68859  0.49449  0.33480  Biso   1.000  H
  C135     1.0000 0.77510  0.51959  0.30451  Biso   1.000  C
  O115     1.0000 0.76038  0.50950  0.37660  Biso   1.000  O
  C136     1.0000 0.76292  0.16968  0.29781  Biso   1.000  C
  H138     1.0000 0.67330  0.17770  0.33240  Biso   1.000  H
  C137     1.0000 0.75250  0.17679  0.37471  Biso   1.000  C
  O116     1.0000 0.75038  0.50081  0.26596  Biso   1.000  O
  C138     1.0000 0.85420  0.51299  0.30761  Biso   1.000  C
  C139     1.0000 0.83300  0.50601  0.38460  Biso   1.000  C
  C140     1.0000 0.77520  0.10901  0.30301  Biso   1.000  C
  H139     1.0000 0.80879  0.18892  0.29711  Biso   1.000  H
  O117     1.0000 0.72773  0.18140  0.26155  Biso   1.000  O
  H140     1.0000 0.79702  0.19748  0.37849  Biso   1.000  H
  O118     1.0000 0.76660  0.11748  0.37633  Biso   1.000  O
  C141     1.0000 0.70559  0.18830  0.41110  Biso   1.000  C
  O119     1.0000 0.88618  0.54220  0.27713  Biso   1.000  O
  C142     1.0000 0.87508  0.53480  0.34950  Biso   1.000  C
  C143     1.0000 0.84782  0.53289  0.42451  Biso   1.000  C
  C144     1.0000 0.80972  0.09658  0.34551  Biso   1.000  C
  H141     1.0000 0.72928  0.08968  0.30210  Biso   1.000  H
  O120     1.0000 0.81698  0.08719  0.27150  Biso   1.000  O
  H142     1.0000 0.72881  0.17579  0.43641  Biso   1.000  H
  H143     1.0000 0.69730  0.22882  0.41341  Biso   1.000  H
  O121     1.0000 0.63971  0.15950  0.40660  Biso   1.000  O
  O122     1.0000 0.94682  0.52242  0.35488  Biso   1.000  O
  H144     1.0000 0.82102  0.51382  0.44599  Biso   1.000  H
  H145     1.0000 0.89758  0.52849  0.43090  Biso   1.000  H
  O123     1.0000 0.83072  0.59091  0.42479  Biso   1.000  O
  O124     1.0000 0.87472  0.12409  0.34530  Biso   1.000  O
  H146     1.0000 0.81641  0.05569  0.34910  Biso   1.000  H
  C145     1.0000 0.99259  0.56701  0.36370  Biso   1.000  C
  C146     1.0000 0.93371  0.09180  0.35661  Biso   1.000  C
  H147     1.0000 0.96610  0.60271  0.36291  Biso   1.000  H
  C147     1.0000 0.04898  0.56859  0.33170  Biso   1.000  C
  O125     1.0000 0.02193  0.56049  0.40234  Biso   1.000  O
  C148     1.0000 0.98632  0.09429  0.32221  Biso   1.000  C
  H148     1.0000 0.91899  0.05228  0.36060  Biso   1.000  H
  C149     1.0000 0.96481  0.11250  0.39470  Biso   1.000  C
  H149     1.0000 0.08112  0.60022  0.33760  Biso   1.000  H
  O126     1.0000 0.01799  0.57661  0.29219  Biso   1.000  O
  C150     1.0000 0.09019  0.51419  0.33191  Biso   1.000  C
  C151     1.0000 0.06749  0.51199  0.40690  Biso   1.000  C
  H150     1.0000 0.99881  0.13411  0.31749  Biso   1.000  H
  O127     1.0000 0.95890  0.07210  0.28510  Biso   1.000  O
  C152     1.0000 0.05100  0.06329  0.33480  Biso   1.000  C
  H151     1.0000 0.97688  0.15260  0.39139  Biso   1.000  H
  C153     1.0000 0.91531  0.10581  0.43169  Biso   1.000  C
  O128     1.0000 0.02649  0.08170  0.40501  Biso   1.000  O
  H152     1.0000 0.05888  0.48198  0.32619  Biso   1.000  H
  O129     1.0000 0.14492  0.51610  0.30311  Biso   1.000  O
  C154     1.0000 0.12212  0.50908  0.37389  Biso   1.000  C
  H153     1.0000 0.03830  0.47770  0.40520  Biso   1.000  H
  C155     1.0000 0.09480  0.51669  0.44970  Biso   1.000  C
  C156     1.0000 0.07842  0.08432  0.37380  Biso   1.000  C
  H154     1.0000 0.03747  0.02360  0.33909  Biso   1.000  H
  O130     1.0000 0.10341  0.06379  0.30499  Biso   1.000  O
  H155     1.0000 0.94070  0.11391  0.45721  Biso   1.000  H
  H156     1.0000 0.87648  0.13240  0.42941  Biso   1.000  H
  O131     1.0000 0.88939  0.05120  0.43300  Biso   1.000  O
  H157     1.0000 0.15669  0.53950  0.37800  Biso   1.000  H
  O132     1.0000 0.15602  0.45680  0.37617  Biso   1.000  O
  H158     1.0000 0.05582  0.52109  0.46899  Biso   1.000  H
  H159     1.0000 0.12041  0.48248  0.45709  Biso   1.000  H
  O133     1.0000 0.14088  0.56468  0.45259  Biso   1.000  O
  O134     1.0000 0.10180  0.13909  0.36875  Biso   1.000  O
  H160     1.0000 0.11849  0.06059  0.38211  Biso   1.000  H
  C157     1.0000 0.22620  0.45672  0.39090  Biso   1.000  C
  C158     1.0000 0.17260  0.15119  0.37961  Biso   1.000  C
  H161     1.0000 0.24159  0.49570  0.39601  Biso   1.000  H
  C159     1.0000 0.27191  0.43070  0.35850  Biso   1.000  C
  O135     1.0000 0.23039  0.42530  0.42798  Biso   1.000  O
  C160     1.0000 0.20121  0.18389  0.34341  Biso   1.000  C
  H162     1.0000 0.19919  0.11590  0.38320  Biso   1.000  H
  C161     1.0000 0.17488  0.18518  0.41831  Biso   1.000  C
  H163     1.0000 0.32058  0.43178  0.36890  Biso   1.000  H
  O136     1.0000 0.26989  0.46328  0.32267  Biso   1.000  O
  C162     1.0000 0.25387  0.36990  0.35071  Biso   1.000  C
  C163     1.0000 0.21308  0.36699  0.42439  Biso   1.000  C
  C164     1.0000 0.27549  0.20160  0.35561  Biso   1.000  C
  H164     1.0000 0.17172  0.21710  0.33751  Biso   1.000  H
  O137     1.0000 0.20520  0.14849  0.30886  Biso   1.000  O
  H165     1.0000 0.14181  0.21701  0.41621  Biso   1.000  H
  O138     1.0000 0.24418  0.20608  0.42567  Biso   1.000  O
  C165     1.0000 0.15710  0.14969  0.45591  Biso   1.000  C
  H166     1.0000 0.20572  0.36791  0.33970  Biso   1.000  H
  O139     1.0000 0.29809  0.34659  0.32291  Biso   1.000  O
  C166     1.0000 0.25662  0.33869  0.39081  Biso   1.000  C
  H167     1.0000 0.16291  0.36350  0.41739  Biso   1.000  H
  C167     1.0000 0.22459  0.34310  0.46591  Biso   1.000  C
  C168     1.0000 0.27160  0.23729  0.39379  Biso   1.000  C
  H168     1.0000 0.30348  0.16760  0.36160  Biso   1.000  H
  O140     1.0000 0.30788  0.23160  0.32230  Biso   1.000  O
  H169     1.0000 0.16208  0.17271  0.48070  Biso   1.000  H
  H170     1.0000 0.10828  0.13739  0.45411  Biso   1.000  H
  O141     1.0000 0.20049  0.10310  0.45889  Biso   1.000  O
  O142     1.0000 0.22982  0.28479  0.38418  Biso   1.000  O
  H171     1.0000 0.30581  0.33579  0.40009  Biso   1.000  H
  O143     1.0000 0.29731  0.36018  0.48240  Biso   1.000  O
  O144     1.0000 0.28021  0.34630  0.48240  Biso   1.000  O
  H172     1.0000 0.31929  0.25001  0.40130  Biso   1.000  H
  O145     1.0000 0.30358  0.39471  0.24078  Biso   1.000  O
  C169     1.0000 0.29550  0.35939  0.20591  Biso   1.000  C
  C170     1.0000 0.35018  0.31592  0.20619  Biso   1.000  C
  H173     1.0000 0.24900  0.34110  0.20710  Biso   1.000  H
  C171     1.0000 0.30089  0.39289  0.16649  Biso   1.000  C
  C172     1.0000 0.34489  0.27902  0.16920  Biso   1.000  C
  H174     1.0000 0.39641  0.33458  0.20600  Biso   1.000  H
  O146     1.0000 0.34582  0.28230  0.24166  Biso   1.000  O
  C173     1.0000 0.29850  0.35378  0.13099  Biso   1.000  C
  H175     1.0000 0.34572  0.41379  0.16619  Biso   1.000  H
  O147     1.0000 0.24511  0.43079  0.16512  Biso   1.000  O
  O148     1.0000 0.27989  0.25072  0.17044  Biso   1.000  O
  H176     1.0000 0.38361  0.25130  0.16929  Biso   1.000  H
  O149     1.0000 0.34899  0.31289  0.13312  Biso   1.000  O
  H177     1.0000 0.25201  0.33541  0.13050  Biso   1.000  H
  C174     1.0000 0.31032  0.38349  0.08940  Biso   1.000  C
  C175     1.0000 0.26020  0.48922  0.16229  Biso   1.000  C
  C176     1.0000 0.27829  0.19229  0.16609  Biso   1.000  C
  H178     1.0000 0.31208  0.35540  0.06741  Biso   1.000  H
  H179     1.0000 0.27098  0.40872  0.08381  Biso   1.000  H
  O150     1.0000 0.37159  0.41371  0.08971  Biso   1.000  O
  H180     1.0000 0.31141  0.49449  0.16521  Biso   1.000  H
  C177     1.0000 0.22490  0.51959  0.19551  Biso   1.000  C
  O151     1.0000 0.23962  0.50950  0.12341  Biso   1.000  O
  C178     1.0000 0.23708  0.16968  0.20220  Biso   1.000  C
  H181     1.0000 0.32670  0.17770  0.16761  Biso   1.000  H
  C179     1.0000 0.24750  0.17679  0.12530  Biso   1.000  C
  O152     1.0000 0.24962  0.50081  0.23402  Biso   1.000  O
  C180     1.0000 0.14580  0.51299  0.19241  Biso   1.000  C
  C181     1.0000 0.16700  0.50601  0.11541  Biso   1.000  C
  O153     1.0000 0.27227  0.18140  0.23846  Biso   1.000  O
  C182     1.0000 0.22480  0.10901  0.19700  Biso   1.000  C
  H182     1.0000 0.19121  0.18892  0.20290  Biso   1.000  H
  O154     1.0000 0.23340  0.11748  0.12366  Biso   1.000  O
  H183     1.0000 0.20298  0.19748  0.12150  Biso   1.000  H
  C183     1.0000 0.29441  0.18830  0.08889  Biso   1.000  C
  O155     1.0000 0.11382  0.54220  0.22289  Biso   1.000  O
  C184     1.0000 0.12492  0.53480  0.15049  Biso   1.000  C
  C185     1.0000 0.15218  0.53289  0.07550  Biso   1.000  C
  C186     1.0000 0.19028  0.09658  0.15450  Biso   1.000  C
  H184     1.0000 0.27072  0.08968  0.19791  Biso   1.000  H
  O156     1.0000 0.18302  0.08719  0.22849  Biso   1.000  O
  H185     1.0000 0.27119  0.17579  0.06361  Biso   1.000  H
  H186     1.0000 0.30270  0.22882  0.08661  Biso   1.000  H
  O157     1.0000 0.36029  0.15950  0.09339  Biso   1.000  O
  O158     1.0000 0.05318  0.52242  0.14510  Biso   1.000  O
  H187     1.0000 0.17898  0.51382  0.05400  Biso   1.000  H
  H188     1.0000 0.10242  0.52849  0.06911  Biso   1.000  H
  O159     1.0000 0.16928  0.59091  0.07520  Biso   1.000  O
  O160     1.0000 0.12528  0.12409  0.15472  Biso   1.000  O
  H189     1.0000 0.18359  0.05569  0.15091  Biso   1.000  H
  C187     1.0000 0.00741  0.56701  0.13631  Biso   1.000  C
  C188     1.0000 0.06629  0.09180  0.14340  Biso   1.000  C
  H190     1.0000 0.03390  0.60271  0.13710  Biso   1.000  H
  C189     1.0000 0.95102  0.56859  0.16831  Biso   1.000  C
  O161     1.0000 0.97807  0.56049  0.09768  Biso   1.000  O
  C190     1.0000 0.01368  0.09429  0.17781  Biso   1.000  C
  H191     1.0000 0.08101  0.05228  0.13938  Biso   1.000  H
  C191     1.0000 0.03519  0.11250  0.10531  Biso   1.000  C
  H192     1.0000 0.91888  0.60022  0.16241  Biso   1.000  H
  O162     1.0000 0.98201  0.57661  0.20783  Biso   1.000  O
  C192     1.0000 0.90981  0.51419  0.16810  Biso   1.000  C
  C193     1.0000 0.93251  0.51199  0.09309  Biso   1.000  C
  H193     1.0000 0.00119  0.13411  0.18249  Biso   1.000  H
  O163     1.0000 0.04110  0.07210  0.21489  Biso   1.000  O
  C194     1.0000 0.94900  0.06329  0.16521  Biso   1.000  C
  H194     1.0000 0.02312  0.15260  0.10860  Biso   1.000  H
  C195     1.0000 0.08469  0.10581  0.06829  Biso   1.000  C
  O164     1.0000 0.97351  0.08170  0.09500  Biso   1.000  O
  H195     1.0000 0.94112  0.48198  0.17379  Biso   1.000  H
  O165     1.0000 0.85508  0.51610  0.19691  Biso   1.000  O
  C196     1.0000 0.87788  0.50908  0.12609  Biso   1.000  C
  H196     1.0000 0.96170  0.47770  0.09479  Biso   1.000  H
  C197     1.0000 0.90520  0.51669  0.05031  Biso   1.000  C
  C198     1.0000 0.92158  0.08432  0.12621  Biso   1.000  C
  H197     1.0000 0.96253  0.02360  0.16089  Biso   1.000  H
  O166     1.0000 0.89659  0.06379  0.19499  Biso   1.000  O
  H198     1.0000 0.05930  0.11391  0.04280  Biso   1.000  H
  H199     1.0000 0.12352  0.13240  0.07061  Biso   1.000  H
  O167     1.0000 0.11061  0.05120  0.06699  Biso   1.000  O
  H200     1.0000 0.84331  0.53950  0.12202  Biso   1.000  H
  O168     1.0000 0.84398  0.45680  0.12384  Biso   1.000  O
  H201     1.0000 0.94418  0.52109  0.03100  Biso   1.000  H
  H202     1.0000 0.87959  0.48248  0.04289  Biso   1.000  H
  O169     1.0000 0.85912  0.56468  0.04739  Biso   1.000  O
  O170     1.0000 0.89820  0.13909  0.13126  Biso   1.000  O
  H203     1.0000 0.88151  0.06059  0.11791  Biso   1.000  H
  C199     1.0000 0.77380  0.45672  0.10909  Biso   1.000  C
  C200     1.0000 0.82740  0.15119  0.12040  Biso   1.000  C
  C201     1.0000 0.72809  0.43070  0.14151  Biso   1.000  C
  O171     1.0000 0.76961  0.42530  0.07203  Biso   1.000  O
  H204     1.0000 0.75841  0.49570  0.10401  Biso   1.000  H
  C202     1.0000 0.79879  0.18389  0.15660  Biso   1.000  C
  H205     1.0000 0.80081  0.11590  0.11681  Biso   1.000  H
  C203     1.0000 0.82512  0.18518  0.08171  Biso   1.000  C
  C204     1.0000 0.74613  0.36990  0.14930  Biso   1.000  C
  H206     1.0000 0.67942  0.43178  0.13111  Biso   1.000  H
  O172     1.0000 0.73011  0.46328  0.17732  Biso   1.000  O
  C205     1.0000 0.78692  0.36699  0.07559  Biso   1.000  C
  C206     1.0000 0.72451  0.20160  0.14440  Biso   1.000  C
  H207     1.0000 0.82828  0.21710  0.16250  Biso   1.000  H
  O173     1.0000 0.79480  0.14849  0.19113  Biso   1.000  O
  H208     1.0000 0.85819  0.21701  0.08381  Biso   1.000  H
  O174     1.0000 0.75582  0.20608  0.07432  Biso   1.000  O
  C207     1.0000 0.84290  0.14969  0.04411  Biso   1.000  C
  C208     1.0000 0.74338  0.33869  0.10921  Biso   1.000  C
  H209     1.0000 0.79428  0.36791  0.16031  Biso   1.000  H
  O175     1.0000 0.70191  0.34659  0.17711  Biso   1.000  O
  H210     1.0000 0.83709  0.36350  0.08259  Biso   1.000  H
  C209     1.0000 0.77541  0.34310  0.03410  Biso   1.000  C
  C210     1.0000 0.72840  0.23729  0.10620  Biso   1.000  C
  H211     1.0000 0.69652  0.16760  0.13841  Biso   1.000  H
  O176     1.0000 0.69212  0.23160  0.17771  Biso   1.000  O
  H212     1.0000 0.83792  0.17271  0.01929  Biso   1.000  H
  H213     1.0000 0.89172  0.13739  0.04590  Biso   1.000  H
  O177     1.0000 0.79951  0.10310  0.04110  Biso   1.000  O
  O178     1.0000 0.77018  0.28479  0.11581  Biso   1.000  O
  H214     1.0000 0.69419  0.33579  0.09990  Biso   1.000  H
  O179     1.0000 0.70269  0.36018  0.01761  Biso   1.000  O
  O180     1.0000 0.71979  0.34630  0.01761  Biso   1.000  O
  H215     1.0000 0.68071  0.25001  0.09871  Biso   1.000  H
  O181     1.0000 0.30358  0.60529  0.75922  Biso   1.000  O
  C211     1.0000 0.29550  0.64061  0.79409  Biso   1.000  C
  C212     1.0000 0.30089  0.60711  0.83351  Biso   1.000  C
  C213     1.0000 0.35018  0.68408  0.79381  Biso   1.000  C
  H216     1.0000 0.24900  0.65890  0.79290  Biso   1.000  H
  O182     1.0000 0.24511  0.56921  0.83488  Biso   1.000  O
  H217     1.0000 0.34572  0.58621  0.83381  Biso   1.000  H
  C214     1.0000 0.29850  0.64622  0.86901  Biso   1.000  C
  C215     1.0000 0.34489  0.72098  0.83080  Biso   1.000  C
  H218     1.0000 0.39641  0.66542  0.79400  Biso   1.000  H
  O183     1.0000 0.34582  0.71770  0.75834  Biso   1.000  O
  C216     1.0000 0.26020  0.51078  0.83771  Biso   1.000  C
  H219     1.0000 0.25201  0.66459  0.86950  Biso   1.000  H
  O184     1.0000 0.34899  0.68711  0.86688  Biso   1.000  O
  C217     1.0000 0.31032  0.61651  0.91060  Biso   1.000  C
  O185     1.0000 0.27989  0.74928  0.82956  Biso   1.000  O
  H220     1.0000 0.38361  0.74870  0.83071  Biso   1.000  H
  C218     1.0000 0.22490  0.48041  0.80449  Biso   1.000  C
  H221     1.0000 0.31141  0.50551  0.83479  Biso   1.000  H
  O186     1.0000 0.23962  0.49050  0.87659  Biso   1.000  O
  H222     1.0000 0.31208  0.64460  0.93259  Biso   1.000  H
  H223     1.0000 0.27098  0.59128  0.91619  Biso   1.000  H
  O187     1.0000 0.37159  0.58629  0.91029  Biso   1.000  O
  C219     1.0000 0.27829  0.80771  0.83391  Biso   1.000  C
  O188     1.0000 0.24962  0.49919  0.76598  Biso   1.000  O
  C220     1.0000 0.14580  0.48701  0.80759  Biso   1.000  C
  C221     1.0000 0.16700  0.49399  0.88459  Biso   1.000  C
  C222     1.0000 0.23708  0.83032  0.79780  Biso   1.000  C
  H224     1.0000 0.32670  0.82230  0.83239  Biso   1.000  H
  C223     1.0000 0.24750  0.82321  0.87470  Biso   1.000  C
  O189     1.0000 0.11382  0.45780  0.77711  Biso   1.000  O
  C224     1.0000 0.12492  0.46520  0.84951  Biso   1.000  C
  C225     1.0000 0.15218  0.46711  0.92450  Biso   1.000  C
  C226     1.0000 0.22480  0.89099  0.80300  Biso   1.000  C
  H225     1.0000 0.19121  0.81108  0.79710  Biso   1.000  H
  O190     1.0000 0.27227  0.81860  0.76154  Biso   1.000  O
  H226     1.0000 0.20298  0.80252  0.87850  Biso   1.000  H
  O191     1.0000 0.23340  0.88252  0.87634  Biso   1.000  O
  C227     1.0000 0.29441  0.81170  0.91111  Biso   1.000  C
  O192     1.0000 0.05318  0.47758  0.85490  Biso   1.000  O
  H227     1.0000 0.17898  0.48618  0.94600  Biso   1.000  H
  H228     1.0000 0.10242  0.47151  0.93089  Biso   1.000  H
  O193     1.0000 0.16928  0.40909  0.92480  Biso   1.000  O
  C228     1.0000 0.19028  0.90342  0.84550  Biso   1.000  C
  H229     1.0000 0.27072  0.91032  0.80209  Biso   1.000  H
  O194     1.0000 0.18302  0.91281  0.77151  Biso   1.000  O
  H230     1.0000 0.27119  0.82421  0.93639  Biso   1.000  H
  H231     1.0000 0.30270  0.77118  0.91339  Biso   1.000  H
  O195     1.0000 0.36029  0.84050  0.90661  Biso   1.000  O
  C229     1.0000 0.00741  0.43299  0.86369  Biso   1.000  C
  O196     1.0000 0.12528  0.87591  0.84528  Biso   1.000  O
  H232     1.0000 0.18359  0.94431  0.84909  Biso   1.000  H
  H233     1.0000 0.03390  0.39729  0.86290  Biso   1.000  H
  C230     1.0000 0.95102  0.43141  0.83169  Biso   1.000  C
  O197     1.0000 0.97807  0.43951  0.90232  Biso   1.000  O
  C231     1.0000 0.06629  0.90820  0.85660  Biso   1.000  C
  H234     1.0000 0.91888  0.39978  0.83759  Biso   1.000  H
  O198     1.0000 0.98201  0.42339  0.79217  Biso   1.000  O
  C232     1.0000 0.90981  0.48581  0.83190  Biso   1.000  C
  C233     1.0000 0.93251  0.48801  0.90691  Biso   1.000  C
  C234     1.0000 0.01368  0.90571  0.82219  Biso   1.000  C
  H235     1.0000 0.08101  0.94772  0.86062  Biso   1.000  H
  C235     1.0000 0.03519  0.88750  0.89469  Biso   1.000  C
  H236     1.0000 0.94112  0.51802  0.82621  Biso   1.000  H
  O199     1.0000 0.85508  0.48390  0.80309  Biso   1.000  O
  C236     1.0000 0.87788  0.49092  0.87391  Biso   1.000  C
  H237     1.0000 0.96170  0.52230  0.90521  Biso   1.000  H
  C237     1.0000 0.90520  0.48331  0.94969  Biso   1.000  C
  H238     1.0000 0.00119  0.86589  0.81751  Biso   1.000  H
  O200     1.0000 0.04110  0.92790  0.78511  Biso   1.000  O
  C238     1.0000 0.94900  0.93671  0.83479  Biso   1.000  C
  H239     1.0000 0.02312  0.84740  0.89140  Biso   1.000  H
  C239     1.0000 0.08469  0.89419  0.93171  Biso   1.000  C
  O201     1.0000 0.97351  0.91830  0.90500  Biso   1.000  O
  H240     1.0000 0.84331  0.46050  0.87798  Biso   1.000  H
  O202     1.0000 0.84398  0.54320  0.87616  Biso   1.000  O
  H241     1.0000 0.94418  0.47891  0.96900  Biso   1.000  H
  H242     1.0000 0.87959  0.51752  0.95711  Biso   1.000  H
  O203     1.0000 0.85912  0.43532  0.95261  Biso   1.000  O
  C240     1.0000 0.92158  0.91568  0.87379  Biso   1.000  C
  H243     1.0000 0.96253  0.97640  0.83911  Biso   1.000  H
  O204     1.0000 0.89659  0.93621  0.80501  Biso   1.000  O
  H244     1.0000 0.05930  0.88609  0.95720  Biso   1.000  H
  H245     1.0000 0.12352  0.86760  0.92939  Biso   1.000  H
  O205     1.0000 0.11061  0.94880  0.93301  Biso   1.000  O
  C241     1.0000 0.77380  0.54328  0.89091  Biso   1.000  C
  O206     1.0000 0.89820  0.86091  0.86874  Biso   1.000  O
  H246     1.0000 0.88151  0.93941  0.88209  Biso   1.000  H
  H247     1.0000 0.75841  0.50430  0.89599  Biso   1.000  H
  C242     1.0000 0.72809  0.56930  0.85849  Biso   1.000  C
  O207     1.0000 0.76961  0.57470  0.92797  Biso   1.000  O
  C243     1.0000 0.82740  0.84881  0.87960  Biso   1.000  C
  H248     1.0000 0.67942  0.56822  0.86889  Biso   1.000  H
  O208     1.0000 0.73011  0.53672  0.82268  Biso   1.000  O
  C244     1.0000 0.74613  0.63010  0.85070  Biso   1.000  C
  C245     1.0000 0.78692  0.63301  0.92441  Biso   1.000  C
  C246     1.0000 0.79879  0.81611  0.84340  Biso   1.000  C
  C247     1.0000 0.82512  0.81482  0.91829  Biso   1.000  C
  H249     1.0000 0.80081  0.88410  0.88319  Biso   1.000  H
  H250     1.0000 0.79428  0.63209  0.83969  Biso   1.000  H
  O209     1.0000 0.70191  0.65341  0.82289  Biso   1.000  O
  C248     1.0000 0.74338  0.66131  0.89079  Biso   1.000  C
  H251     1.0000 0.83709  0.63650  0.91741  Biso   1.000  H
  C249     1.0000 0.77541  0.65690  0.96590  Biso   1.000  C
  C250     1.0000 0.72451  0.79840  0.85560  Biso   1.000  C
  H252     1.0000 0.82828  0.78290  0.83750  Biso   1.000  H
  O210     1.0000 0.79480  0.85151  0.80887  Biso   1.000  O
  O211     1.0000 0.75582  0.79392  0.92568  Biso   1.000  O
  H253     1.0000 0.85819  0.78299  0.91619  Biso   1.000  H
  C251     1.0000 0.84290  0.85031  0.95589  Biso   1.000  C
  H254     1.0000 0.69419  0.66421  0.90010  Biso   1.000  H
  O212     1.0000 0.77018  0.71521  0.88419  Biso   1.000  O
  O213     1.0000 0.70269  0.63982  0.98239  Biso   1.000  O
  O214     1.0000 0.71979  0.65370  0.98239  Biso   1.000  O
  C252     1.0000 0.72840  0.76271  0.89380  Biso   1.000  C
  H255     1.0000 0.69652  0.83240  0.86159  Biso   1.000  H
  O215     1.0000 0.69212  0.76840  0.82229  Biso   1.000  O
  H256     1.0000 0.83792  0.82729  0.98071  Biso   1.000  H
  H257     1.0000 0.89172  0.86261  0.95410  Biso   1.000  H
  O216     1.0000 0.79951  0.89690  0.95890  Biso   1.000  O
  H258     1.0000 0.68071  0.74999  0.90129  Biso   1.000  H
  O217     1.0000 0.54108  0.57208  0.21489  Biso   1.000  O
  C253     1.0000 0.51371  0.59431  0.17781  Biso   1.000  C
  C254     1.0000 0.44902  0.56331  0.16521  Biso   1.000  C
  H259     1.0000 0.50122  0.63409  0.18249  Biso   1.000  H
  C255     1.0000 0.56632  0.59178  0.14340  Biso   1.000  C
  O218     1.0000 0.39662  0.56381  0.19499  Biso   1.000  O
  C256     1.0000 0.42160  0.58430  0.12621  Biso   1.000  C
  H260     1.0000 0.46250  0.52358  0.16089  Biso   1.000  H
  C257     1.0000 0.53522  0.61252  0.10531  Biso   1.000  C
  H261     1.0000 0.58099  0.55230  0.13938  Biso   1.000  H
  O219     1.0000 0.62530  0.62411  0.15472  Biso   1.000  O
  O220     1.0000 0.39818  0.63911  0.13126  Biso   1.000  O
  H262     1.0000 0.38149  0.56061  0.11791  Biso   1.000  H
  O221     1.0000 0.47349  0.58168  0.09500  Biso   1.000  O
  H263     1.0000 0.52309  0.65262  0.10860  Biso   1.000  H
  C258     1.0000 0.58472  0.60578  0.06829  Biso   1.000  C
  C259     1.0000 0.69030  0.59660  0.15450  Biso   1.000  C
  C260     1.0000 0.32742  0.65121  0.12040  Biso   1.000  C
  H264     1.0000 0.55932  0.61389  0.04280  Biso   1.000  H
  H265     1.0000 0.62349  0.63238  0.07061  Biso   1.000  H
  O222     1.0000 0.61058  0.55122  0.06699  Biso   1.000  O
  H266     1.0000 0.68362  0.55571  0.15091  Biso   1.000  H
  C261     1.0000 0.72482  0.60898  0.19700  Biso   1.000  C
  O223     1.0000 0.73337  0.61750  0.12366  Biso   1.000  O
  C262     1.0000 0.29881  0.68391  0.15660  Biso   1.000  C
  H267     1.0000 0.30078  0.61588  0.11681  Biso   1.000  H
  C263     1.0000 0.32509  0.68520  0.08171  Biso   1.000  C
  H268     1.0000 0.77069  0.58970  0.19791  Biso   1.000  H
  O224     1.0000 0.68299  0.58721  0.22849  Biso   1.000  O
  C264     1.0000 0.73711  0.66970  0.20220  Biso   1.000  C
  C265     1.0000 0.74753  0.67681  0.12530  Biso   1.000  C
  C266     1.0000 0.22449  0.70162  0.14440  Biso   1.000  C
  H269     1.0000 0.32831  0.71712  0.16250  Biso   1.000  H
  O225     1.0000 0.29482  0.64851  0.19113  Biso   1.000  O
  H270     1.0000 0.35821  0.71699  0.08381  Biso   1.000  H
  O226     1.0000 0.25579  0.70610  0.07432  Biso   1.000  O
  C267     1.0000 0.34292  0.64971  0.04411  Biso   1.000  C
  H271     1.0000 0.69118  0.68890  0.20290  Biso   1.000  H
  O227     1.0000 0.77230  0.68142  0.23846  Biso   1.000  O
  C268     1.0000 0.77831  0.69231  0.16609  Biso   1.000  C
  H272     1.0000 0.70300  0.69750  0.12150  Biso   1.000  H
  C269     1.0000 0.79438  0.68832  0.08889  Biso   1.000  C
  C270     1.0000 0.22842  0.73731  0.10620  Biso   1.000  C
  H273     1.0000 0.19650  0.66758  0.13841  Biso   1.000  H
  O228     1.0000 0.19209  0.73158  0.17771  Biso   1.000  O
  H274     1.0000 0.33789  0.67269  0.01929  Biso   1.000  H
  H275     1.0000 0.39170  0.63741  0.04590  Biso   1.000  H
  O229     1.0000 0.29949  0.60308  0.04110  Biso   1.000  O
  H276     1.0000 0.82672  0.67768  0.16761  Biso   1.000  H
  O230     1.0000 0.77992  0.75070  0.17044  Biso   1.000  O
  H277     1.0000 0.77121  0.67581  0.06361  Biso   1.000  H
  H278     1.0000 0.80267  0.72880  0.08661  Biso   1.000  H
  O231     1.0000 0.86031  0.65952  0.09339  Biso   1.000  O
  O232     1.0000 0.27020  0.78481  0.11581  Biso   1.000  O
  H279     1.0000 0.18069  0.74999  0.09871  Biso   1.000  H
  C271     1.0000 0.84492  0.77900  0.16920  Biso   1.000  C
  C272     1.0000 0.24340  0.83872  0.10921  Biso   1.000  C
  H280     1.0000 0.88358  0.75132  0.16929  Biso   1.000  H
  C273     1.0000 0.85020  0.81590  0.20619  Biso   1.000  C
  O233     1.0000 0.84901  0.81291  0.13312  Biso   1.000  O
  C274     1.0000 0.24610  0.86988  0.14930  Biso   1.000  C
  H281     1.0000 0.19422  0.83581  0.09990  Biso   1.000  H
  C275     1.0000 0.28689  0.86702  0.07559  Biso   1.000  C
  H282     1.0000 0.89639  0.83460  0.20600  Biso   1.000  H
  O234     1.0000 0.84580  0.78228  0.24166  Biso   1.000  O
  C276     1.0000 0.79552  0.85941  0.20591  Biso   1.000  C
  C277     1.0000 0.79848  0.85380  0.13099  Biso   1.000  C
  C278     1.0000 0.22811  0.93068  0.14151  Biso   1.000  C
  H283     1.0000 0.29430  0.86789  0.16031  Biso   1.000  H
  O235     1.0000 0.20189  0.84661  0.17711  Biso   1.000  O
  H284     1.0000 0.33712  0.86348  0.08259  Biso   1.000  H
  C279     1.0000 0.27538  0.84312  0.03410  Biso   1.000  C
  O236     1.0000 0.26958  0.92528  0.07203  Biso   1.000  O
  H285     1.0000 0.74898  0.84108  0.20710  Biso   1.000  H
  O237     1.0000 0.80361  0.89469  0.24078  Biso   1.000  O
  C280     1.0000 0.80091  0.89291  0.16649  Biso   1.000  C
  H286     1.0000 0.75198  0.83539  0.13050  Biso   1.000  H
  C281     1.0000 0.81029  0.88351  0.08940  Biso   1.000  C
  C282     1.0000 0.27378  0.95670  0.10909  Biso   1.000  C
  H287     1.0000 0.17939  0.93180  0.13111  Biso   1.000  H
  O238     1.0000 0.23008  0.96330  0.17732  Biso   1.000  O
  O239     1.0000 0.20272  0.86020  0.01761  Biso   1.000  O
  O240     1.0000 0.21982  0.84632  0.01761  Biso   1.000  O
  H288     1.0000 0.84570  0.91381  0.16619  Biso   1.000  H
  O241     1.0000 0.74509  0.93081  0.16512  Biso   1.000  O
  H289     1.0000 0.81211  0.85538  0.06741  Biso   1.000  H
  H290     1.0000 0.77101  0.90870  0.08381  Biso   1.000  H
  O242     1.0000 0.87161  0.91368  0.08971  Biso   1.000  O
  O243     1.0000 0.34401  0.95678  0.12384  Biso   1.000  O
  H291     1.0000 0.25838  0.99572  0.10401  Biso   1.000  H
  C283     1.0000 0.76022  0.98920  0.16229  Biso   1.000  C
  C284     1.0000 0.37791  0.00910  0.12609  Biso   1.000  C
  H292     1.0000 0.81138  0.99451  0.16521  Biso   1.000  H
  C285     1.0000 0.72487  0.01962  0.19551  Biso   1.000  C
  O244     1.0000 0.73959  0.00952  0.12341  Biso   1.000  O
  C286     1.0000 0.40979  0.01421  0.16810  Biso   1.000  C
  H293     1.0000 0.34329  0.03948  0.12202  Biso   1.000  H
  C287     1.0000 0.43249  0.01201  0.09309  Biso   1.000  C
  O245     1.0000 0.74960  0.00079  0.23402  Biso   1.000  O
  C288     1.0000 0.64578  0.01301  0.19241  Biso   1.000  C
  C289     1.0000 0.66698  0.00598  0.11541  Biso   1.000  C
  H294     1.0000 0.44109  0.98201  0.17379  Biso   1.000  H
  C290     1.0000 0.45099  0.06861  0.16831  Biso   1.000  C
  O246     1.0000 0.35510  0.01608  0.19691  Biso   1.000  O
  H295     1.0000 0.46172  0.97768  0.09479  Biso   1.000  H
  O247     1.0000 0.47810  0.06051  0.09768  Biso   1.000  O
  C291     1.0000 0.40522  0.01671  0.05031  Biso   1.000  C
  O248     1.0000 0.61380  0.04218  0.22289  Biso   1.000  O
  C292     1.0000 0.62489  0.03478  0.15049  Biso   1.000  C
  C293     1.0000 0.65221  0.03291  0.07550  Biso   1.000  C
  C294     1.0000 0.50739  0.06699  0.13631  Biso   1.000  C
  H296     1.0000 0.41891  0.10020  0.16241  Biso   1.000  H
  O249     1.0000 0.48199  0.07659  0.20783  Biso   1.000  O
  H297     1.0000 0.37962  0.98250  0.04289  Biso   1.000  H
  H298     1.0000 0.44420  0.02111  0.03100  Biso   1.000  H
  O250     1.0000 0.35909  0.06471  0.04739  Biso   1.000  O
  O251     1.0000 0.55321  0.02240  0.14510  Biso   1.000  O
  H299     1.0000 0.67900  0.01380  0.05400  Biso   1.000  H
  H300     1.0000 0.60239  0.02851  0.06911  Biso   1.000  H
  O252     1.0000 0.66931  0.09089  0.07520  Biso   1.000  O
  H301     1.0000 0.53392  0.10269  0.13710  Biso   1.000  H
  O253     1.0000 0.54108  0.42792  0.78511  Biso   1.000  O
  C295     1.0000 0.51371  0.40569  0.82219  Biso   1.000  C
  C296     1.0000 0.44902  0.43669  0.83479  Biso   1.000  C
  H302     1.0000 0.50122  0.36591  0.81751  Biso   1.000  H
  C297     1.0000 0.56632  0.40822  0.85660  Biso   1.000  C
  C298     1.0000 0.42160  0.41570  0.87379  Biso   1.000  C
  H303     1.0000 0.46250  0.47642  0.83911  Biso   1.000  H
  O254     1.0000 0.39662  0.43619  0.80501  Biso   1.000  O
  C299     1.0000 0.53522  0.38748  0.89469  Biso   1.000  C
  H304     1.0000 0.58099  0.44770  0.86062  Biso   1.000  H
  O255     1.0000 0.62530  0.37589  0.84528  Biso   1.000  O
  O256     1.0000 0.39818  0.36089  0.86874  Biso   1.000  O
  H305     1.0000 0.38149  0.43939  0.88209  Biso   1.000  H
  O257     1.0000 0.47349  0.41832  0.90500  Biso   1.000  O
  H306     1.0000 0.52309  0.34738  0.89140  Biso   1.000  H
  C300     1.0000 0.58472  0.39422  0.93171  Biso   1.000  C
  C301     1.0000 0.69030  0.40340  0.84550  Biso   1.000  C
  C302     1.0000 0.32742  0.34879  0.87960  Biso   1.000  C
  H307     1.0000 0.55932  0.38611  0.95720  Biso   1.000  H
  H308     1.0000 0.62349  0.36762  0.92939  Biso   1.000  H
  O258     1.0000 0.61058  0.44878  0.93301  Biso   1.000  O
  H309     1.0000 0.68362  0.44429  0.84909  Biso   1.000  H
  C303     1.0000 0.72482  0.39102  0.80300  Biso   1.000  C
  O259     1.0000 0.73337  0.38250  0.87634  Biso   1.000  O
  C304     1.0000 0.29881  0.31609  0.84340  Biso   1.000  C
  H310     1.0000 0.30078  0.38412  0.88319  Biso   1.000  H
  C305     1.0000 0.32509  0.31480  0.91829  Biso   1.000  C
  H311     1.0000 0.77069  0.41030  0.80209  Biso   1.000  H
  O260     1.0000 0.68299  0.41279  0.77151  Biso   1.000  O
  C306     1.0000 0.73711  0.33030  0.79780  Biso   1.000  C
  C307     1.0000 0.74753  0.32319  0.87470  Biso   1.000  C
  O261     1.0000 0.29482  0.35149  0.80887  Biso   1.000  O
  C308     1.0000 0.22449  0.29838  0.85560  Biso   1.000  C
  H312     1.0000 0.32831  0.28288  0.83750  Biso   1.000  H
  O262     1.0000 0.25579  0.29390  0.92568  Biso   1.000  O
  H313     1.0000 0.35821  0.28301  0.91619  Biso   1.000  H
  C309     1.0000 0.34292  0.35029  0.95589  Biso   1.000  C
  H314     1.0000 0.69118  0.31110  0.79710  Biso   1.000  H
  O263     1.0000 0.77230  0.31858  0.76154  Biso   1.000  O
  C310     1.0000 0.77831  0.30769  0.83391  Biso   1.000  C
  H315     1.0000 0.70300  0.30250  0.87850  Biso   1.000  H
  C311     1.0000 0.79438  0.31168  0.91111  Biso   1.000  C
  C312     1.0000 0.22842  0.26269  0.89380  Biso   1.000  C
  H316     1.0000 0.19650  0.33242  0.86159  Biso   1.000  H
  O264     1.0000 0.19209  0.26842  0.82229  Biso   1.000  O
  H317     1.0000 0.33789  0.32731  0.98071  Biso   1.000  H
  H318     1.0000 0.39170  0.36259  0.95410  Biso   1.000  H
  O265     1.0000 0.29949  0.39692  0.95890  Biso   1.000  O
  H319     1.0000 0.82672  0.32232  0.83239  Biso   1.000  H
  O266     1.0000 0.77992  0.24930  0.82956  Biso   1.000  O
  H320     1.0000 0.77121  0.32419  0.93639  Biso   1.000  H
  H321     1.0000 0.80267  0.27120  0.91339  Biso   1.000  H
  O267     1.0000 0.86031  0.34048  0.90661  Biso   1.000  O
  O268     1.0000 0.27020  0.21519  0.88419  Biso   1.000  O
  H322     1.0000 0.18069  0.25001  0.90129  Biso   1.000  H
  C313     1.0000 0.84492  0.22100  0.83080  Biso   1.000  C
  C314     1.0000 0.24340  0.16128  0.89079  Biso   1.000  C
  H323     1.0000 0.88358  0.24868  0.83071  Biso   1.000  H
  C315     1.0000 0.85020  0.18410  0.79381  Biso   1.000  C
  O269     1.0000 0.84901  0.18709  0.86688  Biso   1.000  O
  C316     1.0000 0.24610  0.13012  0.85070  Biso   1.000  C
  H324     1.0000 0.19422  0.16419  0.90010  Biso   1.000  H
  C317     1.0000 0.28689  0.13298  0.92441  Biso   1.000  C
  H325     1.0000 0.89639  0.16540  0.79400  Biso   1.000  H
  O270     1.0000 0.84580  0.21772  0.75834  Biso   1.000  O
  C318     1.0000 0.79552  0.14059  0.79409  Biso   1.000  C
  C319     1.0000 0.79848  0.14620  0.86901  Biso   1.000  C
  C320     1.0000 0.22811  0.06932  0.85849  Biso   1.000  C
  H326     1.0000 0.29430  0.13211  0.83969  Biso   1.000  H
  O271     1.0000 0.20189  0.15339  0.82289  Biso   1.000  O
  H327     1.0000 0.33712  0.13652  0.91741  Biso   1.000  H
  C321     1.0000 0.27538  0.15688  0.96590  Biso   1.000  C
  O272     1.0000 0.26958  0.07472  0.92797  Biso   1.000  O
  H328     1.0000 0.74898  0.15892  0.79290  Biso   1.000  H
  O273     1.0000 0.80361  0.10531  0.75922  Biso   1.000  O
  C322     1.0000 0.80091  0.10709  0.83351  Biso   1.000  C
  H329     1.0000 0.75198  0.16461  0.86950  Biso   1.000  H
  C323     1.0000 0.81029  0.11649  0.91060  Biso   1.000  C
  C324     1.0000 0.27378  0.04330  0.89091  Biso   1.000  C
  H330     1.0000 0.17939  0.06820  0.86889  Biso   1.000  H
  O274     1.0000 0.23008  0.03670  0.82268  Biso   1.000  O
  O275     1.0000 0.20272  0.13980  0.98239  Biso   1.000  O
  O276     1.0000 0.21982  0.15368  0.98239  Biso   1.000  O
  H331     1.0000 0.84570  0.08619  0.83381  Biso   1.000  H
  O277     1.0000 0.74509  0.06919  0.83488  Biso   1.000  O
  H332     1.0000 0.81211  0.14462  0.93259  Biso   1.000  H
  H333     1.0000 0.77101  0.09130  0.91619  Biso   1.000  H
  O278     1.0000 0.87161  0.08632  0.91029  Biso   1.000  O
  O279     1.0000 0.34401  0.04322  0.87616  Biso   1.000  O
  H334     1.0000 0.25838  0.00428  0.89599  Biso   1.000  H
  C325     1.0000 0.76022  0.01080  0.83771  Biso   1.000  C
  C326     1.0000 0.37791  0.99090  0.87391  Biso   1.000  C
  C327     1.0000 0.72487  0.98038  0.80449  Biso   1.000  C
  O280     1.0000 0.73959  0.99048  0.87659  Biso   1.000  O
  H335     1.0000 0.81138  0.00549  0.83479  Biso   1.000  H
  C328     1.0000 0.40979  0.98579  0.83190  Biso   1.000  C
  H336     1.0000 0.34329  0.96052  0.87798  Biso   1.000  H
  C329     1.0000 0.43249  0.98799  0.90691  Biso   1.000  C
  C330     1.0000 0.64578  0.98699  0.80759  Biso   1.000  C
  O281     1.0000 0.74960  0.99921  0.76598  Biso   1.000  O
  C331     1.0000 0.66698  0.99402  0.88459  Biso   1.000  C
  H337     1.0000 0.44109  0.01799  0.82621  Biso   1.000  H
  C332     1.0000 0.45099  0.93139  0.83169  Biso   1.000  C
  O282     1.0000 0.35510  0.98392  0.80309  Biso   1.000  O
  H338     1.0000 0.46172  0.02232  0.90521  Biso   1.000  H
  O283     1.0000 0.47810  0.93949  0.90232  Biso   1.000  O
  C333     1.0000 0.40522  0.98329  0.94969  Biso   1.000  C
  C334     1.0000 0.62489  0.96522  0.84951  Biso   1.000  C
  O284     1.0000 0.61380  0.95782  0.77711  Biso   1.000  O
  C335     1.0000 0.65221  0.96709  0.92450  Biso   1.000  C
  C336     1.0000 0.50739  0.93301  0.86369  Biso   1.000  C
  H339     1.0000 0.41891  0.89980  0.83759  Biso   1.000  H
  O285     1.0000 0.48199  0.92341  0.79217  Biso   1.000  O
  H340     1.0000 0.37962  0.01750  0.95711  Biso   1.000  H
  H341     1.0000 0.44420  0.97889  0.96900  Biso   1.000  H
  O286     1.0000 0.35909  0.93529  0.95261  Biso   1.000  O
  O287     1.0000 0.55321  0.97760  0.85490  Biso   1.000  O
  H342     1.0000 0.67900  0.98620  0.94600  Biso   1.000  H
  H343     1.0000 0.60239  0.97149  0.93089  Biso   1.000  H
  O288     1.0000 0.66931  0.90911  0.92480  Biso   1.000  O
  H344     1.0000 0.53392  0.89731  0.86290  Biso   1.000  H
  Ne1      1.0000 0.02735  0.31580  0.13728  Biso   1.000  Ne
  He1      1.0000 0.03326  0.31950  0.15737  Biso   1.000  He
  He2      1.0000 0.04689  0.32156  0.09907  Biso   1.000  He
  Ar1      1.0000 0.03146  0.32333  0.14622  Biso   1.000  Ar
  Ne2      1.0000 0.97265  0.31580  0.36272  Biso   1.000  Ne
  He3      1.0000 0.95520  0.32181  0.39455  Biso   1.000  He
  He4      1.0000 0.96687  0.32323  0.35881  Biso   1.000  He
  Ar2      1.0000 0.97017  0.32280  0.35916  Biso   1.000  Ar
  Ne3      1.0000 0.52735  0.81580  0.13728  Biso   1.000  Ne
  He5      1.0000 0.53322  0.81952  0.15737  Biso   1.000  He
  He6      1.0000 0.54689  0.82156  0.09907  Biso   1.000  He
  Ar3      1.0000 0.53153  0.82341  0.14612  Biso   1.000  Ar
  Ne4      1.0000 0.47265  0.81580  0.36272  Biso   1.000  Ne
  He7      1.0000 0.45519  0.82181  0.39455  Biso   1.000  He
  He8      1.0000 0.46600  0.81775  0.33749  Biso   1.000  He
  Ar4      1.0000 0.46847  0.82341  0.35387  Biso   1.000  Ar
  Ne5      1.0000 0.47265  0.18420  0.63728  Biso   1.000  Ne
  He9      1.0000 0.46559  0.18316  0.66517  Biso   1.000  He
  He10     1.0000 0.45474  0.17825  0.60405  Biso   1.000  He
  Ar5      1.0000 0.46847  0.17659  0.64613  Biso   1.000  Ar
  Ne6      1.0000 0.97265  0.68420  0.63728  Biso   1.000  Ne
  He11     1.0000 0.96736  0.67671  0.64267  Biso   1.000  He
  He12     1.0000 0.95404  0.67833  0.60189  Biso   1.000  He
  Ar6      1.0000 0.96683  0.67598  0.64275  Biso   1.000  Ar
  Ne7      1.0000 0.02735  0.68420  0.86272  Biso   1.000  Ne
  He13     1.0000 0.04589  0.67832  0.89790  Biso   1.000  He
  He14     1.0000 0.02022  0.68503  0.79014  Biso   1.000  He
  Ar7      1.0000 0.03156  0.67658  0.85403  Biso   1.000  Ar
  Ne8      1.0000 0.52735  0.18420  0.86272  Biso   1.000  Ne
  He15     1.0000 0.54590  0.17832  0.89789  Biso   1.000  He
  He16     1.0000 0.52018  0.18503  0.79014  Biso   1.000  He
  Ar8      1.0000 0.53152  0.17659  0.85389  Biso   1.000  Ar
