data_image0
_cell_length_a       19.156
_cell_length_b       24.075
_cell_length_c       32.596
_cell_angle_alpha    90
_cell_angle_beta     90
_cell_angle_gamma    90

_symmetry_space_group_name_H-M    "P 1"
_symmetry_int_tables_number       1

loop_
  _symmetry_equiv_pos_as_xyz
  'x, y, z'

loop_
  _atom_site_label
  _atom_site_occupancy
  _atom_site_fract_x
  _atom_site_fract_y
  _atom_site_fract_z
  _atom_site_thermal_displace_type
  _atom_site_B_iso_or_equiv
  _atom_site_type_symbol
  C1       1.0000 0.40155  0.47759  0.45042  Biso   1.000  C
  C2       1.0000 0.43229  0.48183  0.40803  Biso   1.000  C
  H1       1.0000 0.43892  0.47688  0.47049  Biso   1.000  H
  H2       1.0000 0.37289  0.50999  0.45579  Biso   1.000  H
  O1       1.0000 0.36030  0.42887  0.45463  Biso   1.000  O
  O2       1.0000 0.47515  0.43335  0.40330  Biso   1.000  O
  C3       1.0000 0.37696  0.48428  0.37456  Biso   1.000  C
  H3       1.0000 0.46168  0.51510  0.40640  Biso   1.000  H
  H4       1.0000 0.31948  0.43759  0.45871  Biso   1.000  H
  C4       1.0000 0.50600  0.42758  0.36449  Biso   1.000  C
  C5       1.0000 0.40823  0.47992  0.33243  Biso   1.000  C
  H5       1.0000 0.34282  0.45450  0.37860  Biso   1.000  H
  O3       1.0000 0.34224  0.53807  0.37646  Biso   1.000  O
  O4       1.0000 0.55168  0.47223  0.35569  Biso   1.000  O
  H6       1.0000 0.53242  0.39269  0.36369  Biso   1.000  H
  C6       1.0000 0.45056  0.42642  0.33145  Biso   1.000  C
  H7       1.0000 0.43897  0.51169  0.32740  Biso   1.000  H
  O5       1.0000 0.35388  0.47900  0.30268  Biso   1.000  O
  C7       1.0000 0.27146  0.53998  0.39137  Biso   1.000  C
  C8       1.0000 0.62550  0.46073  0.35084  Biso   1.000  C
  H8       1.0000 0.41898  0.39531  0.33710  Biso   1.000  H
  O6       1.0000 0.48063  0.41807  0.29191  Biso   1.000  O
  H9       1.0000 0.36772  0.49358  0.28141  Biso   1.000  H
  H10      1.0000 0.25548  0.50210  0.39729  Biso   1.000  H
  C9       1.0000 0.22620  0.56465  0.35891  Biso   1.000  C
  O7       1.0000 0.26879  0.57213  0.42800  Biso   1.000  O
  C10      1.0000 0.66538  0.48972  0.38489  Biso   1.000  C
  C11      1.0000 0.64706  0.48220  0.30906  Biso   1.000  C
  H11      1.0000 0.63359  0.42060  0.35231  Biso   1.000  H
  H12      1.0000 0.46988  0.38721  0.28341  Biso   1.000  H
  H13      1.0000 0.17791  0.56432  0.36891  Biso   1.000  H
  O8       1.0000 0.22912  0.53229  0.32234  Biso   1.000  O
  C12      1.0000 0.24671  0.62517  0.35023  Biso   1.000  C
  C13      1.0000 0.28962  0.62891  0.42281  Biso   1.000  C
  C14      1.0000 0.65160  0.46405  0.42711  Biso   1.000  C
  H14      1.0000 0.65139  0.52889  0.38551  Biso   1.000  H
  O9       1.0000 0.73883  0.48673  0.37860  Biso   1.000  O
  C15      1.0000 0.72541  0.47639  0.30522  Biso   1.000  C
  H15      1.0000 0.63411  0.52141  0.30660  Biso   1.000  H
  O10      1.0000 0.61438  0.45126  0.27746  Biso   1.000  O
  H16      1.0000 0.19607  0.54039  0.30749  Biso   1.000  H
  H17      1.0000 0.29458  0.62621  0.33970  Biso   1.000  H
  O11      1.0000 0.20119  0.65005  0.32124  Biso   1.000  O
  C16      1.0000 0.24358  0.65612  0.39023  Biso   1.000  C
  H18      1.0000 0.33859  0.63049  0.41431  Biso   1.000  H
  C17      1.0000 0.28137  0.65533  0.46530  Biso   1.000  C
  H19      1.0000 0.67932  0.48299  0.44769  Biso   1.000  H
  H20      1.0000 0.60268  0.46829  0.43419  Biso   1.000  H
  O12      1.0000 0.67013  0.40436  0.42622  Biso   1.000  O
  H21      1.0000 0.60180  0.45861  0.43091  Biso   1.000  H
  H22      1.0000 0.67431  0.42812  0.42889  Biso   1.000  H
  O13      1.0000 0.67880  0.50118  0.45960  Biso   1.000  O
  C18      1.0000 0.76044  0.50741  0.34016  Biso   1.000  C
  H23      1.0000 0.73731  0.43688  0.30771  Biso   1.000  H
  O14      1.0000 0.74953  0.49549  0.26681  Biso   1.000  O
  H24      1.0000 0.57230  0.45769  0.27749  Biso   1.000  H
  H25      1.0000 0.20500  0.63410  0.29909  Biso   1.000  H
  H26      1.0000 0.19519  0.65832  0.39990  Biso   1.000  H
  O15      1.0000 0.27088  0.71124  0.38299  Biso   1.000  O
  H27      1.0000 0.31458  0.63859  0.48411  Biso   1.000  H
  H28      1.0000 0.29192  0.69470  0.46349  Biso   1.000  H
  O16      1.0000 0.21325  0.64831  0.48086  Biso   1.000  O
  H29      1.0000 0.70119  0.39921  0.40931  Biso   1.000  H
  H30      1.0000 0.68391  0.53250  0.45030  Biso   1.000  H
  O17      1.0000 0.74452  0.56457  0.33596  Biso   1.000  O
  H31      1.0000 0.81108  0.50260  0.33780  Biso   1.000  H
  H32      1.0000 0.77072  0.47049  0.25509  Biso   1.000  H
  C19      1.0000 0.22928  0.75863  0.39336  Biso   1.000  C
  H33      1.0000 0.19310  0.67838  0.48110  Biso   1.000  H
  C20      1.0000 0.80179  0.60415  0.33384  Biso   1.000  C
  H34      1.0000 0.18219  0.74629  0.40079  Biso   1.000  H
  C21      1.0000 0.22515  0.79472  0.35520  Biso   1.000  C
  O18      1.0000 0.25861  0.78783  0.42640  Biso   1.000  O
  C22      1.0000 0.79458  0.63593  0.29497  Biso   1.000  C
  H35      1.0000 0.84611  0.58380  0.33351  Biso   1.000  H
  C23      1.0000 0.79970  0.64071  0.37081  Biso   1.000  C
  H36      1.0000 0.19670  0.82750  0.36139  Biso   1.000  H
  O19      1.0000 0.19320  0.76503  0.32206  Biso   1.000  O
  C24      1.0000 0.29698  0.81346  0.34400  Biso   1.000  C
  C25      1.0000 0.32752  0.81047  0.41846  Biso   1.000  C
  C26      1.0000 0.84981  0.68062  0.29366  Biso   1.000  C
  H37      1.0000 0.74838  0.65342  0.29421  Biso   1.000  H
  O20      1.0000 0.80220  0.60042  0.25957  Biso   1.000  O
  H38      1.0000 0.75350  0.65811  0.37228  Biso   1.000  H
  O21      1.0000 0.85133  0.68378  0.36756  Biso   1.000  O
  C27      1.0000 0.81400  0.61217  0.41097  Biso   1.000  C
  H39      1.0000 0.19670  0.73151  0.32621  Biso   1.000  H
  H40      1.0000 0.32611  0.78102  0.33799  Biso   1.000  H
  O22      1.0000 0.29505  0.84922  0.30872  Biso   1.000  O
  C28      1.0000 0.32830  0.84544  0.37931  Biso   1.000  C
  H41      1.0000 0.36020  0.77948  0.41499  Biso   1.000  H
  C29      1.0000 0.34752  0.84224  0.45665  Biso   1.000  C
  C30      1.0000 0.84574  0.71572  0.33157  Biso   1.000  C
  H42      1.0000 0.89559  0.66239  0.29341  Biso   1.000  H
  O23      1.0000 0.84464  0.71406  0.25785  Biso   1.000  O
  H43      1.0000 0.76791  0.60370  0.24469  Biso   1.000  H
  H44      1.0000 0.81781  0.63992  0.43251  Biso   1.000  H
  H45      1.0000 0.77511  0.58800  0.41760  Biso   1.000  H
  O24      1.0000 0.87424  0.58143  0.40971  Biso   1.000  O
  H46      1.0000 0.30199  0.83090  0.28789  Biso   1.000  H
  H47      1.0000 0.30158  0.87958  0.38379  Biso   1.000  H
  O25      1.0000 0.39862  0.85907  0.36937  Biso   1.000  O
  H48      1.0000 0.34490  0.81782  0.48021  Biso   1.000  H
  H49      1.0000 0.39528  0.85520  0.45420  Biso   1.000  H
  O26      1.0000 0.30252  0.88839  0.46273  Biso   1.000  O
  O27      1.0000 0.77955  0.74430  0.33114  Biso   1.000  O
  H50      1.0000 0.88348  0.74322  0.33111  Biso   1.000  H
  H51      1.0000 0.85211  0.69491  0.23751  Biso   1.000  H
  H52      1.0000 0.89768  0.59090  0.38989  Biso   1.000  H
  C31      1.0000 0.42091  0.91460  0.37535  Biso   1.000  C
  H53      1.0000 0.30659  0.91011  0.44349  Biso   1.000  H
  C32      1.0000 0.77882  0.80324  0.33486  Biso   1.000  C
  C33      1.0000 0.44915  0.93583  0.33452  Biso   1.000  C
  O28      1.0000 0.47280  0.91780  0.40569  Biso   1.000  O
  H54      1.0000 0.38093  0.93740  0.38361  Biso   1.000  H
  C34      1.0000 0.73601  0.82575  0.29890  Biso   1.000  C
  H55      1.0000 0.82669  0.81728  0.33280  Biso   1.000  H
  C35      1.0000 0.74859  0.81977  0.37581  Biso   1.000  C
  C36      1.0000 0.51284  0.90368  0.32197  Biso   1.000  C
  H56      1.0000 0.46320  0.97458  0.33839  Biso   1.000  H
  O29      1.0000 0.39711  0.93475  0.30387  Biso   1.000  O
  C37      1.0000 0.53592  0.88694  0.39689  Biso   1.000  C
  C38      1.0000 0.72510  0.88644  0.30433  Biso   1.000  C
  H57      1.0000 0.69049  0.80719  0.29850  Biso   1.000  H
  O30      1.0000 0.77276  0.81317  0.26138  Biso   1.000  O
  H58      1.0000 0.70437  0.79992  0.37949  Biso   1.000  H
  O31      1.0000 0.73450  0.87855  0.37762  Biso   1.000  O
  C39      1.0000 0.79500  0.80623  0.41158  Biso   1.000  C
  C40      1.0000 0.56598  0.90692  0.35630  Biso   1.000  C
  H59      1.0000 0.49990  0.86480  0.31749  Biso   1.000  H
  O32      1.0000 0.54213  0.92565  0.28522  Biso   1.000  O
  H60      1.0000 0.38108  0.90322  0.30200  Biso   1.000  H
  H61      1.0000 0.52448  0.84739  0.39459  Biso   1.000  H
  C41      1.0000 0.58441  0.89524  0.43238  Biso   1.000  C
  C42      1.0000 0.69153  0.89915  0.34553  Biso   1.000  C
  H62      1.0000 0.77109  0.90430  0.30390  Biso   1.000  H
  O33      1.0000 0.68449  0.90987  0.27151  Biso   1.000  O
  H63      1.0000 0.74770  0.82031  0.24169  Biso   1.000  H
  H64      1.0000 0.77328  0.81931  0.43671  Biso   1.000  H
  H65      1.0000 0.80038  0.76631  0.41361  Biso   1.000  H
  O34      1.0000 0.86250  0.83157  0.40714  Biso   1.000  O
  O35      1.0000 0.62565  0.87269  0.34572  Biso   1.000  O
  H66      1.0000 0.58138  0.94550  0.35931  Biso   1.000  H
  H67      1.0000 0.52062  0.91360  0.26540  Biso   1.000  H
  H68      1.0000 0.55982  0.88702  0.45769  Biso   1.000  H
  H69      1.0000 0.62320  0.86962  0.43011  Biso   1.000  H
  O36      1.0000 0.61030  0.95078  0.43380  Biso   1.000  O
  H70      1.0000 0.68548  0.93940  0.34860  Biso   1.000  H
  H71      1.0000 0.64382  0.89969  0.27371  Biso   1.000  H
  H72      1.0000 0.85931  0.86509  0.41119  Biso   1.000  H
  H73      1.0000 0.58629  0.96918  0.44960  Biso   1.000  H
  C43      1.0000 0.40155  0.52241  0.54958  Biso   1.000  C
  C44      1.0000 0.43229  0.51817  0.59197  Biso   1.000  C
  H74      1.0000 0.43892  0.52312  0.52951  Biso   1.000  H
  H75      1.0000 0.37289  0.49001  0.54421  Biso   1.000  H
  O37      1.0000 0.36030  0.57113  0.54537  Biso   1.000  O
  O38      1.0000 0.47515  0.56665  0.59670  Biso   1.000  O
  C45      1.0000 0.37696  0.51572  0.62544  Biso   1.000  C
  H76      1.0000 0.46168  0.48490  0.59360  Biso   1.000  H
  H77      1.0000 0.31948  0.56241  0.54129  Biso   1.000  H
  C46      1.0000 0.50600  0.57242  0.63551  Biso   1.000  C
  C47      1.0000 0.40823  0.52008  0.66757  Biso   1.000  C
  H78      1.0000 0.34282  0.54550  0.62140  Biso   1.000  H
  O39      1.0000 0.34224  0.46193  0.62354  Biso   1.000  O
  O40      1.0000 0.55168  0.52777  0.64431  Biso   1.000  O
  H79      1.0000 0.53242  0.60731  0.63631  Biso   1.000  H
  C48      1.0000 0.45056  0.57358  0.66855  Biso   1.000  C
  H80      1.0000 0.43897  0.48831  0.67260  Biso   1.000  H
  O41      1.0000 0.35388  0.52100  0.69732  Biso   1.000  O
  C49      1.0000 0.27146  0.46002  0.60863  Biso   1.000  C
  C50      1.0000 0.62550  0.53927  0.64916  Biso   1.000  C
  H81      1.0000 0.41898  0.60469  0.66290  Biso   1.000  H
  O42      1.0000 0.48063  0.58193  0.70809  Biso   1.000  O
  H82      1.0000 0.36772  0.50642  0.71859  Biso   1.000  H
  H83      1.0000 0.25548  0.49790  0.60271  Biso   1.000  H
  C51      1.0000 0.22620  0.43535  0.64109  Biso   1.000  C
  O43      1.0000 0.26879  0.42787  0.57200  Biso   1.000  O
  C52      1.0000 0.66538  0.51028  0.61511  Biso   1.000  C
  C53      1.0000 0.64706  0.51780  0.69094  Biso   1.000  C
  H84      1.0000 0.63359  0.57940  0.64769  Biso   1.000  H
  H85      1.0000 0.46988  0.61279  0.71659  Biso   1.000  H
  H86      1.0000 0.17791  0.43568  0.63109  Biso   1.000  H
  O44      1.0000 0.22912  0.46771  0.67766  Biso   1.000  O
  C54      1.0000 0.24671  0.37483  0.64977  Biso   1.000  C
  C55      1.0000 0.28962  0.37109  0.57719  Biso   1.000  C
  C56      1.0000 0.65160  0.53595  0.57289  Biso   1.000  C
  H87      1.0000 0.65139  0.47111  0.61449  Biso   1.000  H
  O45      1.0000 0.73883  0.51327  0.62140  Biso   1.000  O
  C57      1.0000 0.72541  0.52361  0.69478  Biso   1.000  C
  H88      1.0000 0.63411  0.47859  0.69340  Biso   1.000  H
  O46      1.0000 0.61438  0.54874  0.72254  Biso   1.000  O
  H89      1.0000 0.19607  0.45961  0.69251  Biso   1.000  H
  H90      1.0000 0.29458  0.37379  0.66030  Biso   1.000  H
  O47      1.0000 0.20119  0.34995  0.67876  Biso   1.000  O
  C58      1.0000 0.24358  0.34388  0.60977  Biso   1.000  C
  H91      1.0000 0.33859  0.36951  0.58569  Biso   1.000  H
  C59      1.0000 0.28137  0.34467  0.53470  Biso   1.000  C
  H92      1.0000 0.67932  0.51701  0.55231  Biso   1.000  H
  H93      1.0000 0.60268  0.53171  0.56581  Biso   1.000  H
  O48      1.0000 0.67013  0.59564  0.57378  Biso   1.000  O
  H94      1.0000 0.60180  0.54139  0.56909  Biso   1.000  H
  H95      1.0000 0.67431  0.57188  0.57111  Biso   1.000  H
  O49      1.0000 0.67880  0.49882  0.54040  Biso   1.000  O
  C60      1.0000 0.76044  0.49259  0.65984  Biso   1.000  C
  H96      1.0000 0.73731  0.56312  0.69229  Biso   1.000  H
  O50      1.0000 0.74953  0.50451  0.73319  Biso   1.000  O
  H97      1.0000 0.57230  0.54231  0.72251  Biso   1.000  H
  H98      1.0000 0.20500  0.36590  0.70091  Biso   1.000  H
  H99      1.0000 0.19519  0.34168  0.60010  Biso   1.000  H
  O51      1.0000 0.27088  0.28876  0.61701  Biso   1.000  O
  H100     1.0000 0.31458  0.36141  0.51589  Biso   1.000  H
  H101     1.0000 0.29192  0.30530  0.53651  Biso   1.000  H
  O52      1.0000 0.21325  0.35169  0.51914  Biso   1.000  O
  H102     1.0000 0.70119  0.60079  0.59069  Biso   1.000  H
  H103     1.0000 0.68391  0.46750  0.54970  Biso   1.000  H
  O53      1.0000 0.74452  0.43543  0.66404  Biso   1.000  O
  H104     1.0000 0.81108  0.49740  0.66220  Biso   1.000  H
  H105     1.0000 0.77072  0.52951  0.74491  Biso   1.000  H
  C61      1.0000 0.22928  0.24137  0.60664  Biso   1.000  C
  H106     1.0000 0.19310  0.32162  0.51890  Biso   1.000  H
  C62      1.0000 0.80179  0.39585  0.66616  Biso   1.000  C
  H107     1.0000 0.18219  0.25371  0.59921  Biso   1.000  H
  C63      1.0000 0.22515  0.20528  0.64480  Biso   1.000  C
  O54      1.0000 0.25861  0.21217  0.57360  Biso   1.000  O
  C64      1.0000 0.79458  0.36407  0.70503  Biso   1.000  C
  H108     1.0000 0.84611  0.41620  0.66649  Biso   1.000  H
  C65      1.0000 0.79970  0.35929  0.62919  Biso   1.000  C
  H109     1.0000 0.19670  0.17250  0.63861  Biso   1.000  H
  O55      1.0000 0.19320  0.23497  0.67794  Biso   1.000  O
  C66      1.0000 0.29698  0.18654  0.65600  Biso   1.000  C
  C67      1.0000 0.32752  0.18953  0.58154  Biso   1.000  C
  C68      1.0000 0.84981  0.31938  0.70634  Biso   1.000  C
  H110     1.0000 0.74838  0.34658  0.70579  Biso   1.000  H
  O56      1.0000 0.80220  0.39958  0.74043  Biso   1.000  O
  H111     1.0000 0.75350  0.34189  0.62772  Biso   1.000  H
  O57      1.0000 0.85133  0.31622  0.63244  Biso   1.000  O
  C69      1.0000 0.81400  0.38783  0.58903  Biso   1.000  C
  H112     1.0000 0.19670  0.26849  0.67379  Biso   1.000  H
  H113     1.0000 0.32611  0.21898  0.66201  Biso   1.000  H
  O58      1.0000 0.29505  0.15078  0.69128  Biso   1.000  O
  C70      1.0000 0.32830  0.15456  0.62069  Biso   1.000  C
  H114     1.0000 0.36020  0.22052  0.58501  Biso   1.000  H
  C71      1.0000 0.34752  0.15776  0.54335  Biso   1.000  C
  C72      1.0000 0.84574  0.28428  0.66843  Biso   1.000  C
  H115     1.0000 0.89559  0.33761  0.70659  Biso   1.000  H
  O59      1.0000 0.84464  0.28594  0.74215  Biso   1.000  O
  H116     1.0000 0.76791  0.39630  0.75531  Biso   1.000  H
  H117     1.0000 0.81781  0.36008  0.56749  Biso   1.000  H
  H118     1.0000 0.77511  0.41200  0.58240  Biso   1.000  H
  O60      1.0000 0.87424  0.41857  0.59029  Biso   1.000  O
  H119     1.0000 0.30199  0.16910  0.71211  Biso   1.000  H
  H120     1.0000 0.30158  0.12042  0.61621  Biso   1.000  H
  O61      1.0000 0.39862  0.14093  0.63063  Biso   1.000  O
  H121     1.0000 0.34490  0.18218  0.51979  Biso   1.000  H
  H122     1.0000 0.39528  0.14480  0.54580  Biso   1.000  H
  O62      1.0000 0.30252  0.11161  0.53727  Biso   1.000  O
  O63      1.0000 0.77955  0.25570  0.66886  Biso   1.000  O
  H123     1.0000 0.88348  0.25678  0.66889  Biso   1.000  H
  H124     1.0000 0.85211  0.30509  0.76249  Biso   1.000  H
  H125     1.0000 0.89768  0.40910  0.61011  Biso   1.000  H
  C73      1.0000 0.42091  0.08540  0.62465  Biso   1.000  C
  H126     1.0000 0.30659  0.08989  0.55651  Biso   1.000  H
  C74      1.0000 0.77882  0.19676  0.66514  Biso   1.000  C
  C75      1.0000 0.44915  0.06417  0.66548  Biso   1.000  C
  O64      1.0000 0.47280  0.08220  0.59431  Biso   1.000  O
  H127     1.0000 0.38093  0.06260  0.61639  Biso   1.000  H
  C76      1.0000 0.73601  0.17425  0.70110  Biso   1.000  C
  H128     1.0000 0.82669  0.18272  0.66720  Biso   1.000  H
  C77      1.0000 0.74859  0.18023  0.62419  Biso   1.000  C
  C78      1.0000 0.51284  0.09632  0.67803  Biso   1.000  C
  H129     1.0000 0.46320  0.02542  0.66161  Biso   1.000  H
  O65      1.0000 0.39711  0.06525  0.69613  Biso   1.000  O
  C79      1.0000 0.53592  0.11306  0.60311  Biso   1.000  C
  C80      1.0000 0.72510  0.11356  0.69567  Biso   1.000  C
  H130     1.0000 0.69049  0.19281  0.70150  Biso   1.000  H
  O66      1.0000 0.77276  0.18683  0.73862  Biso   1.000  O
  H131     1.0000 0.70437  0.20008  0.62051  Biso   1.000  H
  O67      1.0000 0.73450  0.12145  0.62238  Biso   1.000  O
  C81      1.0000 0.79500  0.19377  0.58842  Biso   1.000  C
  C82      1.0000 0.56598  0.09308  0.64370  Biso   1.000  C
  H132     1.0000 0.49990  0.13520  0.68251  Biso   1.000  H
  O68      1.0000 0.54213  0.07435  0.71478  Biso   1.000  O
  H133     1.0000 0.38108  0.09678  0.69800  Biso   1.000  H
  H134     1.0000 0.52448  0.15261  0.60541  Biso   1.000  H
  C83      1.0000 0.58441  0.10476  0.56762  Biso   1.000  C
  C84      1.0000 0.69153  0.10085  0.65447  Biso   1.000  C
  H135     1.0000 0.77109  0.09570  0.69610  Biso   1.000  H
  O69      1.0000 0.68449  0.09013  0.72849  Biso   1.000  O
  H136     1.0000 0.74770  0.17969  0.75831  Biso   1.000  H
  H137     1.0000 0.77328  0.18069  0.56329  Biso   1.000  H
  H138     1.0000 0.80038  0.23369  0.58639  Biso   1.000  H
  O70      1.0000 0.86250  0.16843  0.59286  Biso   1.000  O
  O71      1.0000 0.62565  0.12731  0.65428  Biso   1.000  O
  H139     1.0000 0.58138  0.05450  0.64069  Biso   1.000  H
  H140     1.0000 0.52062  0.08640  0.73460  Biso   1.000  H
  H141     1.0000 0.55982  0.11298  0.54231  Biso   1.000  H
  H142     1.0000 0.62320  0.13038  0.56989  Biso   1.000  H
  O72      1.0000 0.61030  0.04922  0.56620  Biso   1.000  O
  H143     1.0000 0.68548  0.06060  0.65140  Biso   1.000  H
  H144     1.0000 0.64382  0.10031  0.72629  Biso   1.000  H
  H145     1.0000 0.85931  0.13491  0.58881  Biso   1.000  H
  H146     1.0000 0.58629  0.03082  0.55040  Biso   1.000  H
  O73      1.0000 0.36250  0.33159  0.40714  Biso   1.000  O
  C85      1.0000 0.29500  0.30625  0.41158  Biso   1.000  C
  H147     1.0000 0.35931  0.36511  0.41119  Biso   1.000  H
  C86      1.0000 0.24859  0.31975  0.37581  Biso   1.000  C
  H148     1.0000 0.27328  0.31929  0.43671  Biso   1.000  H
  H149     1.0000 0.30038  0.26629  0.41361  Biso   1.000  H
  C87      1.0000 0.27882  0.30326  0.33486  Biso   1.000  C
  O74      1.0000 0.23450  0.37857  0.37762  Biso   1.000  O
  H150     1.0000 0.20437  0.29990  0.37949  Biso   1.000  H
  C88      1.0000 0.23601  0.32573  0.29890  Biso   1.000  C
  H151     1.0000 0.32669  0.31730  0.33280  Biso   1.000  H
  O75      1.0000 0.27955  0.24432  0.33114  Biso   1.000  O
  C89      1.0000 0.19153  0.39917  0.34553  Biso   1.000  C
  O76      1.0000 0.27276  0.31319  0.26138  Biso   1.000  O
  C90      1.0000 0.22510  0.38646  0.30433  Biso   1.000  C
  H152     1.0000 0.19049  0.30721  0.29850  Biso   1.000  H
  C91      1.0000 0.34574  0.21570  0.33157  Biso   1.000  C
  O77      1.0000 0.12565  0.37267  0.34572  Biso   1.000  O
  H153     1.0000 0.18548  0.43942  0.34860  Biso   1.000  H
  H154     1.0000 0.24770  0.32029  0.24169  Biso   1.000  H
  H155     1.0000 0.27109  0.40432  0.30390  Biso   1.000  H
  O78      1.0000 0.18449  0.40984  0.27151  Biso   1.000  O
  H156     1.0000 0.38348  0.24320  0.33111  Biso   1.000  H
  C92      1.0000 0.34981  0.18064  0.29366  Biso   1.000  C
  O79      1.0000 0.35133  0.18380  0.36756  Biso   1.000  O
  C93      1.0000 0.06598  0.40690  0.35630  Biso   1.000  C
  H157     1.0000 0.14382  0.39971  0.27371  Biso   1.000  H
  H158     1.0000 0.39559  0.16241  0.29341  Biso   1.000  H
  O80      1.0000 0.34464  0.21404  0.25785  Biso   1.000  O
  C94      1.0000 0.29458  0.13591  0.29497  Biso   1.000  C
  C95      1.0000 0.29970  0.14069  0.37081  Biso   1.000  C
  C96      1.0000 0.01284  0.40370  0.32197  Biso   1.000  C
  H159     1.0000 0.08138  0.44548  0.35931  Biso   1.000  H
  C97      1.0000 0.03592  0.38696  0.39689  Biso   1.000  C
  H160     1.0000 0.35211  0.19489  0.23751  Biso   1.000  H
  H161     1.0000 0.24838  0.15340  0.29421  Biso   1.000  H
  O81      1.0000 0.30220  0.10039  0.25957  Biso   1.000  O
  C98      1.0000 0.30179  0.10413  0.33384  Biso   1.000  C
  H162     1.0000 0.25350  0.15809  0.37228  Biso   1.000  H
  C99      1.0000 0.31400  0.11219  0.41097  Biso   1.000  C
  O82      1.0000 0.04213  0.42563  0.28522  Biso   1.000  O
  C100     1.0000 0.94915  0.43585  0.33452  Biso   1.000  C
  H163     1.0000 0.99990  0.36482  0.31749  Biso   1.000  H
  H164     1.0000 0.02448  0.34741  0.39459  Biso   1.000  H
  C101     1.0000 0.08441  0.39522  0.43238  Biso   1.000  C
  O83      1.0000 0.97280  0.41782  0.40569  Biso   1.000  O
  H165     1.0000 0.26791  0.10372  0.24469  Biso   1.000  H
  H166     1.0000 0.34611  0.08378  0.33351  Biso   1.000  H
  O84      1.0000 0.24452  0.06455  0.33596  Biso   1.000  O
  H167     1.0000 0.31781  0.13990  0.43251  Biso   1.000  H
  H168     1.0000 0.27511  0.08802  0.41760  Biso   1.000  H
  O85      1.0000 0.37424  0.08141  0.40971  Biso   1.000  O
  H169     1.0000 0.02062  0.41358  0.26540  Biso   1.000  H
  C102     1.0000 0.92091  0.41462  0.37535  Biso   1.000  C
  H170     1.0000 0.96320  0.47460  0.33839  Biso   1.000  H
  O86      1.0000 0.89711  0.43472  0.30387  Biso   1.000  O
  H171     1.0000 0.05982  0.38700  0.45769  Biso   1.000  H
  H172     1.0000 0.12320  0.36960  0.43011  Biso   1.000  H
  O87      1.0000 0.11030  0.45076  0.43380  Biso   1.000  O
  C103     1.0000 0.26044  0.00739  0.34016  Biso   1.000  C
  H173     1.0000 0.39768  0.09088  0.38989  Biso   1.000  H
  O88      1.0000 0.89862  0.35909  0.36937  Biso   1.000  O
  H174     1.0000 0.88093  0.43738  0.38361  Biso   1.000  H
  H175     1.0000 0.88108  0.40320  0.30200  Biso   1.000  H
  H176     1.0000 0.08629  0.46920  0.44960  Biso   1.000  H
  H177     1.0000 0.31108  0.00262  0.33780  Biso   1.000  H
  C104     1.0000 0.22541  0.97641  0.30522  Biso   1.000  C
  O89      1.0000 0.23883  0.98671  0.37860  Biso   1.000  O
  C105     1.0000 0.82830  0.34546  0.37931  Biso   1.000  C
  H178     1.0000 0.23731  0.93691  0.30771  Biso   1.000  H
  O90      1.0000 0.24953  0.99551  0.26681  Biso   1.000  O
  C106     1.0000 0.14706  0.98218  0.30906  Biso   1.000  C
  C107     1.0000 0.16538  0.98970  0.38489  Biso   1.000  C
  C108     1.0000 0.79698  0.31344  0.34400  Biso   1.000  C
  H179     1.0000 0.80158  0.37961  0.38379  Biso   1.000  H
  C109     1.0000 0.82752  0.31045  0.41846  Biso   1.000  C
  H180     1.0000 0.27072  0.97051  0.25509  Biso   1.000  H
  H181     1.0000 0.13411  0.02139  0.30660  Biso   1.000  H
  O91      1.0000 0.11438  0.95128  0.27746  Biso   1.000  O
  C110     1.0000 0.12550  0.96071  0.35084  Biso   1.000  C
  H182     1.0000 0.15139  0.02891  0.38551  Biso   1.000  H
  C111     1.0000 0.15160  0.96403  0.42711  Biso   1.000  C
  C112     1.0000 0.72515  0.29475  0.35520  Biso   1.000  C
  H183     1.0000 0.82611  0.28100  0.33799  Biso   1.000  H
  O92      1.0000 0.79505  0.34924  0.30872  Biso   1.000  O
  H184     1.0000 0.86020  0.27950  0.41499  Biso   1.000  H
  O93      1.0000 0.75861  0.28785  0.42640  Biso   1.000  O
  C113     1.0000 0.84752  0.34222  0.45665  Biso   1.000  C
  H185     1.0000 0.07230  0.95772  0.27749  Biso   1.000  H
  H186     1.0000 0.13359  0.92058  0.35231  Biso   1.000  H
  O94      1.0000 0.05168  0.97225  0.35569  Biso   1.000  O
  O95      1.0000 0.17880  0.00120  0.45960  Biso   1.000  O
  H187     1.0000 0.17932  0.98301  0.44769  Biso   1.000  H
  H188     1.0000 0.10268  0.96831  0.43419  Biso   1.000  H
  O96      1.0000 0.17013  0.90434  0.42622  Biso   1.000  O
  H189     1.0000 0.10180  0.95859  0.43091  Biso   1.000  H
  H190     1.0000 0.17431  0.92810  0.42889  Biso   1.000  H
  C114     1.0000 0.72928  0.25865  0.39336  Biso   1.000  C
  H191     1.0000 0.69670  0.32752  0.36139  Biso   1.000  H
  O97      1.0000 0.69320  0.26501  0.32206  Biso   1.000  O
  H192     1.0000 0.80199  0.33088  0.28789  Biso   1.000  H
  H193     1.0000 0.84490  0.31780  0.48021  Biso   1.000  H
  H194     1.0000 0.89528  0.35518  0.45420  Biso   1.000  H
  O98      1.0000 0.80252  0.38841  0.46273  Biso   1.000  O
  C115     1.0000 0.00600  0.92760  0.36449  Biso   1.000  C
  H195     1.0000 0.18391  0.03248  0.45030  Biso   1.000  H
  H196     1.0000 0.20119  0.89919  0.40931  Biso   1.000  H
  H197     1.0000 0.68219  0.24631  0.40079  Biso   1.000  H
  O99      1.0000 0.77088  0.21121  0.38299  Biso   1.000  O
  H198     1.0000 0.69670  0.23148  0.32621  Biso   1.000  H
  H199     1.0000 0.80659  0.41009  0.44349  Biso   1.000  H
  C116     1.0000 0.95056  0.92640  0.33145  Biso   1.000  C
  O100     1.0000 0.97515  0.93333  0.40330  Biso   1.000  O
  H200     1.0000 0.03242  0.89271  0.36369  Biso   1.000  H
  C117     1.0000 0.74358  0.15610  0.39023  Biso   1.000  C
  H201     1.0000 0.91898  0.89529  0.33710  Biso   1.000  H
  O101     1.0000 0.98063  0.91809  0.29191  Biso   1.000  O
  C118     1.0000 0.90823  0.97990  0.33243  Biso   1.000  C
  C119     1.0000 0.93229  0.98181  0.40803  Biso   1.000  C
  C120     1.0000 0.74671  0.12515  0.35023  Biso   1.000  C
  H202     1.0000 0.69519  0.15830  0.39990  Biso   1.000  H
  C121     1.0000 0.78962  0.12889  0.42281  Biso   1.000  C
  H203     1.0000 0.96988  0.88719  0.28341  Biso   1.000  H
  O102     1.0000 0.85388  0.97902  0.30268  Biso   1.000  O
  C122     1.0000 0.87696  0.98426  0.37456  Biso   1.000  C
  H204     1.0000 0.93897  0.01171  0.32740  Biso   1.000  H
  C123     1.0000 0.90155  0.97757  0.45042  Biso   1.000  C
  H205     1.0000 0.96168  0.01512  0.40640  Biso   1.000  H
  C124     1.0000 0.72620  0.06463  0.35891  Biso   1.000  C
  H206     1.0000 0.79458  0.12619  0.33970  Biso   1.000  H
  O103     1.0000 0.70119  0.15003  0.32124  Biso   1.000  O
  H207     1.0000 0.83859  0.13051  0.41431  Biso   1.000  H
  O104     1.0000 0.76879  0.07211  0.42800  Biso   1.000  O
  C125     1.0000 0.78137  0.15535  0.46530  Biso   1.000  C
  H208     1.0000 0.86772  0.99360  0.28141  Biso   1.000  H
  H209     1.0000 0.84282  0.95452  0.37860  Biso   1.000  H
  O105     1.0000 0.84224  0.03805  0.37646  Biso   1.000  O
  H210     1.0000 0.93892  0.97691  0.47049  Biso   1.000  H
  O106     1.0000 0.86030  0.92889  0.45463  Biso   1.000  O
  H211     1.0000 0.87289  0.01001  0.45579  Biso   1.000  H
  C126     1.0000 0.77146  0.03996  0.39137  Biso   1.000  C
  H212     1.0000 0.67791  0.06430  0.36891  Biso   1.000  H
  O107     1.0000 0.72912  0.03232  0.32234  Biso   1.000  O
  H213     1.0000 0.70500  0.13408  0.29909  Biso   1.000  H
  H214     1.0000 0.81458  0.13861  0.48411  Biso   1.000  H
  H215     1.0000 0.79192  0.19468  0.46349  Biso   1.000  H
  O108     1.0000 0.71325  0.14833  0.48086  Biso   1.000  O
  H216     1.0000 0.81948  0.93761  0.45871  Biso   1.000  H
  H217     1.0000 0.75548  0.00212  0.39729  Biso   1.000  H
  H218     1.0000 0.69607  0.04042  0.30749  Biso   1.000  H
  H219     1.0000 0.69310  0.17840  0.48110  Biso   1.000  H
  O109     1.0000 0.36250  0.66841  0.59286  Biso   1.000  O
  C127     1.0000 0.29500  0.69375  0.58842  Biso   1.000  C
  H220     1.0000 0.35931  0.63489  0.58881  Biso   1.000  H
  C128     1.0000 0.24859  0.68025  0.62419  Biso   1.000  C
  H221     1.0000 0.27328  0.68071  0.56329  Biso   1.000  H
  H222     1.0000 0.30038  0.73371  0.58639  Biso   1.000  H
  O110     1.0000 0.23450  0.62143  0.62238  Biso   1.000  O
  C129     1.0000 0.27882  0.69674  0.66514  Biso   1.000  C
  H223     1.0000 0.20437  0.70010  0.62051  Biso   1.000  H
  C130     1.0000 0.19153  0.60083  0.65447  Biso   1.000  C
  C131     1.0000 0.23601  0.67427  0.70110  Biso   1.000  C
  H224     1.0000 0.32669  0.68270  0.66720  Biso   1.000  H
  O111     1.0000 0.27955  0.75568  0.66886  Biso   1.000  O
  O112     1.0000 0.12565  0.62733  0.65428  Biso   1.000  O
  H225     1.0000 0.18548  0.56058  0.65140  Biso   1.000  H
  C132     1.0000 0.22510  0.61354  0.69567  Biso   1.000  C
  H226     1.0000 0.19049  0.69279  0.70150  Biso   1.000  H
  O113     1.0000 0.27276  0.68681  0.73862  Biso   1.000  O
  C133     1.0000 0.34574  0.78430  0.66843  Biso   1.000  C
  C134     1.0000 0.06598  0.59310  0.64370  Biso   1.000  C
  H227     1.0000 0.27109  0.59568  0.69610  Biso   1.000  H
  O114     1.0000 0.18449  0.59016  0.72849  Biso   1.000  O
  H228     1.0000 0.24770  0.67971  0.75831  Biso   1.000  H
  H229     1.0000 0.38348  0.75680  0.66889  Biso   1.000  H
  C135     1.0000 0.34981  0.81936  0.70634  Biso   1.000  C
  O115     1.0000 0.35133  0.81620  0.63244  Biso   1.000  O
  C136     1.0000 0.03592  0.61304  0.60311  Biso   1.000  C
  C137     1.0000 0.01284  0.59630  0.67803  Biso   1.000  C
  H230     1.0000 0.08138  0.55452  0.64069  Biso   1.000  H
  H231     1.0000 0.14382  0.60029  0.72629  Biso   1.000  H
  H232     1.0000 0.39559  0.83759  0.70659  Biso   1.000  H
  O116     1.0000 0.34464  0.78596  0.74215  Biso   1.000  O
  C138     1.0000 0.29458  0.86409  0.70503  Biso   1.000  C
  C139     1.0000 0.29970  0.85931  0.62919  Biso   1.000  C
  C140     1.0000 0.08441  0.60478  0.56762  Biso   1.000  C
  H233     1.0000 0.02448  0.65259  0.60541  Biso   1.000  H
  O117     1.0000 0.97280  0.58218  0.59431  Biso   1.000  O
  O118     1.0000 0.04213  0.57437  0.71478  Biso   1.000  O
  C141     1.0000 0.94915  0.56415  0.66548  Biso   1.000  C
  H234     1.0000 0.99990  0.63518  0.68251  Biso   1.000  H
  H235     1.0000 0.35211  0.80511  0.76249  Biso   1.000  H
  H236     1.0000 0.24838  0.84660  0.70579  Biso   1.000  H
  O119     1.0000 0.30220  0.89961  0.74043  Biso   1.000  O
  C142     1.0000 0.30179  0.89587  0.66616  Biso   1.000  C
  H237     1.0000 0.25350  0.84191  0.62772  Biso   1.000  H
  C143     1.0000 0.31400  0.88781  0.58903  Biso   1.000  C
  O120     1.0000 0.11030  0.54924  0.56620  Biso   1.000  O
  H238     1.0000 0.05982  0.61300  0.54231  Biso   1.000  H
  H239     1.0000 0.12320  0.63040  0.56989  Biso   1.000  H
  C144     1.0000 0.92091  0.58538  0.62465  Biso   1.000  C
  H240     1.0000 0.02062  0.58642  0.73460  Biso   1.000  H
  H241     1.0000 0.96320  0.52540  0.66161  Biso   1.000  H
  O121     1.0000 0.89711  0.56528  0.69613  Biso   1.000  O
  H242     1.0000 0.26791  0.89628  0.75531  Biso   1.000  H
  H243     1.0000 0.34611  0.91622  0.66649  Biso   1.000  H
  O122     1.0000 0.24452  0.93545  0.66404  Biso   1.000  O
  H244     1.0000 0.31781  0.86010  0.56749  Biso   1.000  H
  H245     1.0000 0.27511  0.91198  0.58240  Biso   1.000  H
  O123     1.0000 0.37424  0.91859  0.59029  Biso   1.000  O
  H246     1.0000 0.08629  0.53080  0.55040  Biso   1.000  H
  O124     1.0000 0.89862  0.64091  0.63063  Biso   1.000  O
  H247     1.0000 0.88093  0.56262  0.61639  Biso   1.000  H
  H248     1.0000 0.88108  0.59680  0.69800  Biso   1.000  H
  C145     1.0000 0.26044  0.99261  0.65984  Biso   1.000  C
  H249     1.0000 0.39768  0.90912  0.61011  Biso   1.000  H
  C146     1.0000 0.82830  0.65454  0.62069  Biso   1.000  C
  H250     1.0000 0.31108  0.99738  0.66220  Biso   1.000  H
  C147     1.0000 0.22541  0.02359  0.69478  Biso   1.000  C
  O125     1.0000 0.23883  0.01329  0.62140  Biso   1.000  O
  C148     1.0000 0.79698  0.68656  0.65600  Biso   1.000  C
  H251     1.0000 0.80158  0.62039  0.61621  Biso   1.000  H
  C149     1.0000 0.82752  0.68955  0.58154  Biso   1.000  C
  H252     1.0000 0.23731  0.06309  0.69229  Biso   1.000  H
  O126     1.0000 0.24953  0.00449  0.73319  Biso   1.000  O
  C150     1.0000 0.14706  0.01782  0.69094  Biso   1.000  C
  C151     1.0000 0.16538  0.01030  0.61511  Biso   1.000  C
  C152     1.0000 0.72515  0.70525  0.64480  Biso   1.000  C
  H253     1.0000 0.82611  0.71900  0.66201  Biso   1.000  H
  O127     1.0000 0.79505  0.65076  0.69128  Biso   1.000  O
  H254     1.0000 0.86020  0.72050  0.58501  Biso   1.000  H
  O128     1.0000 0.75861  0.71215  0.57360  Biso   1.000  O
  C153     1.0000 0.84752  0.65778  0.54335  Biso   1.000  C
  H255     1.0000 0.27072  0.02949  0.74491  Biso   1.000  H
  H256     1.0000 0.13411  0.97861  0.69340  Biso   1.000  H
  O129     1.0000 0.11438  0.04872  0.72254  Biso   1.000  O
  C154     1.0000 0.12550  0.03929  0.64916  Biso   1.000  C
  H257     1.0000 0.15139  0.97109  0.61449  Biso   1.000  H
  C155     1.0000 0.15160  0.03597  0.57289  Biso   1.000  C
  C156     1.0000 0.72928  0.74135  0.60664  Biso   1.000  C
  H258     1.0000 0.69670  0.67248  0.63861  Biso   1.000  H
  O130     1.0000 0.69320  0.73499  0.67794  Biso   1.000  O
  H259     1.0000 0.80199  0.66912  0.71211  Biso   1.000  H
  H260     1.0000 0.84490  0.68220  0.51979  Biso   1.000  H
  H261     1.0000 0.89528  0.64482  0.54580  Biso   1.000  H
  O131     1.0000 0.80252  0.61159  0.53727  Biso   1.000  O
  H262     1.0000 0.07230  0.04228  0.72251  Biso   1.000  H
  H263     1.0000 0.13359  0.07942  0.64769  Biso   1.000  H
  O132     1.0000 0.05168  0.02775  0.64431  Biso   1.000  O
  O133     1.0000 0.17880  0.99880  0.54040  Biso   1.000  O
  H264     1.0000 0.17932  0.01699  0.55231  Biso   1.000  H
  H265     1.0000 0.10268  0.03169  0.56581  Biso   1.000  H
  O134     1.0000 0.17013  0.09566  0.57378  Biso   1.000  O
  H266     1.0000 0.10180  0.04141  0.56909  Biso   1.000  H
  H267     1.0000 0.17431  0.07190  0.57111  Biso   1.000  H
  H268     1.0000 0.68219  0.75369  0.59921  Biso   1.000  H
  O135     1.0000 0.77088  0.78879  0.61701  Biso   1.000  O
  H269     1.0000 0.69670  0.76852  0.67379  Biso   1.000  H
  H270     1.0000 0.80659  0.58991  0.55651  Biso   1.000  H
  C157     1.0000 0.00600  0.07240  0.63551  Biso   1.000  C
  H271     1.0000 0.18391  0.96752  0.54970  Biso   1.000  H
  H272     1.0000 0.20119  0.10081  0.59069  Biso   1.000  H
  C158     1.0000 0.74358  0.84390  0.60977  Biso   1.000  C
  C159     1.0000 0.95056  0.07360  0.66855  Biso   1.000  C
  O136     1.0000 0.97515  0.06667  0.59670  Biso   1.000  O
  H273     1.0000 0.03242  0.10729  0.63631  Biso   1.000  H
  C160     1.0000 0.74671  0.87485  0.64977  Biso   1.000  C
  H274     1.0000 0.69519  0.84170  0.60010  Biso   1.000  H
  C161     1.0000 0.78962  0.87111  0.57719  Biso   1.000  C
  C162     1.0000 0.90823  0.02010  0.66757  Biso   1.000  C
  H275     1.0000 0.91898  0.10471  0.66290  Biso   1.000  H
  O137     1.0000 0.98063  0.08191  0.70809  Biso   1.000  O
  C163     1.0000 0.93229  0.01819  0.59197  Biso   1.000  C
  C164     1.0000 0.72620  0.93537  0.64109  Biso   1.000  C
  H276     1.0000 0.79458  0.87381  0.66030  Biso   1.000  H
  O138     1.0000 0.70119  0.84997  0.67876  Biso   1.000  O
  H277     1.0000 0.83859  0.86949  0.58569  Biso   1.000  H
  O139     1.0000 0.76879  0.92789  0.57200  Biso   1.000  O
  C165     1.0000 0.78137  0.84465  0.53470  Biso   1.000  C
  C166     1.0000 0.87696  0.01574  0.62544  Biso   1.000  C
  H278     1.0000 0.93897  0.98829  0.67260  Biso   1.000  H
  O140     1.0000 0.85388  0.02098  0.69732  Biso   1.000  O
  H279     1.0000 0.96988  0.11281  0.71659  Biso   1.000  H
  H280     1.0000 0.96168  0.98488  0.59360  Biso   1.000  H
  C167     1.0000 0.90155  0.02243  0.54958  Biso   1.000  C
  C168     1.0000 0.77146  0.96004  0.60863  Biso   1.000  C
  H281     1.0000 0.67791  0.93570  0.63109  Biso   1.000  H
  O141     1.0000 0.72912  0.96768  0.67766  Biso   1.000  O
  H282     1.0000 0.70500  0.86592  0.70091  Biso   1.000  H
  H283     1.0000 0.81458  0.86139  0.51589  Biso   1.000  H
  H284     1.0000 0.79192  0.80532  0.53651  Biso   1.000  H
  O142     1.0000 0.71325  0.85167  0.51914  Biso   1.000  O
  O143     1.0000 0.84224  0.96195  0.62354  Biso   1.000  O
  H285     1.0000 0.84282  0.04548  0.62140  Biso   1.000  H
  H286     1.0000 0.86772  0.00640  0.71859  Biso   1.000  H
  H287     1.0000 0.87289  0.98999  0.54421  Biso   1.000  H
  H288     1.0000 0.93892  0.02309  0.52951  Biso   1.000  H
  O144     1.0000 0.86030  0.07111  0.54537  Biso   1.000  O
  H289     1.0000 0.75548  0.99788  0.60271  Biso   1.000  H
  H290     1.0000 0.69607  0.95958  0.69251  Biso   1.000  H
  H291     1.0000 0.69310  0.82160  0.51890  Biso   1.000  H
  H292     1.0000 0.81948  0.06239  0.54129  Biso   1.000  H
  O145     1.0000 0.38562  0.45126  0.22254  Biso   1.000  O
  C169     1.0000 0.35294  0.48220  0.19094  Biso   1.000  C
  H293     1.0000 0.42770  0.45769  0.22251  Biso   1.000  H
  C170     1.0000 0.37450  0.46073  0.14916  Biso   1.000  C
  C171     1.0000 0.27459  0.47639  0.19478  Biso   1.000  C
  H294     1.0000 0.36589  0.52141  0.19340  Biso   1.000  H
  C172     1.0000 0.33462  0.48972  0.11511  Biso   1.000  C
  H295     1.0000 0.36641  0.42060  0.14769  Biso   1.000  H
  O146     1.0000 0.44832  0.47223  0.14431  Biso   1.000  O
  C173     1.0000 0.23956  0.50741  0.15984  Biso   1.000  C
  H296     1.0000 0.26269  0.43688  0.19229  Biso   1.000  H
  O147     1.0000 0.25047  0.49549  0.23319  Biso   1.000  O
  C174     1.0000 0.34840  0.46405  0.07289  Biso   1.000  C
  H297     1.0000 0.34861  0.52889  0.11449  Biso   1.000  H
  O148     1.0000 0.26117  0.48673  0.12140  Biso   1.000  O
  C175     1.0000 0.49400  0.42758  0.13551  Biso   1.000  C
  O149     1.0000 0.25548  0.56457  0.16404  Biso   1.000  O
  H298     1.0000 0.18892  0.50260  0.16220  Biso   1.000  H
  H299     1.0000 0.22928  0.47049  0.24491  Biso   1.000  H
  H300     1.0000 0.32068  0.48299  0.05231  Biso   1.000  H
  H301     1.0000 0.39732  0.46829  0.06581  Biso   1.000  H
  O150     1.0000 0.32987  0.40436  0.07378  Biso   1.000  O
  H302     1.0000 0.39820  0.45861  0.06909  Biso   1.000  H
  H303     1.0000 0.32569  0.42812  0.07111  Biso   1.000  H
  O151     1.0000 0.32120  0.50118  0.04040  Biso   1.000  O
  H304     1.0000 0.46758  0.39269  0.13631  Biso   1.000  H
  C176     1.0000 0.54944  0.42642  0.16855  Biso   1.000  C
  O152     1.0000 0.52485  0.43335  0.09670  Biso   1.000  O
  C177     1.0000 0.19821  0.60415  0.16616  Biso   1.000  C
  H305     1.0000 0.29881  0.39921  0.09069  Biso   1.000  H
  H306     1.0000 0.31609  0.53250  0.04970  Biso   1.000  H
  H307     1.0000 0.58102  0.39531  0.16290  Biso   1.000  H
  O153     1.0000 0.51937  0.41807  0.20809  Biso   1.000  O
  C178     1.0000 0.59177  0.47992  0.16757  Biso   1.000  C
  C179     1.0000 0.56771  0.48183  0.09197  Biso   1.000  C
  C180     1.0000 0.20542  0.63593  0.20503  Biso   1.000  C
  H308     1.0000 0.15389  0.58380  0.16649  Biso   1.000  H
  C181     1.0000 0.20030  0.64071  0.12919  Biso   1.000  C
  H309     1.0000 0.53012  0.38721  0.21659  Biso   1.000  H
  H310     1.0000 0.56103  0.51169  0.17260  Biso   1.000  H
  O154     1.0000 0.64612  0.47900  0.19732  Biso   1.000  O
  C182     1.0000 0.62304  0.48428  0.12544  Biso   1.000  C
  H311     1.0000 0.53832  0.51510  0.09360  Biso   1.000  H
  C183     1.0000 0.59845  0.47759  0.04958  Biso   1.000  C
  C184     1.0000 0.15019  0.68062  0.20634  Biso   1.000  C
  H312     1.0000 0.25162  0.65342  0.20579  Biso   1.000  H
  O155     1.0000 0.19780  0.60042  0.24043  Biso   1.000  O
  H313     1.0000 0.24650  0.65811  0.12772  Biso   1.000  H
  O156     1.0000 0.14867  0.68378  0.13244  Biso   1.000  O
  C185     1.0000 0.18600  0.61217  0.08903  Biso   1.000  C
  H314     1.0000 0.63228  0.49358  0.21859  Biso   1.000  H
  H315     1.0000 0.65718  0.45450  0.12140  Biso   1.000  H
  O157     1.0000 0.65776  0.53807  0.12354  Biso   1.000  O
  H316     1.0000 0.56108  0.47688  0.02951  Biso   1.000  H
  H317     1.0000 0.62711  0.50999  0.04421  Biso   1.000  H
  O158     1.0000 0.63970  0.42887  0.04537  Biso   1.000  O
  C186     1.0000 0.15426  0.71572  0.16843  Biso   1.000  C
  H318     1.0000 0.10441  0.66239  0.20659  Biso   1.000  H
  O159     1.0000 0.15536  0.71406  0.24215  Biso   1.000  O
  H319     1.0000 0.23209  0.60370  0.25531  Biso   1.000  H
  H320     1.0000 0.18219  0.63992  0.06749  Biso   1.000  H
  H321     1.0000 0.22489  0.58800  0.08240  Biso   1.000  H
  O160     1.0000 0.12576  0.58143  0.09029  Biso   1.000  O
  C187     1.0000 0.72854  0.53998  0.10863  Biso   1.000  C
  H322     1.0000 0.68052  0.43759  0.04129  Biso   1.000  H
  O161     1.0000 0.22045  0.74430  0.16886  Biso   1.000  O
  H323     1.0000 0.11652  0.74322  0.16889  Biso   1.000  H
  H324     1.0000 0.14789  0.69491  0.26249  Biso   1.000  H
  H325     1.0000 0.10232  0.59090  0.11011  Biso   1.000  H
  H326     1.0000 0.74452  0.50210  0.10271  Biso   1.000  H
  C188     1.0000 0.77380  0.56465  0.14109  Biso   1.000  C
  O162     1.0000 0.73121  0.57213  0.07200  Biso   1.000  O
  C189     1.0000 0.22118  0.80324  0.16514  Biso   1.000  C
  H327     1.0000 0.82209  0.56432  0.13109  Biso   1.000  H
  O163     1.0000 0.77088  0.53229  0.17766  Biso   1.000  O
  C190     1.0000 0.75329  0.62517  0.14977  Biso   1.000  C
  C191     1.0000 0.71038  0.62891  0.07719  Biso   1.000  C
  C192     1.0000 0.26399  0.82575  0.20110  Biso   1.000  C
  H328     1.0000 0.17331  0.81728  0.16720  Biso   1.000  H
  C193     1.0000 0.25141  0.81977  0.12419  Biso   1.000  C
  H329     1.0000 0.80393  0.54039  0.19251  Biso   1.000  H
  H330     1.0000 0.70542  0.62621  0.16030  Biso   1.000  H
  O164     1.0000 0.79881  0.65005  0.17876  Biso   1.000  O
  C194     1.0000 0.75642  0.65612  0.10977  Biso   1.000  C
  H331     1.0000 0.66141  0.63049  0.08569  Biso   1.000  H
  C195     1.0000 0.71863  0.65533  0.03470  Biso   1.000  C
  C196     1.0000 0.27490  0.88644  0.19567  Biso   1.000  C
  H332     1.0000 0.30951  0.80719  0.20150  Biso   1.000  H
  O165     1.0000 0.22724  0.81317  0.23862  Biso   1.000  O
  H333     1.0000 0.29563  0.79992  0.12051  Biso   1.000  H
  O166     1.0000 0.26550  0.87855  0.12238  Biso   1.000  O
  C197     1.0000 0.20500  0.80623  0.08842  Biso   1.000  C
  H334     1.0000 0.79500  0.63410  0.20091  Biso   1.000  H
  H335     1.0000 0.80481  0.65832  0.10010  Biso   1.000  H
  O167     1.0000 0.72912  0.71124  0.11701  Biso   1.000  O
  H336     1.0000 0.68542  0.63859  0.01589  Biso   1.000  H
  H337     1.0000 0.70808  0.69470  0.03651  Biso   1.000  H
  O168     1.0000 0.78675  0.64831  0.01914  Biso   1.000  O
  C198     1.0000 0.30847  0.89915  0.15447  Biso   1.000  C
  H338     1.0000 0.22891  0.90430  0.19610  Biso   1.000  H
  O169     1.0000 0.31551  0.90987  0.22849  Biso   1.000  O
  H339     1.0000 0.25230  0.82031  0.25831  Biso   1.000  H
  H340     1.0000 0.22672  0.81931  0.06329  Biso   1.000  H
  H341     1.0000 0.19962  0.76631  0.08639  Biso   1.000  H
  O170     1.0000 0.13750  0.83157  0.09286  Biso   1.000  O
  C199     1.0000 0.77072  0.75863  0.10664  Biso   1.000  C
  H342     1.0000 0.80690  0.67838  0.01890  Biso   1.000  H
  O171     1.0000 0.37435  0.87269  0.15428  Biso   1.000  O
  H343     1.0000 0.31452  0.93940  0.15140  Biso   1.000  H
  H344     1.0000 0.35618  0.89969  0.22629  Biso   1.000  H
  H345     1.0000 0.14069  0.86509  0.08881  Biso   1.000  H
  H346     1.0000 0.81781  0.74629  0.09921  Biso   1.000  H
  C200     1.0000 0.77485  0.79472  0.14480  Biso   1.000  C
  O172     1.0000 0.74139  0.78783  0.07360  Biso   1.000  O
  C201     1.0000 0.43402  0.90692  0.14370  Biso   1.000  C
  H347     1.0000 0.80330  0.82750  0.13861  Biso   1.000  H
  O173     1.0000 0.80680  0.76503  0.17794  Biso   1.000  O
  C202     1.0000 0.70302  0.81346  0.15600  Biso   1.000  C
  C203     1.0000 0.67248  0.81047  0.08154  Biso   1.000  C
  C204     1.0000 0.48716  0.90368  0.17803  Biso   1.000  C
  H348     1.0000 0.41862  0.94550  0.14069  Biso   1.000  H
  C205     1.0000 0.46408  0.88694  0.10311  Biso   1.000  C
  H349     1.0000 0.80330  0.73151  0.17379  Biso   1.000  H
  H350     1.0000 0.67389  0.78102  0.16201  Biso   1.000  H
  O174     1.0000 0.70495  0.84922  0.19128  Biso   1.000  O
  C206     1.0000 0.67170  0.84544  0.12069  Biso   1.000  C
  H351     1.0000 0.63980  0.77948  0.08501  Biso   1.000  H
  C207     1.0000 0.65248  0.84224  0.04335  Biso   1.000  C
  C208     1.0000 0.55085  0.93583  0.16548  Biso   1.000  C
  H352     1.0000 0.50010  0.86480  0.18251  Biso   1.000  H
  O175     1.0000 0.45787  0.92565  0.21478  Biso   1.000  O
  H353     1.0000 0.47552  0.84739  0.10541  Biso   1.000  H
  O176     1.0000 0.52720  0.91780  0.09431  Biso   1.000  O
  C209     1.0000 0.41559  0.89524  0.06762  Biso   1.000  C
  H354     1.0000 0.69801  0.83090  0.21211  Biso   1.000  H
  H355     1.0000 0.69842  0.87958  0.11621  Biso   1.000  H
  O177     1.0000 0.60138  0.85907  0.13063  Biso   1.000  O
  H356     1.0000 0.65510  0.81782  0.01979  Biso   1.000  H
  H357     1.0000 0.60472  0.85520  0.04580  Biso   1.000  H
  O178     1.0000 0.69748  0.88839  0.03727  Biso   1.000  O
  C210     1.0000 0.57909  0.91460  0.12465  Biso   1.000  C
  H358     1.0000 0.53680  0.97458  0.16161  Biso   1.000  H
  O179     1.0000 0.60289  0.93475  0.19613  Biso   1.000  O
  H359     1.0000 0.47938  0.91360  0.23460  Biso   1.000  H
  H360     1.0000 0.44018  0.88702  0.04231  Biso   1.000  H
  H361     1.0000 0.37680  0.86962  0.06989  Biso   1.000  H
  O180     1.0000 0.38970  0.95078  0.06620  Biso   1.000  O
  H362     1.0000 0.69341  0.91011  0.05651  Biso   1.000  H
  H363     1.0000 0.61907  0.93740  0.11639  Biso   1.000  H
  H364     1.0000 0.61892  0.90322  0.19800  Biso   1.000  H
  H365     1.0000 0.41371  0.96918  0.05040  Biso   1.000  H
  O181     1.0000 0.38562  0.54874  0.77746  Biso   1.000  O
  C211     1.0000 0.35294  0.51780  0.80906  Biso   1.000  C
  H366     1.0000 0.42770  0.54231  0.77749  Biso   1.000  H
  C212     1.0000 0.37450  0.53927  0.85084  Biso   1.000  C
  C213     1.0000 0.27459  0.52361  0.80522  Biso   1.000  C
  H367     1.0000 0.36589  0.47859  0.80660  Biso   1.000  H
  C214     1.0000 0.33462  0.51028  0.88489  Biso   1.000  C
  H368     1.0000 0.36641  0.57940  0.85231  Biso   1.000  H
  O182     1.0000 0.44832  0.52777  0.85569  Biso   1.000  O
  C215     1.0000 0.23956  0.49259  0.84016  Biso   1.000  C
  H369     1.0000 0.26269  0.56312  0.80771  Biso   1.000  H
  O183     1.0000 0.25047  0.50451  0.76681  Biso   1.000  O
  C216     1.0000 0.34840  0.53595  0.92711  Biso   1.000  C
  H370     1.0000 0.34861  0.47111  0.88551  Biso   1.000  H
  O184     1.0000 0.26117  0.51327  0.87860  Biso   1.000  O
  C217     1.0000 0.49400  0.57242  0.86449  Biso   1.000  C
  O185     1.0000 0.25548  0.43543  0.83596  Biso   1.000  O
  H371     1.0000 0.18892  0.49740  0.83780  Biso   1.000  H
  H372     1.0000 0.22928  0.52951  0.75509  Biso   1.000  H
  H373     1.0000 0.32068  0.51701  0.94769  Biso   1.000  H
  H374     1.0000 0.39732  0.53171  0.93419  Biso   1.000  H
  O186     1.0000 0.32987  0.59564  0.92622  Biso   1.000  O
  H375     1.0000 0.39820  0.54139  0.93091  Biso   1.000  H
  H376     1.0000 0.32569  0.57188  0.92889  Biso   1.000  H
  O187     1.0000 0.32120  0.49882  0.95960  Biso   1.000  O
  H377     1.0000 0.46758  0.60731  0.86369  Biso   1.000  H
  C218     1.0000 0.54944  0.57358  0.83145  Biso   1.000  C
  O188     1.0000 0.52485  0.56665  0.90330  Biso   1.000  O
  C219     1.0000 0.19821  0.39585  0.83384  Biso   1.000  C
  H378     1.0000 0.29881  0.60079  0.90931  Biso   1.000  H
  H379     1.0000 0.31609  0.46750  0.95030  Biso   1.000  H
  H380     1.0000 0.58102  0.60469  0.83710  Biso   1.000  H
  O189     1.0000 0.51937  0.58193  0.79191  Biso   1.000  O
  C220     1.0000 0.59177  0.52008  0.83243  Biso   1.000  C
  C221     1.0000 0.56771  0.51817  0.90803  Biso   1.000  C
  C222     1.0000 0.20542  0.36407  0.79497  Biso   1.000  C
  H381     1.0000 0.15389  0.41620  0.83351  Biso   1.000  H
  C223     1.0000 0.20030  0.35929  0.87081  Biso   1.000  C
  H382     1.0000 0.53012  0.61279  0.78341  Biso   1.000  H
  H383     1.0000 0.56103  0.48831  0.82740  Biso   1.000  H
  O190     1.0000 0.64612  0.52100  0.80268  Biso   1.000  O
  C224     1.0000 0.62304  0.51572  0.87456  Biso   1.000  C
  H384     1.0000 0.53832  0.48490  0.90640  Biso   1.000  H
  C225     1.0000 0.59845  0.52241  0.95042  Biso   1.000  C
  C226     1.0000 0.15019  0.31938  0.79366  Biso   1.000  C
  H385     1.0000 0.25162  0.34658  0.79421  Biso   1.000  H
  O191     1.0000 0.19780  0.39958  0.75957  Biso   1.000  O
  H386     1.0000 0.24650  0.34189  0.87228  Biso   1.000  H
  O192     1.0000 0.14867  0.31622  0.86756  Biso   1.000  O
  C227     1.0000 0.18600  0.38783  0.91097  Biso   1.000  C
  H387     1.0000 0.63228  0.50642  0.78141  Biso   1.000  H
  H388     1.0000 0.65718  0.54550  0.87860  Biso   1.000  H
  O193     1.0000 0.65776  0.46193  0.87646  Biso   1.000  O
  H389     1.0000 0.56108  0.52312  0.97049  Biso   1.000  H
  H390     1.0000 0.62711  0.49001  0.95579  Biso   1.000  H
  O194     1.0000 0.63970  0.57113  0.95463  Biso   1.000  O
  C228     1.0000 0.15426  0.28428  0.83157  Biso   1.000  C
  H391     1.0000 0.10441  0.33761  0.79341  Biso   1.000  H
  O195     1.0000 0.15536  0.28594  0.75785  Biso   1.000  O
  H392     1.0000 0.23209  0.39630  0.74469  Biso   1.000  H
  H393     1.0000 0.18219  0.36008  0.93251  Biso   1.000  H
  H394     1.0000 0.22489  0.41200  0.91760  Biso   1.000  H
  O196     1.0000 0.12576  0.41857  0.90971  Biso   1.000  O
  C229     1.0000 0.72854  0.46002  0.89137  Biso   1.000  C
  H395     1.0000 0.68052  0.56241  0.95871  Biso   1.000  H
  O197     1.0000 0.22045  0.25570  0.83114  Biso   1.000  O
  H396     1.0000 0.11652  0.25678  0.83111  Biso   1.000  H
  H397     1.0000 0.14789  0.30509  0.73751  Biso   1.000  H
  H398     1.0000 0.10232  0.40910  0.88989  Biso   1.000  H
  H399     1.0000 0.74452  0.49790  0.89729  Biso   1.000  H
  C230     1.0000 0.77380  0.43535  0.85891  Biso   1.000  C
  O198     1.0000 0.73121  0.42787  0.92800  Biso   1.000  O
  C231     1.0000 0.22118  0.19676  0.83486  Biso   1.000  C
  H400     1.0000 0.82209  0.43568  0.86891  Biso   1.000  H
  O199     1.0000 0.77088  0.46771  0.82234  Biso   1.000  O
  C232     1.0000 0.75329  0.37483  0.85023  Biso   1.000  C
  C233     1.0000 0.71038  0.37109  0.92281  Biso   1.000  C
  C234     1.0000 0.26399  0.17425  0.79890  Biso   1.000  C
  H401     1.0000 0.17331  0.18272  0.83280  Biso   1.000  H
  C235     1.0000 0.25141  0.18023  0.87581  Biso   1.000  C
  H402     1.0000 0.80393  0.45961  0.80749  Biso   1.000  H
  H403     1.0000 0.70542  0.37379  0.83970  Biso   1.000  H
  O200     1.0000 0.79881  0.34995  0.82124  Biso   1.000  O
  C236     1.0000 0.75642  0.34388  0.89023  Biso   1.000  C
  H404     1.0000 0.66141  0.36951  0.91431  Biso   1.000  H
  C237     1.0000 0.71863  0.34467  0.96530  Biso   1.000  C
  C238     1.0000 0.27490  0.11356  0.80433  Biso   1.000  C
  H405     1.0000 0.30951  0.19281  0.79850  Biso   1.000  H
  O201     1.0000 0.22724  0.18683  0.76138  Biso   1.000  O
  H406     1.0000 0.29563  0.20008  0.87949  Biso   1.000  H
  O202     1.0000 0.26550  0.12145  0.87762  Biso   1.000  O
  C239     1.0000 0.20500  0.19377  0.91158  Biso   1.000  C
  H407     1.0000 0.79500  0.36590  0.79909  Biso   1.000  H
  H408     1.0000 0.80481  0.34168  0.89990  Biso   1.000  H
  O203     1.0000 0.72912  0.28876  0.88299  Biso   1.000  O
  H409     1.0000 0.68542  0.36141  0.98411  Biso   1.000  H
  H410     1.0000 0.70808  0.30530  0.96349  Biso   1.000  H
  O204     1.0000 0.78675  0.35169  0.98086  Biso   1.000  O
  C240     1.0000 0.30847  0.10085  0.84553  Biso   1.000  C
  H411     1.0000 0.22891  0.09570  0.80390  Biso   1.000  H
  O205     1.0000 0.31551  0.09013  0.77151  Biso   1.000  O
  H412     1.0000 0.25230  0.17969  0.74169  Biso   1.000  H
  H413     1.0000 0.22672  0.18069  0.93671  Biso   1.000  H
  H414     1.0000 0.19962  0.23369  0.91361  Biso   1.000  H
  O206     1.0000 0.13750  0.16843  0.90714  Biso   1.000  O
  C241     1.0000 0.77072  0.24137  0.89336  Biso   1.000  C
  H415     1.0000 0.80690  0.32162  0.98110  Biso   1.000  H
  O207     1.0000 0.37435  0.12731  0.84572  Biso   1.000  O
  H416     1.0000 0.31452  0.06060  0.84860  Biso   1.000  H
  H417     1.0000 0.35618  0.10031  0.77371  Biso   1.000  H
  H418     1.0000 0.14069  0.13491  0.91119  Biso   1.000  H
  H419     1.0000 0.81781  0.25371  0.90079  Biso   1.000  H
  C242     1.0000 0.77485  0.20528  0.85520  Biso   1.000  C
  O208     1.0000 0.74139  0.21217  0.92640  Biso   1.000  O
  C243     1.0000 0.43402  0.09308  0.85630  Biso   1.000  C
  H420     1.0000 0.80330  0.17250  0.86139  Biso   1.000  H
  O209     1.0000 0.80680  0.23497  0.82206  Biso   1.000  O
  C244     1.0000 0.70302  0.18654  0.84400  Biso   1.000  C
  C245     1.0000 0.67248  0.18953  0.91846  Biso   1.000  C
  C246     1.0000 0.48716  0.09632  0.82197  Biso   1.000  C
  H421     1.0000 0.41862  0.05450  0.85931  Biso   1.000  H
  C247     1.0000 0.46408  0.11306  0.89689  Biso   1.000  C
  H422     1.0000 0.80330  0.26849  0.82621  Biso   1.000  H
  H423     1.0000 0.67389  0.21898  0.83799  Biso   1.000  H
  O210     1.0000 0.70495  0.15078  0.80872  Biso   1.000  O
  C248     1.0000 0.67170  0.15456  0.87931  Biso   1.000  C
  H424     1.0000 0.63980  0.22052  0.91499  Biso   1.000  H
  C249     1.0000 0.65248  0.15776  0.95665  Biso   1.000  C
  C250     1.0000 0.55085  0.06417  0.83452  Biso   1.000  C
  H425     1.0000 0.50010  0.13520  0.81749  Biso   1.000  H
  O211     1.0000 0.45787  0.07435  0.78522  Biso   1.000  O
  H426     1.0000 0.47552  0.15261  0.89459  Biso   1.000  H
  O212     1.0000 0.52720  0.08220  0.90569  Biso   1.000  O
  C251     1.0000 0.41559  0.10476  0.93238  Biso   1.000  C
  H427     1.0000 0.69801  0.16910  0.78789  Biso   1.000  H
  H428     1.0000 0.69842  0.12042  0.88379  Biso   1.000  H
  O213     1.0000 0.60138  0.14093  0.86937  Biso   1.000  O
  H429     1.0000 0.65510  0.18218  0.98021  Biso   1.000  H
  H430     1.0000 0.60472  0.14480  0.95420  Biso   1.000  H
  O214     1.0000 0.69748  0.11161  0.96273  Biso   1.000  O
  C252     1.0000 0.57909  0.08540  0.87535  Biso   1.000  C
  H431     1.0000 0.53680  0.02542  0.83839  Biso   1.000  H
  O215     1.0000 0.60289  0.06525  0.80387  Biso   1.000  O
  H432     1.0000 0.47938  0.08640  0.76540  Biso   1.000  H
  H433     1.0000 0.44018  0.11298  0.95769  Biso   1.000  H
  H434     1.0000 0.37680  0.13038  0.93011  Biso   1.000  H
  O216     1.0000 0.38970  0.04922  0.93380  Biso   1.000  O
  H435     1.0000 0.69341  0.08989  0.94349  Biso   1.000  H
  H436     1.0000 0.61907  0.06260  0.88361  Biso   1.000  H
  H437     1.0000 0.61892  0.09678  0.80200  Biso   1.000  H
  H438     1.0000 0.41371  0.03082  0.94960  Biso   1.000  H
  O217     1.0000 0.72724  0.31319  0.23862  Biso   1.000  O
  C253     1.0000 0.76399  0.32573  0.20110  Biso   1.000  C
  H439     1.0000 0.75230  0.32029  0.25831  Biso   1.000  H
  C254     1.0000 0.72118  0.30326  0.16514  Biso   1.000  C
  C255     1.0000 0.77490  0.38646  0.19567  Biso   1.000  C
  H440     1.0000 0.80951  0.30721  0.20150  Biso   1.000  H
  O218     1.0000 0.72045  0.24432  0.16886  Biso   1.000  O
  H441     1.0000 0.67331  0.31730  0.16720  Biso   1.000  H
  C256     1.0000 0.75141  0.31975  0.12419  Biso   1.000  C
  C257     1.0000 0.80847  0.39917  0.15447  Biso   1.000  C
  H442     1.0000 0.72891  0.40432  0.19610  Biso   1.000  H
  O219     1.0000 0.81551  0.40984  0.22849  Biso   1.000  O
  C258     1.0000 0.65426  0.21570  0.16843  Biso   1.000  C
  H443     1.0000 0.79563  0.29990  0.12051  Biso   1.000  H
  O220     1.0000 0.76550  0.37857  0.12238  Biso   1.000  O
  C259     1.0000 0.70500  0.30625  0.08842  Biso   1.000  C
  O221     1.0000 0.87435  0.37267  0.15428  Biso   1.000  O
  H444     1.0000 0.81452  0.43942  0.15140  Biso   1.000  H
  H445     1.0000 0.85618  0.39971  0.22629  Biso   1.000  H
  C260     1.0000 0.65019  0.18064  0.20634  Biso   1.000  C
  H446     1.0000 0.61652  0.24320  0.16889  Biso   1.000  H
  O222     1.0000 0.64867  0.18380  0.13244  Biso   1.000  O
  H447     1.0000 0.72672  0.31929  0.06329  Biso   1.000  H
  H448     1.0000 0.69962  0.26629  0.08639  Biso   1.000  H
  O223     1.0000 0.63750  0.33159  0.09286  Biso   1.000  O
  C261     1.0000 0.93402  0.40690  0.14370  Biso   1.000  C
  O224     1.0000 0.65536  0.21404  0.24215  Biso   1.000  O
  H449     1.0000 0.60441  0.16241  0.20659  Biso   1.000  H
  C262     1.0000 0.70542  0.13591  0.20503  Biso   1.000  C
  C263     1.0000 0.70030  0.14069  0.12919  Biso   1.000  C
  H450     1.0000 0.64069  0.36511  0.08881  Biso   1.000  H
  C264     1.0000 0.98716  0.40370  0.17803  Biso   1.000  C
  H451     1.0000 0.91862  0.44548  0.14069  Biso   1.000  H
  C265     1.0000 0.96408  0.38696  0.10311  Biso   1.000  C
  H452     1.0000 0.64789  0.19489  0.26249  Biso   1.000  H
  H453     1.0000 0.75162  0.15340  0.20579  Biso   1.000  H
  O225     1.0000 0.69780  0.10039  0.24043  Biso   1.000  O
  C266     1.0000 0.69821  0.10413  0.16616  Biso   1.000  C
  H454     1.0000 0.74650  0.15809  0.12772  Biso   1.000  H
  C267     1.0000 0.68600  0.11219  0.08903  Biso   1.000  C
  O226     1.0000 0.95787  0.42563  0.21478  Biso   1.000  O
  C268     1.0000 0.05085  0.43585  0.16548  Biso   1.000  C
  H455     1.0000 0.00010  0.36482  0.18251  Biso   1.000  H
  H456     1.0000 0.97552  0.34741  0.10541  Biso   1.000  H
  C269     1.0000 0.91559  0.39522  0.06762  Biso   1.000  C
  O227     1.0000 0.02720  0.41782  0.09431  Biso   1.000  O
  H457     1.0000 0.73209  0.10372  0.25531  Biso   1.000  H
  H458     1.0000 0.65389  0.08378  0.16649  Biso   1.000  H
  O228     1.0000 0.75548  0.06455  0.16404  Biso   1.000  O
  H459     1.0000 0.68219  0.13990  0.06749  Biso   1.000  H
  H460     1.0000 0.72489  0.08802  0.08240  Biso   1.000  H
  O229     1.0000 0.62576  0.08141  0.09029  Biso   1.000  O
  H461     1.0000 0.97938  0.41358  0.23460  Biso   1.000  H
  C270     1.0000 0.07909  0.41462  0.12465  Biso   1.000  C
  H462     1.0000 0.03680  0.47460  0.16161  Biso   1.000  H
  O230     1.0000 0.10289  0.43472  0.19613  Biso   1.000  O
  H463     1.0000 0.94018  0.38700  0.04231  Biso   1.000  H
  H464     1.0000 0.87680  0.36960  0.06989  Biso   1.000  H
  O231     1.0000 0.88970  0.45076  0.06620  Biso   1.000  O
  C271     1.0000 0.73956  0.00739  0.15984  Biso   1.000  C
  H465     1.0000 0.60232  0.09088  0.11011  Biso   1.000  H
  O232     1.0000 0.10138  0.35909  0.13063  Biso   1.000  O
  H466     1.0000 0.11907  0.43738  0.11639  Biso   1.000  H
  H467     1.0000 0.11892  0.40320  0.19800  Biso   1.000  H
  H468     1.0000 0.91371  0.46920  0.05040  Biso   1.000  H
  H469     1.0000 0.68892  0.00262  0.16220  Biso   1.000  H
  C272     1.0000 0.77459  0.97641  0.19478  Biso   1.000  C
  O233     1.0000 0.76117  0.98671  0.12140  Biso   1.000  O
  C273     1.0000 0.17170  0.34546  0.12069  Biso   1.000  C
  H470     1.0000 0.76269  0.93691  0.19229  Biso   1.000  H
  O234     1.0000 0.75047  0.99551  0.23319  Biso   1.000  O
  C274     1.0000 0.85294  0.98218  0.19094  Biso   1.000  C
  C275     1.0000 0.83462  0.98970  0.11511  Biso   1.000  C
  C276     1.0000 0.20302  0.31344  0.15600  Biso   1.000  C
  H471     1.0000 0.19842  0.37961  0.11621  Biso   1.000  H
  C277     1.0000 0.17248  0.31045  0.08154  Biso   1.000  C
  H472     1.0000 0.72928  0.97051  0.24491  Biso   1.000  H
  H473     1.0000 0.86589  0.02139  0.19340  Biso   1.000  H
  O235     1.0000 0.88562  0.95128  0.22254  Biso   1.000  O
  C278     1.0000 0.87450  0.96071  0.14916  Biso   1.000  C
  H474     1.0000 0.84861  0.02891  0.11449  Biso   1.000  H
  C279     1.0000 0.84840  0.96403  0.07289  Biso   1.000  C
  C280     1.0000 0.27485  0.29475  0.14480  Biso   1.000  C
  H475     1.0000 0.17389  0.28100  0.16201  Biso   1.000  H
  O236     1.0000 0.20495  0.34924  0.19128  Biso   1.000  O
  H476     1.0000 0.13980  0.27950  0.08501  Biso   1.000  H
  O237     1.0000 0.24139  0.28785  0.07360  Biso   1.000  O
  C281     1.0000 0.15248  0.34222  0.04335  Biso   1.000  C
  H477     1.0000 0.92770  0.95772  0.22251  Biso   1.000  H
  H478     1.0000 0.86641  0.92058  0.14769  Biso   1.000  H
  O238     1.0000 0.94832  0.97225  0.14431  Biso   1.000  O
  O239     1.0000 0.82120  0.00120  0.04040  Biso   1.000  O
  H479     1.0000 0.82068  0.98301  0.05231  Biso   1.000  H
  H480     1.0000 0.89732  0.96831  0.06581  Biso   1.000  H
  O240     1.0000 0.82987  0.90434  0.07378  Biso   1.000  O
  H481     1.0000 0.89820  0.95859  0.06909  Biso   1.000  H
  H482     1.0000 0.82569  0.92810  0.07111  Biso   1.000  H
  C282     1.0000 0.27072  0.25865  0.10664  Biso   1.000  C
  H483     1.0000 0.30330  0.32752  0.13861  Biso   1.000  H
  O241     1.0000 0.30680  0.26501  0.17794  Biso   1.000  O
  H484     1.0000 0.19801  0.33088  0.21211  Biso   1.000  H
  H485     1.0000 0.15510  0.31780  0.01979  Biso   1.000  H
  H486     1.0000 0.10472  0.35518  0.04580  Biso   1.000  H
  O242     1.0000 0.19748  0.38841  0.03727  Biso   1.000  O
  C283     1.0000 0.99400  0.92760  0.13551  Biso   1.000  C
  H487     1.0000 0.81609  0.03248  0.04970  Biso   1.000  H
  H488     1.0000 0.79881  0.89919  0.09069  Biso   1.000  H
  H489     1.0000 0.31781  0.24631  0.09921  Biso   1.000  H
  O243     1.0000 0.22912  0.21121  0.11701  Biso   1.000  O
  H490     1.0000 0.30330  0.23148  0.17379  Biso   1.000  H
  H491     1.0000 0.19341  0.41009  0.05651  Biso   1.000  H
  H492     1.0000 0.96758  0.89271  0.13631  Biso   1.000  H
  C284     1.0000 0.04944  0.92640  0.16855  Biso   1.000  C
  O244     1.0000 0.02485  0.93333  0.09670  Biso   1.000  O
  C285     1.0000 0.25642  0.15610  0.10977  Biso   1.000  C
  H493     1.0000 0.08102  0.89529  0.16290  Biso   1.000  H
  O245     1.0000 0.01937  0.91809  0.20809  Biso   1.000  O
  C286     1.0000 0.09177  0.97990  0.16757  Biso   1.000  C
  C287     1.0000 0.06771  0.98181  0.09197  Biso   1.000  C
  C288     1.0000 0.25329  0.12515  0.14977  Biso   1.000  C
  C289     1.0000 0.21038  0.12889  0.07719  Biso   1.000  C
  H494     1.0000 0.30481  0.15830  0.10010  Biso   1.000  H
  H495     1.0000 0.03012  0.88719  0.21659  Biso   1.000  H
  O246     1.0000 0.14612  0.97902  0.19732  Biso   1.000  O
  C290     1.0000 0.12304  0.98426  0.12544  Biso   1.000  C
  H496     1.0000 0.06103  0.01171  0.17260  Biso   1.000  H
  C291     1.0000 0.09845  0.97757  0.04958  Biso   1.000  C
  H497     1.0000 0.03832  0.01512  0.09360  Biso   1.000  H
  C292     1.0000 0.27380  0.06463  0.14109  Biso   1.000  C
  H498     1.0000 0.20542  0.12619  0.16030  Biso   1.000  H
  O247     1.0000 0.29881  0.15003  0.17876  Biso   1.000  O
  O248     1.0000 0.23121  0.07211  0.07200  Biso   1.000  O
  H499     1.0000 0.16141  0.13051  0.08569  Biso   1.000  H
  C293     1.0000 0.21863  0.15535  0.03470  Biso   1.000  C
  H500     1.0000 0.13228  0.99360  0.21859  Biso   1.000  H
  H501     1.0000 0.15718  0.95452  0.12140  Biso   1.000  H
  O249     1.0000 0.15776  0.03805  0.12354  Biso   1.000  O
  H502     1.0000 0.06108  0.97691  0.02951  Biso   1.000  H
  O250     1.0000 0.13970  0.92889  0.04537  Biso   1.000  O
  H503     1.0000 0.12711  0.01001  0.04421  Biso   1.000  H
  C294     1.0000 0.22854  0.03996  0.10863  Biso   1.000  C
  H504     1.0000 0.32209  0.06430  0.13109  Biso   1.000  H
  O251     1.0000 0.27088  0.03232  0.17766  Biso   1.000  O
  H505     1.0000 0.29500  0.13408  0.20091  Biso   1.000  H
  H506     1.0000 0.18542  0.13861  0.01589  Biso   1.000  H
  H507     1.0000 0.20808  0.19468  0.03651  Biso   1.000  H
  O252     1.0000 0.28675  0.14833  0.01914  Biso   1.000  O
  H508     1.0000 0.18052  0.93761  0.04129  Biso   1.000  H
  H509     1.0000 0.24452  0.00212  0.10271  Biso   1.000  H
  H510     1.0000 0.30393  0.04042  0.19251  Biso   1.000  H
  H511     1.0000 0.30690  0.17840  0.01890  Biso   1.000  H
  O253     1.0000 0.72724  0.68681  0.76138  Biso   1.000  O
  C295     1.0000 0.76399  0.67427  0.79890  Biso   1.000  C
  H512     1.0000 0.75230  0.67971  0.74169  Biso   1.000  H
  C296     1.0000 0.77490  0.61354  0.80433  Biso   1.000  C
  H513     1.0000 0.80951  0.69279  0.79850  Biso   1.000  H
  C297     1.0000 0.72118  0.69674  0.83486  Biso   1.000  C
  C298     1.0000 0.80847  0.60083  0.84553  Biso   1.000  C
  H514     1.0000 0.72891  0.59568  0.80390  Biso   1.000  H
  O254     1.0000 0.81551  0.59016  0.77151  Biso   1.000  O
  H515     1.0000 0.67331  0.68270  0.83280  Biso   1.000  H
  O255     1.0000 0.72045  0.75568  0.83114  Biso   1.000  O
  C299     1.0000 0.75141  0.68025  0.87581  Biso   1.000  C
  O256     1.0000 0.87435  0.62733  0.84572  Biso   1.000  O
  H516     1.0000 0.81452  0.56058  0.84860  Biso   1.000  H
  O257     1.0000 0.76550  0.62143  0.87762  Biso   1.000  O
  H517     1.0000 0.85618  0.60029  0.77371  Biso   1.000  H
  C300     1.0000 0.65426  0.78430  0.83157  Biso   1.000  C
  H518     1.0000 0.79563  0.70010  0.87949  Biso   1.000  H
  C301     1.0000 0.70500  0.69375  0.91158  Biso   1.000  C
  C302     1.0000 0.93402  0.59310  0.85630  Biso   1.000  C
  H519     1.0000 0.61652  0.75680  0.83111  Biso   1.000  H
  C303     1.0000 0.65019  0.81936  0.79366  Biso   1.000  C
  O258     1.0000 0.64867  0.81620  0.86756  Biso   1.000  O
  H520     1.0000 0.72672  0.68071  0.93671  Biso   1.000  H
  H521     1.0000 0.69962  0.73371  0.91361  Biso   1.000  H
  O259     1.0000 0.63750  0.66841  0.90714  Biso   1.000  O
  C304     1.0000 0.98716  0.59630  0.82197  Biso   1.000  C
  H522     1.0000 0.91862  0.55452  0.85931  Biso   1.000  H
  C305     1.0000 0.96408  0.61304  0.89689  Biso   1.000  C
  H523     1.0000 0.60441  0.83759  0.79341  Biso   1.000  H
  O260     1.0000 0.65536  0.78596  0.75785  Biso   1.000  O
  C306     1.0000 0.70542  0.86409  0.79497  Biso   1.000  C
  C307     1.0000 0.70030  0.85931  0.87081  Biso   1.000  C
  H524     1.0000 0.64069  0.63489  0.91119  Biso   1.000  H
  O261     1.0000 0.95787  0.57437  0.78522  Biso   1.000  O
  C308     1.0000 0.05085  0.56415  0.83452  Biso   1.000  C
  H525     1.0000 0.00010  0.63518  0.81749  Biso   1.000  H
  H526     1.0000 0.97552  0.65259  0.89459  Biso   1.000  H
  C309     1.0000 0.91559  0.60478  0.93238  Biso   1.000  C
  O262     1.0000 0.02720  0.58218  0.90569  Biso   1.000  O
  H527     1.0000 0.64789  0.80511  0.73751  Biso   1.000  H
  H528     1.0000 0.75162  0.84660  0.79421  Biso   1.000  H
  O263     1.0000 0.69780  0.89961  0.75957  Biso   1.000  O
  C310     1.0000 0.69821  0.89587  0.83384  Biso   1.000  C
  H529     1.0000 0.74650  0.84191  0.87228  Biso   1.000  H
  C311     1.0000 0.68600  0.88781  0.91097  Biso   1.000  C
  H530     1.0000 0.97938  0.58642  0.76540  Biso   1.000  H
  C312     1.0000 0.07909  0.58538  0.87535  Biso   1.000  C
  H531     1.0000 0.03680  0.52540  0.83839  Biso   1.000  H
  O264     1.0000 0.10289  0.56528  0.80387  Biso   1.000  O
  H532     1.0000 0.94018  0.61300  0.95769  Biso   1.000  H
  H533     1.0000 0.87680  0.63040  0.93011  Biso   1.000  H
  O265     1.0000 0.88970  0.54924  0.93380  Biso   1.000  O
  H534     1.0000 0.73209  0.89628  0.74469  Biso   1.000  H
  H535     1.0000 0.65389  0.91622  0.83351  Biso   1.000  H
  O266     1.0000 0.75548  0.93545  0.83596  Biso   1.000  O
  H536     1.0000 0.68219  0.86010  0.93251  Biso   1.000  H
  H537     1.0000 0.72489  0.91198  0.91760  Biso   1.000  H
  O267     1.0000 0.62576  0.91859  0.90971  Biso   1.000  O
  O268     1.0000 0.10138  0.64091  0.86937  Biso   1.000  O
  H538     1.0000 0.11907  0.56262  0.88361  Biso   1.000  H
  H539     1.0000 0.11892  0.59680  0.80200  Biso   1.000  H
  H540     1.0000 0.91371  0.53080  0.94960  Biso   1.000  H
  C313     1.0000 0.73956  0.99261  0.84016  Biso   1.000  C
  H541     1.0000 0.60232  0.90912  0.88989  Biso   1.000  H
  C314     1.0000 0.17170  0.65454  0.87931  Biso   1.000  C
  H542     1.0000 0.68892  0.99738  0.83780  Biso   1.000  H
  C315     1.0000 0.77459  0.02359  0.80522  Biso   1.000  C
  O269     1.0000 0.76117  0.01329  0.87860  Biso   1.000  O
  C316     1.0000 0.20302  0.68656  0.84400  Biso   1.000  C
  H543     1.0000 0.19842  0.62039  0.88379  Biso   1.000  H
  C317     1.0000 0.17248  0.68955  0.91846  Biso   1.000  C
  H544     1.0000 0.76269  0.06309  0.80771  Biso   1.000  H
  O270     1.0000 0.75047  0.00449  0.76681  Biso   1.000  O
  C318     1.0000 0.85294  0.01782  0.80906  Biso   1.000  C
  C319     1.0000 0.83462  0.01030  0.88489  Biso   1.000  C
  C320     1.0000 0.27485  0.70525  0.85520  Biso   1.000  C
  H545     1.0000 0.17389  0.71900  0.83799  Biso   1.000  H
  O271     1.0000 0.20495  0.65076  0.80872  Biso   1.000  O
  H546     1.0000 0.13980  0.72050  0.91499  Biso   1.000  H
  O272     1.0000 0.24139  0.71215  0.92640  Biso   1.000  O
  C321     1.0000 0.15248  0.65778  0.95665  Biso   1.000  C
  H547     1.0000 0.72928  0.02949  0.75509  Biso   1.000  H
  H548     1.0000 0.86589  0.97861  0.80660  Biso   1.000  H
  O273     1.0000 0.88562  0.04872  0.77746  Biso   1.000  O
  C322     1.0000 0.87450  0.03929  0.85084  Biso   1.000  C
  H549     1.0000 0.84861  0.97109  0.88551  Biso   1.000  H
  C323     1.0000 0.84840  0.03597  0.92711  Biso   1.000  C
  C324     1.0000 0.27072  0.74135  0.89336  Biso   1.000  C
  H550     1.0000 0.30330  0.67248  0.86139  Biso   1.000  H
  O274     1.0000 0.30680  0.73499  0.82206  Biso   1.000  O
  H551     1.0000 0.19801  0.66912  0.78789  Biso   1.000  H
  H552     1.0000 0.15510  0.68220  0.98021  Biso   1.000  H
  H553     1.0000 0.10472  0.64482  0.95420  Biso   1.000  H
  O275     1.0000 0.19748  0.61159  0.96273  Biso   1.000  O
  H554     1.0000 0.92770  0.04228  0.77749  Biso   1.000  H
  H555     1.0000 0.86641  0.07942  0.85231  Biso   1.000  H
  O276     1.0000 0.94832  0.02775  0.85569  Biso   1.000  O
  O277     1.0000 0.82120  0.99880  0.95960  Biso   1.000  O
  H556     1.0000 0.82068  0.01699  0.94769  Biso   1.000  H
  H557     1.0000 0.89732  0.03169  0.93419  Biso   1.000  H
  O278     1.0000 0.82987  0.09566  0.92622  Biso   1.000  O
  H558     1.0000 0.89820  0.04141  0.93091  Biso   1.000  H
  H559     1.0000 0.82569  0.07190  0.92889  Biso   1.000  H
  H560     1.0000 0.31781  0.75369  0.90079  Biso   1.000  H
  O279     1.0000 0.22912  0.78879  0.88299  Biso   1.000  O
  H561     1.0000 0.30330  0.76852  0.82621  Biso   1.000  H
  H562     1.0000 0.19341  0.58991  0.94349  Biso   1.000  H
  C325     1.0000 0.99400  0.07240  0.86449  Biso   1.000  C
  H563     1.0000 0.81609  0.96752  0.95030  Biso   1.000  H
  H564     1.0000 0.79881  0.10081  0.90931  Biso   1.000  H
  C326     1.0000 0.25642  0.84390  0.89023  Biso   1.000  C
  H565     1.0000 0.96758  0.10729  0.86369  Biso   1.000  H
  C327     1.0000 0.04944  0.07360  0.83145  Biso   1.000  C
  O280     1.0000 0.02485  0.06667  0.90330  Biso   1.000  O
  C328     1.0000 0.25329  0.87485  0.85023  Biso   1.000  C
  H566     1.0000 0.30481  0.84170  0.89990  Biso   1.000  H
  C329     1.0000 0.21038  0.87111  0.92281  Biso   1.000  C
  H567     1.0000 0.08102  0.10471  0.83710  Biso   1.000  H
  O281     1.0000 0.01937  0.08191  0.79191  Biso   1.000  O
  C330     1.0000 0.09177  0.02010  0.83243  Biso   1.000  C
  C331     1.0000 0.06771  0.01819  0.90803  Biso   1.000  C
  C332     1.0000 0.27380  0.93537  0.85891  Biso   1.000  C
  H568     1.0000 0.20542  0.87381  0.83970  Biso   1.000  H
  O282     1.0000 0.29881  0.84997  0.82124  Biso   1.000  O
  H569     1.0000 0.16141  0.86949  0.91431  Biso   1.000  H
  O283     1.0000 0.23121  0.92789  0.92800  Biso   1.000  O
  C333     1.0000 0.21863  0.84465  0.96530  Biso   1.000  C
  H570     1.0000 0.03012  0.11281  0.78341  Biso   1.000  H
  H571     1.0000 0.06103  0.98829  0.82740  Biso   1.000  H
  O284     1.0000 0.14612  0.02098  0.80268  Biso   1.000  O
  C334     1.0000 0.12304  0.01574  0.87456  Biso   1.000  C
  H572     1.0000 0.03832  0.98488  0.90640  Biso   1.000  H
  C335     1.0000 0.09845  0.02243  0.95042  Biso   1.000  C
  C336     1.0000 0.22854  0.96004  0.89137  Biso   1.000  C
  H573     1.0000 0.32209  0.93570  0.86891  Biso   1.000  H
  O285     1.0000 0.27088  0.96768  0.82234  Biso   1.000  O
  H574     1.0000 0.29500  0.86592  0.79909  Biso   1.000  H
  H575     1.0000 0.18542  0.86139  0.98411  Biso   1.000  H
  H576     1.0000 0.20808  0.80532  0.96349  Biso   1.000  H
  O286     1.0000 0.28675  0.85167  0.98086  Biso   1.000  O
  H577     1.0000 0.13228  0.00640  0.78141  Biso   1.000  H
  O287     1.0000 0.15776  0.96195  0.87646  Biso   1.000  O
  H578     1.0000 0.15718  0.04548  0.87860  Biso   1.000  H
  H579     1.0000 0.12711  0.98999  0.95579  Biso   1.000  H
  H580     1.0000 0.06108  0.02309  0.97049  Biso   1.000  H
  O288     1.0000 0.13970  0.07111  0.95463  Biso   1.000  O
  H581     1.0000 0.24452  0.99788  0.89729  Biso   1.000  H
  H582     1.0000 0.30393  0.95958  0.80749  Biso   1.000  H
  H583     1.0000 0.30690  0.82160  0.98110  Biso   1.000  H
  H584     1.0000 0.18052  0.06239  0.95871  Biso   1.000  H
