data_image0
_cell_length_a       29.149
_cell_length_b       29.149
_cell_length_c       58.518
_cell_angle_alpha    90
_cell_angle_beta     90
_cell_angle_gamma    120

_symmetry_space_group_name_H-M    "P 1"
_symmetry_int_tables_number       1

loop_
  _symmetry_equiv_pos_as_xyz
  'x, y, z'

loop_
  _atom_site_label
  _atom_site_occupancy
  _atom_site_fract_x
  _atom_site_fract_y
  _atom_site_fract_z
  _atom_site_thermal_displace_type
  _atom_site_B_iso_or_equiv
  _atom_site_type_symbol
  C1       1.0000 0.92533  0.57198  0.48542  Biso   1.000  C
  N1       1.0000 0.92547  0.61207  0.47790  Biso   1.000  N
  H1       1.0000 0.90496  0.55519  0.49867  Biso   1.000  H
  C2       1.0000 0.95563  0.54936  0.47457  Biso   1.000  C
  C3       1.0000 0.89634  0.63196  0.48944  Biso   1.000  C
  C4       1.0000 0.94571  0.49913  0.48059  Biso   1.000  C
  C5       1.0000 0.99579  0.57931  0.45866  Biso   1.000  C
  C6       1.0000 0.85326  0.60260  0.50335  Biso   1.000  C
  C7       1.0000 0.91314  0.68587  0.48568  Biso   1.000  C
  O1       1.0000 0.90656  0.47037  0.49574  Biso   1.000  O
  C8       1.0000 0.97674  0.47968  0.47023  Biso   1.000  C
  C9       1.0000 0.02735  0.56113  0.44872  Biso   1.000  C
  H2       1.0000 0.00174  0.61338  0.45446  Biso   1.000  H
  C10      1.0000 0.82658  0.62637  0.51335  Biso   1.000  C
  H3       1.0000 0.84162  0.56636  0.50617  Biso   1.000  H
  C11      1.0000 0.88696  0.70932  0.49583  Biso   1.000  C
  H4       1.0000 0.94273  0.70635  0.47606  Biso   1.000  H
  H5       1.0000 0.90463  0.44098  0.49786  Biso   1.000  H
  C12      1.0000 0.96800  0.42680  0.47647  Biso   1.000  C
  C13      1.0000 0.01536  0.50963  0.45516  Biso   1.000  C
  C14      1.0000 0.07142  0.59199  0.43176  Biso   1.000  C
  C15      1.0000 0.77702  0.59777  0.52873  Biso   1.000  C
  C16      1.0000 0.84248  0.67854  0.50904  Biso   1.000  C
  H6       1.0000 0.89935  0.74597  0.49376  Biso   1.000  H
  N2       1.0000 0.93133  0.39701  0.49007  Biso   1.000  N
  H7       1.0000 0.99032  0.41495  0.47016  Biso   1.000  H
  H8       1.0000 0.03544  0.49545  0.44867  Biso   1.000  H
  C17      1.0000 0.07843  0.64812  0.42770  Biso   1.000  C
  C18      1.0000 0.12213  0.59920  0.43998  Biso   1.000  C
  C19      1.0000 0.05568  0.56339  0.40827  Biso   1.000  C
  C20      1.0000 0.73549  0.60530  0.51577  Biso   1.000  C
  C21      1.0000 0.79170  0.63132  0.55024  Biso   1.000  C
  H9       1.0000 0.76574  0.55978  0.53167  Biso   1.000  H
  C22      1.0000 0.80716  0.69716  0.52078  Biso   1.000  C
  C23      1.0000 0.92448  0.34571  0.49646  Biso   1.000  C
  H10      1.0000 0.10962  0.66908  0.41816  Biso   1.000  H
  H11      1.0000 0.04693  0.64455  0.41997  Biso   1.000  H
  H12      1.0000 0.08304  0.66599  0.44236  Biso   1.000  H
  H13      1.0000 0.12111  0.56505  0.43976  Biso   1.000  H
  H14      1.0000 0.15072  0.62427  0.43007  Biso   1.000  H
  H15      1.0000 0.12845  0.61306  0.45567  Biso   1.000  H
  H16      1.0000 0.04404  0.52575  0.41037  Biso   1.000  H
  H17      1.0000 0.02673  0.56695  0.40157  Biso   1.000  H
  H18      1.0000 0.08634  0.57935  0.39796  Biso   1.000  H
  C24      1.0000 0.68749  0.56624  0.50842  Biso   1.000  C
  C25      1.0000 0.75165  0.65854  0.51181  Biso   1.000  C
  C26      1.0000 0.80758  0.68532  0.54549  Biso   1.000  C
  C27      1.0000 0.79149  0.61437  0.57201  Biso   1.000  C
  H19      1.0000 0.81864  0.73515  0.51767  Biso   1.000  H
  C28      1.0000 0.87875  0.31251  0.50842  Biso   1.000  C
  C29      1.0000 0.96106  0.33002  0.49210  Biso   1.000  C
  C30      1.0000 0.65430  0.57876  0.49646  Biso   1.000  C
  H20      1.0000 0.67674  0.53027  0.51147  Biso   1.000  H
  C31      1.0000 0.71858  0.67062  0.49966  Biso   1.000  C
  C32      1.0000 0.82240  0.72018  0.56362  Biso   1.000  C
  C33      1.0000 0.80962  0.65180  0.58966  Biso   1.000  C
  H21      1.0000 0.77935  0.57808  0.57517  Biso   1.000  H
  C34      1.0000 0.86981  0.26450  0.51577  Biso   1.000  C
  H22      1.0000 0.85352  0.32325  0.51147  Biso   1.000  H
  H23      1.0000 0.99253  0.35268  0.48387  Biso   1.000  H
  C35      1.0000 0.95202  0.28142  0.49966  Biso   1.000  C
  N3       1.0000 0.60300  0.53435  0.49007  Biso   1.000  N
  C36      1.0000 0.66996  0.63101  0.49210  Biso   1.000  C
  H24      1.0000 0.72931  0.70655  0.49646  Biso   1.000  H
  C37      1.0000 0.82395  0.70378  0.58577  Biso   1.000  C
  H25      1.0000 0.83171  0.75595  0.56087  Biso   1.000  H
  N4       1.0000 0.81507  0.63354  0.61198  Biso   1.000  N
  C38      1.0000 0.82075  0.22299  0.52873  Biso   1.000  C
  C39      1.0000 0.90687  0.24834  0.51181  Biso   1.000  C
  H26      1.0000 0.97726  0.27068  0.49646  Biso   1.000  H
  C40      1.0000 0.57320  0.54124  0.47647  Biso   1.000  C
  H27      1.0000 0.64733  0.63988  0.48387  Biso   1.000  H
  H28      1.0000 0.83481  0.72826  0.59807  Biso   1.000  H
  C41      1.0000 0.85708  0.66377  0.62364  Biso   1.000  C
  C42      1.0000 0.79979  0.17339  0.51335  Biso   1.000  C
  C43      1.0000 0.83961  0.20829  0.55024  Biso   1.000  C
  H29      1.0000 0.79404  0.23428  0.53167  Biso   1.000  H
  C44      1.0000 0.89000  0.19284  0.52078  Biso   1.000  C
  C45      1.0000 0.52029  0.49703  0.47023  Biso   1.000  C
  H30      1.0000 0.58501  0.57535  0.47016  Biso   1.000  H
  C46      1.0000 0.86864  0.64879  0.64541  Biso   1.000  C
  H31      1.0000 0.88163  0.69756  0.61757  Biso   1.000  H
  C47      1.0000 0.74934  0.14673  0.50335  Biso   1.000  C
  C48      1.0000 0.83603  0.15750  0.50904  Biso   1.000  C
  C49      1.0000 0.87776  0.19244  0.54549  Biso   1.000  C
  C50      1.0000 0.82286  0.20849  0.57201  Biso   1.000  C
  H32      1.0000 0.91654  0.18135  0.51767  Biso   1.000  H
  C51      1.0000 0.49036  0.50571  0.45516  Biso   1.000  C
  C52      1.0000 0.50086  0.44657  0.48059  Biso   1.000  C
  C53      1.0000 0.91737  0.68163  0.65544  Biso   1.000  C
  C54      1.0000 0.83263  0.60086  0.65653  Biso   1.000  C
  C55      1.0000 0.73563  0.10367  0.48944  Biso   1.000  C
  H33      1.0000 0.72473  0.15838  0.50617  Biso   1.000  H
  C56      1.0000 0.82235  0.11306  0.49583  Biso   1.000  C
  C57      1.0000 0.89778  0.17759  0.56362  Biso   1.000  C
  C58      1.0000 0.84216  0.19034  0.58966  Biso   1.000  C
  H34      1.0000 0.79872  0.22065  0.57517  Biso   1.000  H
  C59      1.0000 0.43888  0.46621  0.44872  Biso   1.000  C
  H35      1.0000 0.50454  0.53997  0.44867  Biso   1.000  H
  C60      1.0000 0.45061  0.40624  0.47457  Biso   1.000  C
  O2       1.0000 0.52963  0.43619  0.49574  Biso   1.000  O
  C61      1.0000 0.93332  0.66805  0.67596  Biso   1.000  C
  H36      1.0000 0.94093  0.71447  0.64826  Biso   1.000  H
  C62      1.0000 0.84546  0.58708  0.67675  Biso   1.000  C
  O3       1.0000 0.78419  0.56731  0.64689  Biso   1.000  O
  N5       1.0000 0.68663  0.07455  0.47790  Biso   1.000  N
  C63      1.0000 0.77276  0.08687  0.48568  Biso   1.000  C
  H37      1.0000 0.84662  0.10066  0.49376  Biso   1.000  H
  C64      1.0000 0.87982  0.17604  0.58577  Biso   1.000  C
  H38      1.0000 0.92424  0.16828  0.56087  Biso   1.000  H
  N6       1.0000 0.81845  0.18492  0.61198  Biso   1.000  N
  C65      1.0000 0.40798  0.47941  0.43176  Biso   1.000  C
  C66      1.0000 0.42071  0.41650  0.45866  Biso   1.000  C
  C67      1.0000 0.42801  0.35335  0.48542  Biso   1.000  C
  H39      1.0000 0.55905  0.46368  0.49786  Biso   1.000  H
  C68      1.0000 0.89477  0.62031  0.68661  Biso   1.000  C
  C69      1.0000 0.98763  0.70421  0.68562  Biso   1.000  C
  C70      1.0000 0.80756  0.53823  0.68873  Biso   1.000  C
  H40      1.0000 0.78125  0.58038  0.63457  Biso   1.000  H
  C71      1.0000 0.64665  0.07467  0.48542  Biso   1.000  C
  H41      1.0000 0.76366  0.05728  0.47606  Biso   1.000  H
  H42      1.0000 0.89341  0.16515  0.59807  Biso   1.000  H
  C72      1.0000 0.80669  0.14293  0.62364  Biso   1.000  C
  C73      1.0000 0.43661  0.49228  0.40827  Biso   1.000  C
  C74      1.0000 0.35185  0.43028  0.42770  Biso   1.000  C
  C75      1.0000 0.40082  0.52294  0.43998  Biso   1.000  C
  H43      1.0000 0.38665  0.38837  0.45446  Biso   1.000  H
  N7       1.0000 0.38792  0.31338  0.47790  Biso   1.000  N
  H44      1.0000 0.44483  0.34975  0.49867  Biso   1.000  H
  H45      1.0000 0.90283  0.61076  0.70096  Biso   1.000  H
  C76      1.0000 0.99782  0.67930  0.70683  Biso   1.000  C
  C77      1.0000 0.99242  0.75619  0.69211  Biso   1.000  C
  C78      1.0000 0.02973  0.71321  0.66744  Biso   1.000  C
  N8       1.0000 0.81955  0.52318  0.70737  Biso   1.000  N
  H46      1.0000 0.77314  0.51708  0.68247  Biso   1.000  H
  C79      1.0000 0.59373  0.04437  0.47457  Biso   1.000  C
  H47      1.0000 0.65023  0.09507  0.49867  Biso   1.000  H
  C80      1.0000 0.78015  0.13136  0.64541  Biso   1.000  C
  H48      1.0000 0.81595  0.11837  0.61757  Biso   1.000  H
  H49      1.0000 0.47423  0.51827  0.41037  Biso   1.000  H
  H50      1.0000 0.43304  0.45976  0.40157  Biso   1.000  H
  H51      1.0000 0.42063  0.50698  0.39796  Biso   1.000  H
  H52      1.0000 0.33093  0.44058  0.41816  Biso   1.000  H
  H53      1.0000 0.35542  0.40236  0.41997  Biso   1.000  H
  H54      1.0000 0.33402  0.41705  0.44236  Biso   1.000  H
  H55      1.0000 0.43491  0.55606  0.43976  Biso   1.000  H
  H56      1.0000 0.37572  0.52647  0.43007  Biso   1.000  H
  H57      1.0000 0.38695  0.51537  0.45567  Biso   1.000  H
  C81      1.0000 0.36805  0.26438  0.48944  Biso   1.000  C
  H58      1.0000 0.97192  0.67395  0.71877  Biso   1.000  H
  H59      1.0000 0.99422  0.64507  0.70267  Biso   1.000  H
  H60      1.0000 0.03375  0.70299  0.71257  Biso   1.000  H
  H61      1.0000 0.99475  0.77607  0.67827  Biso   1.000  H
  H62      1.0000 0.96125  0.74977  0.70096  Biso   1.000  H
  H63      1.0000 0.02444  0.77667  0.70137  Biso   1.000  H
  H64      1.0000 0.06505  0.73828  0.67337  Biso   1.000  H
  H65      1.0000 0.02781  0.67945  0.66397  Biso   1.000  H
  H66      1.0000 0.02303  0.72766  0.65356  Biso   1.000  H
  C82      1.0000 0.78178  0.47461  0.71785  Biso   1.000  C
  C83      1.0000 0.55343  0.05427  0.48059  Biso   1.000  C
  C84      1.0000 0.58353  0.00420  0.45866  Biso   1.000  C
  C85      1.0000 0.76820  0.16737  0.65653  Biso   1.000  C
  C86      1.0000 0.76426  0.08263  0.65544  Biso   1.000  C
  C87      1.0000 0.31412  0.22726  0.48568  Biso   1.000  C
  C88      1.0000 0.39737  0.25064  0.50335  Biso   1.000  C
  C89      1.0000 0.78409  0.47291  0.74141  Biso   1.000  C
  C90      1.0000 0.74539  0.43092  0.70553  Biso   1.000  C
  C91      1.0000 0.50293  0.02325  0.47023  Biso   1.000  C
  O4       1.0000 0.56383  0.09345  0.49574  Biso   1.000  O
  C92      1.0000 0.53383  0.97267  0.44872  Biso   1.000  C
  H67      1.0000 0.61167  0.99826  0.45446  Biso   1.000  H
  C93      1.0000 0.74161  0.15453  0.67675  Biso   1.000  C
  O5       1.0000 0.78313  0.21582  0.64689  Biso   1.000  O
  C94      1.0000 0.73473  0.06667  0.67596  Biso   1.000  C
  H68      1.0000 0.77354  0.05906  0.64826  Biso   1.000  H
  C95      1.0000 0.29067  0.17763  0.49583  Biso   1.000  C
  H69      1.0000 0.29363  0.23638  0.47606  Biso   1.000  H
  H70      1.0000 0.43363  0.27528  0.50617  Biso   1.000  H
  C96      1.0000 0.37360  0.20021  0.51335  Biso   1.000  C
  C97      1.0000 0.74724  0.42886  0.75353  Biso   1.000  C
  H71      1.0000 0.81122  0.50226  0.74946  Biso   1.000  H
  C98      1.0000 0.70930  0.38509  0.71757  Biso   1.000  C
  H72      1.0000 0.74473  0.43187  0.68928  Biso   1.000  H
  C99      1.0000 0.45878  0.03197  0.47647  Biso   1.000  C
  C100     1.0000 0.49429  0.98463  0.45516  Biso   1.000  C
  H73      1.0000 0.53634  0.09535  0.49786  Biso   1.000  H
  C101     1.0000 0.52057  0.92858  0.43176  Biso   1.000  C
  C102     1.0000 0.73065  0.19244  0.68873  Biso   1.000  C
  C103     1.0000 0.72558  0.10525  0.68661  Biso   1.000  C
  H74      1.0000 0.79914  0.21875  0.63457  Biso   1.000  H
  C104     1.0000 0.71660  0.01236  0.68562  Biso   1.000  C
  C105     1.0000 0.32147  0.16396  0.50904  Biso   1.000  C
  H75      1.0000 0.25406  0.15338  0.49376  Biso   1.000  H
  C106     1.0000 0.40223  0.17925  0.52873  Biso   1.000  C
  C107     1.0000 0.71022  0.38596  0.74165  Biso   1.000  C
  H76      1.0000 0.74783  0.42858  0.76976  Biso   1.000  H
  C108     1.0000 0.66662  0.33335  0.70763  Biso   1.000  C
  N9       1.0000 0.46566  0.06865  0.49007  Biso   1.000  N
  H77      1.0000 0.42464  0.00967  0.47016  Biso   1.000  H
  H78      1.0000 0.46008  0.96459  0.44867  Biso   1.000  H
  C109     1.0000 0.56972  0.92156  0.42770  Biso   1.000  C
  C110     1.0000 0.47710  0.87787  0.43998  Biso   1.000  C
  C111     1.0000 0.50773  0.94434  0.40827  Biso   1.000  C
  N10      1.0000 0.70365  0.18044  0.70737  Biso   1.000  N
  H79      1.0000 0.74392  0.22687  0.68247  Biso   1.000  H
  H80      1.0000 0.70792  0.09717  0.70096  Biso   1.000  H
  C112     1.0000 0.68146  0.00218  0.70683  Biso   1.000  C
  C113     1.0000 0.76379  0.00761  0.69211  Biso   1.000  C
  C114     1.0000 0.68350  0.97025  0.66744  Biso   1.000  C
  C115     1.0000 0.30283  0.11001  0.52078  Biso   1.000  C
  C116     1.0000 0.36868  0.16040  0.55024  Biso   1.000  C
  H81      1.0000 0.44024  0.20595  0.53167  Biso   1.000  H
  C117     1.0000 0.39472  0.13021  0.51577  Biso   1.000  C
  C118     1.0000 0.66662  0.33335  0.75177  Biso   1.000  C
  C119     1.0000 0.61493  0.32424  0.71757  Biso   1.000  C
  H82      1.0000 0.66662  0.33335  0.69057  Biso   1.000  H
  C120     1.0000 0.67576  0.29069  0.71757  Biso   1.000  C
  C121     1.0000 0.42125  0.07554  0.49646  Biso   1.000  C
  H83      1.0000 0.55943  0.89035  0.41816  Biso   1.000  H
  H84      1.0000 0.59765  0.95306  0.41997  Biso   1.000  H
  H85      1.0000 0.58297  0.91697  0.44236  Biso   1.000  H
  H86      1.0000 0.44398  0.87886  0.43976  Biso   1.000  H
  H87      1.0000 0.47354  0.84927  0.43007  Biso   1.000  H
  H88      1.0000 0.48462  0.87157  0.45567  Biso   1.000  H
  H89      1.0000 0.48173  0.95595  0.41037  Biso   1.000  H
  H90      1.0000 0.54023  0.97326  0.40157  Biso   1.000  H
  H91      1.0000 0.49305  0.91368  0.39796  Biso   1.000  H
  C122     1.0000 0.69282  0.21819  0.71785  Biso   1.000  C
  H92      1.0000 0.70206  0.02809  0.71877  Biso   1.000  H
  H93      1.0000 0.65084  0.00578  0.70267  Biso   1.000  H
  H94      1.0000 0.66919  0.96625  0.71257  Biso   1.000  H
  H95      1.0000 0.78132  0.00527  0.67827  Biso   1.000  H
  H96      1.0000 0.78854  0.03878  0.70096  Biso   1.000  H
  H97      1.0000 0.75227  0.97556  0.70137  Biso   1.000  H
  H98      1.0000 0.67326  0.93495  0.67337  Biso   1.000  H
  H99      1.0000 0.65166  0.97215  0.66397  Biso   1.000  H
  H100     1.0000 0.70464  0.97698  0.65356  Biso   1.000  H
  C123     1.0000 0.31468  0.12225  0.54549  Biso   1.000  C
  C124     1.0000 0.34146  0.09313  0.51181  Biso   1.000  C
  H101     1.0000 0.26483  0.08347  0.51767  Biso   1.000  H
  C125     1.0000 0.38562  0.17711  0.57201  Biso   1.000  C
  C126     1.0000 0.43373  0.12122  0.50842  Biso   1.000  C
  C127     1.0000 0.61404  0.32424  0.74165  Biso   1.000  C
  H102     1.0000 0.66662  0.33335  0.76887  Biso   1.000  H
  C128     1.0000 0.67575  0.28977  0.74165  Biso   1.000  C
  C129     1.0000 0.56904  0.31445  0.70553  Biso   1.000  C
  C130     1.0000 0.68553  0.25460  0.70553  Biso   1.000  C
  C131     1.0000 0.36898  0.03894  0.49210  Biso   1.000  C
  C132     1.0000 0.68882  0.21589  0.74141  Biso   1.000  C
  C133     1.0000 0.27984  0.10224  0.56362  Biso   1.000  C
  C134     1.0000 0.32938  0.04797  0.49966  Biso   1.000  C
  C135     1.0000 0.34818  0.15782  0.58966  Biso   1.000  C
  H103     1.0000 0.42195  0.20128  0.57517  Biso   1.000  H
  H104     1.0000 0.46974  0.14645  0.51147  Biso   1.000  H
  C136     1.0000 0.57114  0.31838  0.75353  Biso   1.000  C
  C137     1.0000 0.68164  0.25278  0.75353  Biso   1.000  C
  C138     1.0000 0.52536  0.30716  0.71785  Biso   1.000  C
  H105     1.0000 0.56815  0.31287  0.68928  Biso   1.000  H
  H106     1.0000 0.68714  0.25527  0.68928  Biso   1.000  H
  H107     1.0000 0.36013  0.00745  0.48387  Biso   1.000  H
  H108     1.0000 0.69104  0.18876  0.74946  Biso   1.000  H
  C139     1.0000 0.29623  0.12019  0.58577  Biso   1.000  C
  H109     1.0000 0.24404  0.07578  0.56087  Biso   1.000  H
  H110     1.0000 0.29342  0.02278  0.49646  Biso   1.000  H
  N11      1.0000 0.36644  0.18151  0.61198  Biso   1.000  N
  C140     1.0000 0.52709  0.31117  0.74141  Biso   1.000  C
  H111     1.0000 0.57144  0.31925  0.76976  Biso   1.000  H
  H112     1.0000 0.68072  0.25218  0.76976  Biso   1.000  H
  N12      1.0000 0.47680  0.29635  0.70737  Biso   1.000  N
  H113     1.0000 0.27174  0.10656  0.59807  Biso   1.000  H
  C141     1.0000 0.33622  0.19331  0.62364  Biso   1.000  C
  H114     1.0000 0.49771  0.30895  0.74946  Biso   1.000  H
  C142     1.0000 0.46178  0.26933  0.68873  Biso   1.000  C
  C143     1.0000 0.35121  0.21986  0.64541  Biso   1.000  C
  H115     1.0000 0.30244  0.18408  0.61757  Biso   1.000  H
  C144     1.0000 0.41291  0.25840  0.67675  Biso   1.000  C
  H116     1.0000 0.48293  0.25606  0.68247  Biso   1.000  H
  C145     1.0000 0.31836  0.23574  0.65544  Biso   1.000  C
  C146     1.0000 0.39916  0.23178  0.65653  Biso   1.000  C
  C147     1.0000 0.37967  0.27444  0.68661  Biso   1.000  C
  C148     1.0000 0.33197  0.26529  0.67596  Biso   1.000  C
  H117     1.0000 0.28552  0.22647  0.64826  Biso   1.000  H
  O6       1.0000 0.43265  0.21685  0.64689  Biso   1.000  O
  H118     1.0000 0.38923  0.29207  0.70096  Biso   1.000  H
  C149     1.0000 0.29577  0.28340  0.68562  Biso   1.000  C
  H119     1.0000 0.41963  0.20088  0.63457  Biso   1.000  H
  C150     1.0000 0.32071  0.31853  0.70683  Biso   1.000  C
  C151     1.0000 0.28682  0.31655  0.66744  Biso   1.000  C
  C152     1.0000 0.24381  0.23622  0.69211  Biso   1.000  C
  H120     1.0000 0.32604  0.29797  0.71877  Biso   1.000  H
  H121     1.0000 0.35493  0.34916  0.70267  Biso   1.000  H
  H122     1.0000 0.29702  0.33077  0.71257  Biso   1.000  H
  H123     1.0000 0.26174  0.32677  0.67337  Biso   1.000  H
  H124     1.0000 0.32053  0.34836  0.66397  Biso   1.000  H
  H125     1.0000 0.27232  0.29536  0.65356  Biso   1.000  H
  H126     1.0000 0.22392  0.21867  0.67827  Biso   1.000  H
  H127     1.0000 0.25023  0.21146  0.70096  Biso   1.000  H
  H128     1.0000 0.22335  0.24778  0.70137  Biso   1.000  H
  C153     1.0000 0.04995  0.67906  0.35228  Biso   1.000  C
  H129     1.0000 0.98420  0.67244  0.36934  Biso   1.000  H
  H130     1.0000 0.98417  0.67244  0.36934  Biso   1.000  H
  H131     1.0000 0.03539  0.69475  0.38544  Biso   1.000  H
  H132     1.0000 0.00260  0.63295  0.37923  Biso   1.000  H
  H133     1.0000 0.00257  0.63295  0.37923  Biso   1.000  H
  C154     1.0000 0.06806  0.73333  0.34263  Biso   1.000  C
  C155     1.0000 0.01484  0.66888  0.37349  Biso   1.000  C
  C156     1.0000 0.01682  0.63695  0.33410  Biso   1.000  C
  C157     1.0000 0.09709  0.67427  0.35878  Biso   1.000  C
  C158     1.0000 0.05891  0.77191  0.35328  Biso   1.000  C
  C159     1.0000 0.09759  0.74929  0.32211  Biso   1.000  C
  H134     1.0000 0.98501  0.63885  0.33063  Biso   1.000  H
  H135     1.0000 0.98497  0.63885  0.33063  Biso   1.000  H
  H136     1.0000 0.00658  0.60165  0.34003  Biso   1.000  H
  H137     1.0000 0.03800  0.64364  0.32023  Biso   1.000  H
  H138     1.0000 0.00656  0.60161  0.34003  Biso   1.000  H
  H139     1.0000 0.03797  0.64364  0.32023  Biso   1.000  H
  H140     1.0000 0.11469  0.67193  0.34494  Biso   1.000  H
  H141     1.0000 0.12187  0.70544  0.36763  Biso   1.000  H
  H142     1.0000 0.08558  0.64226  0.36804  Biso   1.000  H
  H143     1.0000 0.11465  0.67193  0.34494  Biso   1.000  H
  H144     1.0000 0.08556  0.64222  0.36804  Biso   1.000  H
  C160     1.0000 0.07494  0.82119  0.34342  Biso   1.000  C
  H145     1.0000 0.04125  0.76383  0.36763  Biso   1.000  H
  C161     1.0000 0.11353  0.79806  0.31207  Biso   1.000  C
  C162     1.0000 0.11348  0.79802  0.31207  Biso   1.000  C
  H146     1.0000 0.10687  0.72572  0.31493  Biso   1.000  H
  C163     1.0000 0.06402  0.85910  0.35539  Biso   1.000  C
  C164     1.0000 0.06398  0.85910  0.35539  Biso   1.000  C
  C165     1.0000 0.10157  0.83403  0.32320  Biso   1.000  C
  C166     1.0000 0.10153  0.83403  0.32320  Biso   1.000  C
  C167     1.0000 0.14002  0.80959  0.29030  Biso   1.000  C
  N13      1.0000 0.03700  0.84714  0.37404  Biso   1.000  N
  H147     1.0000 0.07728  0.89353  0.34914  Biso   1.000  H
  H148     1.0000 0.07725  0.89353  0.34914  Biso   1.000  H
  O7       1.0000 0.11649  0.88248  0.31356  Biso   1.000  O
  O8       1.0000 0.11646  0.88248  0.31356  Biso   1.000  O
  N14      1.0000 0.15184  0.85162  0.27865  Biso   1.000  N
  N15      1.0000 0.15180  0.85162  0.27865  Biso   1.000  N
  H149     1.0000 0.14928  0.78503  0.28424  Biso   1.000  H
  C168     1.0000 0.02621  0.88489  0.38451  Biso   1.000  C
  C169     1.0000 0.02615  0.88485  0.38451  Biso   1.000  C
  H150     1.0000 0.13249  0.88545  0.30124  Biso   1.000  H
  C170     1.0000 0.17551  0.85704  0.25633  Biso   1.000  C
  C171     1.0000 0.01886  0.92126  0.37219  Biso   1.000  C
  C172     1.0000 0.02217  0.88259  0.40808  Biso   1.000  C
  C173     1.0000 0.02215  0.88255  0.40808  Biso   1.000  C
  C174     1.0000 0.15625  0.87519  0.23868  Biso   1.000  C
  C175     1.0000 0.15621  0.87519  0.23868  Biso   1.000  C
  C176     1.0000 0.21315  0.84270  0.25244  Biso   1.000  C
  C177     1.0000 0.00909  0.95734  0.38424  Biso   1.000  C
  H151     1.0000 0.02047  0.92193  0.35594  Biso   1.000  H
  C178     1.0000 0.01497  0.91943  0.42020  Biso   1.000  C
  H152     1.0000 0.02437  0.85542  0.41613  Biso   1.000  H
  C179     1.0000 0.17297  0.87495  0.21691  Biso   1.000  C
  C180     1.0000 0.17294  0.87495  0.21691  Biso   1.000  C
  H153     1.0000 0.13210  0.88735  0.24184  Biso   1.000  H
  H154     1.0000 0.13207  0.88735  0.24184  Biso   1.000  H
  C181     1.0000 0.23111  0.84425  0.23029  Biso   1.000  C
  H155     1.0000 0.22676  0.83185  0.26474  Biso   1.000  H
  C182     1.0000 0.99997  0.00005  0.37430  Biso   1.000  C
  C183     1.0000 0.99994  0.00005  0.37430  Biso   1.000  C
  C184     1.0000 0.00910  0.95647  0.40832  Biso   1.000  C
  C185     1.0000 0.00908  0.95643  0.40832  Biso   1.000  C
  H156     1.0000 0.01405  0.91884  0.43643  Biso   1.000  H
  C186     1.0000 0.15408  0.88965  0.19539  Biso   1.000  C
  C187     1.0000 0.15404  0.88965  0.19539  Biso   1.000  C
  C188     1.0000 0.21105  0.85910  0.21216  Biso   1.000  C
  H157     1.0000 0.25760  0.83494  0.22754  Biso   1.000  H
  H158     1.0000 0.25757  0.83494  0.22754  Biso   1.000  H
  C189     1.0000 0.94826  0.99090  0.38424  Biso   1.000  C
  H159     1.0000 0.99997  0.00005  0.35724  Biso   1.000  H
  H160     1.0000 0.99994  0.00005  0.35724  Biso   1.000  H
  C190     1.0000 0.04263  0.05174  0.38424  Biso   1.000  C
  C191     1.0000 0.04260  0.05174  0.38424  Biso   1.000  C
  C192     1.0000 0.99997  0.00005  0.41844  Biso   1.000  C
  C193     1.0000 0.99994  0.00005  0.41844  Biso   1.000  C
  C194     1.0000 0.13314  0.84009  0.18001  Biso   1.000  C
  C195     1.0000 0.13312  0.84005  0.18001  Biso   1.000  C
  H161     1.0000 0.12737  0.90094  0.19833  Biso   1.000  H
  C196     1.0000 0.20316  0.93120  0.18244  Biso   1.000  C
  C197     1.0000 0.20314  0.93116  0.18244  Biso   1.000  C
  C198     1.0000 0.22333  0.85950  0.18745  Biso   1.000  C
  C199     1.0000 0.90243  0.98115  0.37219  Biso   1.000  C
  C200     1.0000 0.90239  0.98115  0.37219  Biso   1.000  C
  C201     1.0000 0.94739  0.99094  0.40832  Biso   1.000  C
  C202     1.0000 0.07874  0.09762  0.37219  Biso   1.000  C
  C203     1.0000 0.04351  0.05262  0.40832  Biso   1.000  C
  H162     1.0000 0.99997  0.00005  0.43554  Biso   1.000  H
  H163     1.0000 0.99994  0.00005  0.43554  Biso   1.000  H
  C204     1.0000 0.08269  0.81343  0.17002  Biso   1.000  C
  C205     1.0000 0.16942  0.82420  0.17571  Biso   1.000  C
  C206     1.0000 0.16936  0.82416  0.17571  Biso   1.000  C
  C207     1.0000 0.24020  0.91500  0.17847  Biso   1.000  C
  C208     1.0000 0.21212  0.97917  0.17509  Biso   1.000  C
  C209     1.0000 0.21208  0.97917  0.17509  Biso   1.000  C
  H164     1.0000 0.24989  0.84805  0.18434  Biso   1.000  H
  C210     1.0000 0.85869  0.97382  0.38451  Biso   1.000  C
  C211     1.0000 0.85871  0.97386  0.38451  Biso   1.000  C
  H165     1.0000 0.90148  0.97953  0.35594  Biso   1.000  H
  C212     1.0000 0.90449  0.98507  0.42020  Biso   1.000  C
  C213     1.0000 0.90447  0.98503  0.42020  Biso   1.000  C
  C214     1.0000 0.11513  0.14131  0.38451  Biso   1.000  C
  H166     1.0000 0.07806  0.09853  0.35594  Biso   1.000  H
  C215     1.0000 0.11510  0.14131  0.38451  Biso   1.000  C
  C216     1.0000 0.08057  0.09552  0.42020  Biso   1.000  C
  C217     1.0000 0.08054  0.09552  0.42020  Biso   1.000  C
  C218     1.0000 0.06896  0.77033  0.15611  Biso   1.000  C
  H167     1.0000 0.05810  0.82504  0.17284  Biso   1.000  H
  H168     1.0000 0.05806  0.82504  0.17284  Biso   1.000  H
  C219     1.0000 0.15572  0.77972  0.16250  Biso   1.000  C
  C220     1.0000 0.15568  0.77972  0.16250  Biso   1.000  C
  C221     1.0000 0.28535  0.94808  0.16632  Biso   1.000  C
  H169     1.0000 0.18690  0.98995  0.17813  Biso   1.000  H
  H170     1.0000 0.18687  0.98995  0.17813  Biso   1.000  H
  C222     1.0000 0.25781  0.01237  0.16313  Biso   1.000  C
  N16      1.0000 0.81013  0.96301  0.37404  Biso   1.000  N
  C223     1.0000 0.86042  0.97783  0.40808  Biso   1.000  C
  C224     1.0000 0.86040  0.97786  0.40808  Biso   1.000  C
  H171     1.0000 0.90479  0.98595  0.43643  Biso   1.000  H
  C225     1.0000 0.11744  0.13961  0.40808  Biso   1.000  C
  C226     1.0000 0.11742  0.13957  0.40808  Biso   1.000  C
  N17      1.0000 0.15290  0.18988  0.37404  Biso   1.000  N
  H172     1.0000 0.08119  0.09524  0.43643  Biso   1.000  H
  H173     1.0000 0.08115  0.09524  0.43643  Biso   1.000  H
  N18      1.0000 0.01996  0.74121  0.14457  Biso   1.000  N
  C227     1.0000 0.10609  0.75353  0.15235  Biso   1.000  C
  H174     1.0000 0.18000  0.76736  0.16043  Biso   1.000  H
  H175     1.0000 0.17995  0.76732  0.16043  Biso   1.000  H
  C228     1.0000 0.29441  0.99672  0.15877  Biso   1.000  C
  H176     1.0000 0.31059  0.93734  0.16313  Biso   1.000  H
  C229     1.0000 0.29437  0.99672  0.15877  Biso   1.000  C
  N19      1.0000 0.26466  0.06367  0.15674  Biso   1.000  N
  N20      1.0000 0.26462  0.06367  0.15674  Biso   1.000  N
  C230     1.0000 0.79511  0.93599  0.35539  Biso   1.000  C
  H177     1.0000 0.83106  0.97565  0.41613  Biso   1.000  H
  H178     1.0000 0.14457  0.16896  0.41613  Biso   1.000  H
  H179     1.0000 0.14455  0.16892  0.41613  Biso   1.000  H
  C231     1.0000 0.14085  0.20489  0.35539  Biso   1.000  C
  C232     1.0000 0.97995  0.74133  0.15209  Biso   1.000  C
  H180     1.0000 0.09699  0.72394  0.14273  Biso   1.000  H
  H181     1.0000 0.32586  0.01934  0.15053  Biso   1.000  H
  C233     1.0000 0.30137  0.09346  0.14314  Biso   1.000  C
  C234     1.0000 0.30130  0.09346  0.14314  Biso   1.000  C
  C235     1.0000 0.74630  0.92510  0.34342  Biso   1.000  C
  C236     1.0000 0.74624  0.92506  0.34342  Biso   1.000  C
  H182     1.0000 0.81626  0.92272  0.34914  Biso   1.000  H
  H183     1.0000 0.10650  0.18374  0.34914  Biso   1.000  H
  C237     1.0000 0.17879  0.25373  0.34342  Biso   1.000  C
  H184     1.0000 0.10643  0.18374  0.34914  Biso   1.000  H
  C238     1.0000 0.17876  0.25373  0.34342  Biso   1.000  C
  C239     1.0000 0.92709  0.71103  0.14124  Biso   1.000  C
  C240     1.0000 0.92706  0.71103  0.14124  Biso   1.000  C
  H185     1.0000 0.98356  0.76173  0.16533  Biso   1.000  H
  H186     1.0000 0.32370  0.08165  0.13683  Biso   1.000  H
  C241     1.0000 0.31009  0.14638  0.13690  Biso   1.000  C
  H187     1.0000 0.32367  0.08165  0.13683  Biso   1.000  H
  C242     1.0000 0.31007  0.14634  0.13690  Biso   1.000  C
  C243     1.0000 0.73251  0.89848  0.32320  Biso   1.000  C
  C244     1.0000 0.73249  0.89844  0.32320  Biso   1.000  C
  C245     1.0000 0.71300  0.94110  0.35328  Biso   1.000  C
  C246     1.0000 0.22812  0.28701  0.35328  Biso   1.000  C
  C247     1.0000 0.16599  0.26752  0.32320  Biso   1.000  C
  C248     1.0000 0.16592  0.26752  0.32320  Biso   1.000  C
  C249     1.0000 0.88676  0.72093  0.14725  Biso   1.000  C
  C250     1.0000 0.91688  0.67090  0.12533  Biso   1.000  C
  C251     1.0000 0.91686  0.67086  0.12533  Biso   1.000  C
  C252     1.0000 0.91684  0.67090  0.12533  Biso   1.000  C
  C253     1.0000 0.27910  0.16583  0.14725  Biso   1.000  C
  C254     1.0000 0.34871  0.17633  0.12183  Biso   1.000  C
  C255     1.0000 0.27903  0.16583  0.14725  Biso   1.000  C
  C256     1.0000 0.34869  0.17629  0.12183  Biso   1.000  C
  C257     1.0000 0.68454  0.88652  0.31207  Biso   1.000  C
  O9       1.0000 0.76604  0.88354  0.31356  Biso   1.000  O
  O10      1.0000 0.76598  0.88350  0.31356  Biso   1.000  O
  C258     1.0000 0.66530  0.93195  0.34263  Biso   1.000  C
  H188     1.0000 0.72256  0.95873  0.36763  Biso   1.000  H
  H189     1.0000 0.23619  0.27742  0.36763  Biso   1.000  H
  C259     1.0000 0.26671  0.33474  0.34263  Biso   1.000  C
  H190     1.0000 0.23616  0.27742  0.36763  Biso   1.000  H
  C260     1.0000 0.26662  0.33471  0.34263  Biso   1.000  C
  C261     1.0000 0.20196  0.31545  0.31207  Biso   1.000  C
  O11      1.0000 0.11750  0.23401  0.31356  Biso   1.000  O
  C262     1.0000 0.83628  0.68995  0.13690  Biso   1.000  C
  O12      1.0000 0.89718  0.76015  0.16241  Biso   1.000  O
  O13      1.0000 0.89716  0.76011  0.16241  Biso   1.000  O
  C263     1.0000 0.86713  0.63933  0.11538  Biso   1.000  C
  H191     1.0000 0.94497  0.66492  0.12113  Biso   1.000  H
  H192     1.0000 0.94495  0.66496  0.12113  Biso   1.000  H
  C264     1.0000 0.28898  0.21606  0.14124  Biso   1.000  C
  O14      1.0000 0.23989  0.13703  0.16241  Biso   1.000  O
  H193     1.0000 0.36875  0.16215  0.11533  Biso   1.000  H
  C265     1.0000 0.36064  0.22779  0.11538  Biso   1.000  C
  C266     1.0000 0.66958  0.85997  0.29030  Biso   1.000  C
  C267     1.0000 0.66955  0.85997  0.29030  Biso   1.000  C
  C268     1.0000 0.65171  0.90244  0.32211  Biso   1.000  C
  H194     1.0000 0.75296  0.86754  0.30124  Biso   1.000  H
  C269     1.0000 0.62915  0.95010  0.35228  Biso   1.000  C
  C270     1.0000 0.62910  0.95006  0.35228  Biso   1.000  C
  C271     1.0000 0.32093  0.37087  0.35228  Biso   1.000  C
  C272     1.0000 0.25070  0.34829  0.32211  Biso   1.000  C
  C273     1.0000 0.25067  0.34829  0.32211  Biso   1.000  C
  C274     1.0000 0.19041  0.33043  0.29030  Biso   1.000  C
  H195     1.0000 0.11455  0.24704  0.30124  Biso   1.000  H
  C275     1.0000 0.79213  0.69867  0.14314  Biso   1.000  C
  C276     1.0000 0.82764  0.65133  0.12183  Biso   1.000  C
  C277     1.0000 0.82758  0.65129  0.12183  Biso   1.000  C
  H196     1.0000 0.86969  0.76205  0.16453  Biso   1.000  H
  C278     1.0000 0.85393  0.59524  0.09843  Biso   1.000  C
  C279     1.0000 0.85390  0.59524  0.09843  Biso   1.000  C
  C280     1.0000 0.25869  0.23864  0.15209  Biso   1.000  C
  C281     1.0000 0.25866  0.23864  0.15209  Biso   1.000  C
  C282     1.0000 0.32915  0.24597  0.12533  Biso   1.000  C
  C283     1.0000 0.32908  0.24597  0.12533  Biso   1.000  C
  H197     1.0000 0.23796  0.10764  0.16453  Biso   1.000  H
  C284     1.0000 0.40474  0.25869  0.09843  Biso   1.000  C
  N21      1.0000 0.69983  0.84821  0.27865  Biso   1.000  N
  N22      1.0000 0.69979  0.84821  0.27865  Biso   1.000  N
  H198     1.0000 0.63577  0.85074  0.28424  Biso   1.000  H
  H199     1.0000 0.61885  0.89313  0.31493  Biso   1.000  H
  C285     1.0000 0.62015  0.98321  0.33410  Biso   1.000  C
  C286     1.0000 0.57719  0.90292  0.35878  Biso   1.000  C
  C287     1.0000 0.65404  0.98519  0.37349  Biso   1.000  C
  C288     1.0000 0.57714  0.90288  0.35878  Biso   1.000  C
  C289     1.0000 0.33111  0.34596  0.37349  Biso   1.000  C
  C290     1.0000 0.36309  0.37986  0.33410  Biso   1.000  C
  C291     1.0000 0.32575  0.42285  0.35878  Biso   1.000  C
  C292     1.0000 0.36303  0.37986  0.33410  Biso   1.000  C
  H200     1.0000 0.27429  0.38113  0.31493  Biso   1.000  H
  H201     1.0000 0.27426  0.38113  0.31493  Biso   1.000  H
  N23      1.0000 0.14837  0.30020  0.27865  Biso   1.000  N
  H202     1.0000 0.21501  0.36426  0.28424  Biso   1.000  H
  H203     1.0000 0.21492  0.36422  0.28424  Biso   1.000  H
  N24      1.0000 0.79901  0.73535  0.15674  Biso   1.000  N
  N25      1.0000 0.79898  0.73535  0.15674  Biso   1.000  N
  H204     1.0000 0.75797  0.67633  0.13683  Biso   1.000  H
  H205     1.0000 0.79334  0.63124  0.11533  Biso   1.000  H
  C293     1.0000 0.90307  0.58826  0.09436  Biso   1.000  C
  C294     1.0000 0.84106  0.61100  0.07493  Biso   1.000  C
  C295     1.0000 0.81040  0.54453  0.10665  Biso   1.000  C
  C296     1.0000 0.84103  0.61100  0.07493  Biso   1.000  C
  C297     1.0000 0.90304  0.58826  0.09436  Biso   1.000  C
  N26      1.0000 0.25877  0.27873  0.14457  Biso   1.000  N
  H206     1.0000 0.23829  0.22185  0.16533  Biso   1.000  H
  H207     1.0000 0.33510  0.28004  0.12113  Biso   1.000  H
  H208     1.0000 0.33503  0.28004  0.12113  Biso   1.000  H
  C298     1.0000 0.41174  0.31482  0.09436  Biso   1.000  C
  C299     1.0000 0.45546  0.26586  0.10665  Biso   1.000  C
  C300     1.0000 0.38901  0.23005  0.07493  Biso   1.000  C
  C301     1.0000 0.41172  0.31478  0.09436  Biso   1.000  C
  C302     1.0000 0.68153  0.82452  0.25633  Biso   1.000  C
  C303     1.0000 0.68151  0.82448  0.25633  Biso   1.000  C
  H209     1.0000 0.59507  0.99343  0.34003  Biso   1.000  H
  H210     1.0000 0.60570  0.96206  0.32023  Biso   1.000  H
  H211     1.0000 0.60565  0.96202  0.32023  Biso   1.000  H
  H212     1.0000 0.65386  0.01502  0.33063  Biso   1.000  H
  H213     1.0000 0.65937  0.96463  0.38544  Biso   1.000  H
  H214     1.0000 0.63035  0.99743  0.37923  Biso   1.000  H
  H215     1.0000 0.68831  0.01585  0.36934  Biso   1.000  H
  H216     1.0000 0.68822  0.01581  0.36934  Biso   1.000  H
  H217     1.0000 0.55668  0.91444  0.36804  Biso   1.000  H
  H218     1.0000 0.55728  0.88533  0.34494  Biso   1.000  H
  H219     1.0000 0.58361  0.87816  0.36763  Biso   1.000  H
  H220     1.0000 0.55725  0.88533  0.34494  Biso   1.000  H
  H221     1.0000 0.58356  0.87812  0.36763  Biso   1.000  H
  H222     1.0000 0.30530  0.34065  0.38544  Biso   1.000  H
  H223     1.0000 0.32755  0.31173  0.36934  Biso   1.000  H
  H224     1.0000 0.36708  0.36964  0.37923  Biso   1.000  H
  H225     1.0000 0.30527  0.34065  0.38544  Biso   1.000  H
  H226     1.0000 0.32752  0.31173  0.36934  Biso   1.000  H
  H227     1.0000 0.35636  0.39432  0.32023  Biso   1.000  H
  H228     1.0000 0.39838  0.40494  0.34003  Biso   1.000  H
  H229     1.0000 0.36120  0.34615  0.33063  Biso   1.000  H
  H230     1.0000 0.36111  0.34611  0.33063  Biso   1.000  H
  H231     1.0000 0.32804  0.44273  0.34494  Biso   1.000  H
  H232     1.0000 0.29455  0.41643  0.36763  Biso   1.000  H
  H233     1.0000 0.35774  0.44333  0.36804  Biso   1.000  H
  C304     1.0000 0.14301  0.31850  0.25633  Biso   1.000  C
  C305     1.0000 0.14295  0.31846  0.25633  Biso   1.000  C
  C306     1.0000 0.75458  0.74220  0.16313  Biso   1.000  C
  H234     1.0000 0.89278  0.55705  0.08483  Biso   1.000  H
  H235     1.0000 0.93100  0.61976  0.08664  Biso   1.000  H
  H236     1.0000 0.93094  0.61972  0.08664  Biso   1.000  H
  H237     1.0000 0.91626  0.58363  0.10903  Biso   1.000  H
  H238     1.0000 0.80687  0.51593  0.09674  Biso   1.000  H
  H239     1.0000 0.81799  0.53823  0.12234  Biso   1.000  H
  H240     1.0000 0.77727  0.54552  0.10643  Biso   1.000  H
  H241     1.0000 0.81795  0.53823  0.12234  Biso   1.000  H
  H242     1.0000 0.82638  0.58034  0.06463  Biso   1.000  H
  H243     1.0000 0.87358  0.63996  0.06824  Biso   1.000  H
  H244     1.0000 0.87356  0.63992  0.06824  Biso   1.000  H
  H245     1.0000 0.81505  0.62265  0.07704  Biso   1.000  H
  C307     1.0000 0.22966  0.29866  0.15611  Biso   1.000  C
  C308     1.0000 0.22964  0.29862  0.15611  Biso   1.000  C
  H246     1.0000 0.44295  0.33574  0.08483  Biso   1.000  H
  H247     1.0000 0.41637  0.33265  0.10903  Biso   1.000  H
  H248     1.0000 0.38023  0.31121  0.08664  Biso   1.000  H
  H249     1.0000 0.45450  0.23175  0.10643  Biso   1.000  H
  H250     1.0000 0.48409  0.29093  0.09674  Biso   1.000  H
  H251     1.0000 0.45446  0.23175  0.10643  Biso   1.000  H
  H252     1.0000 0.48405  0.29093  0.09674  Biso   1.000  H
  H253     1.0000 0.46174  0.27972  0.12234  Biso   1.000  H
  H254     1.0000 0.37739  0.19245  0.07704  Biso   1.000  H
  H255     1.0000 0.36008  0.23365  0.06824  Biso   1.000  H
  H256     1.0000 0.41966  0.24605  0.06463  Biso   1.000  H
  C309     1.0000 0.62959  0.78685  0.25244  Biso   1.000  C
  C310     1.0000 0.62956  0.78685  0.25244  Biso   1.000  C
  C311     1.0000 0.71900  0.84381  0.23868  Biso   1.000  C
  C312     1.0000 0.71895  0.84377  0.23868  Biso   1.000  C
  C313     1.0000 0.12482  0.28103  0.23868  Biso   1.000  C
  C314     1.0000 0.15731  0.37044  0.25244  Biso   1.000  C
  C315     1.0000 0.15724  0.37044  0.25244  Biso   1.000  C
  C316     1.0000 0.76711  0.78792  0.17509  Biso   1.000  C
  C317     1.0000 0.76708  0.78792  0.17509  Biso   1.000  C
  C318     1.0000 0.70231  0.70560  0.15877  Biso   1.000  C
  C319     1.0000 0.18657  0.26930  0.17002  Biso   1.000  C
  C320     1.0000 0.24646  0.35257  0.15235  Biso   1.000  C
  C321     1.0000 0.61317  0.76890  0.23029  Biso   1.000  C
  H257     1.0000 0.60509  0.77326  0.26474  Biso   1.000  H
  H258     1.0000 0.60507  0.77322  0.26474  Biso   1.000  H
  C322     1.0000 0.70201  0.82706  0.21691  Biso   1.000  C
  H259     1.0000 0.75528  0.86794  0.24184  Biso   1.000  H
  C323     1.0000 0.12506  0.29798  0.21691  Biso   1.000  C
  C324     1.0000 0.12503  0.29798  0.21691  Biso   1.000  C
  H260     1.0000 0.11265  0.24474  0.24184  Biso   1.000  H
  C325     1.0000 0.15573  0.38684  0.23029  Biso   1.000  C
  H261     1.0000 0.16814  0.39492  0.26474  Biso   1.000  H
  C326     1.0000 0.72805  0.79687  0.18244  Biso   1.000  C
  C327     1.0000 0.72802  0.79687  0.18244  Biso   1.000  C
  H262     1.0000 0.80309  0.81315  0.17813  Biso   1.000  H
  C328     1.0000 0.66275  0.71463  0.16632  Biso   1.000  C
  C329     1.0000 0.66271  0.71463  0.16632  Biso   1.000  C
  H263     1.0000 0.69348  0.67415  0.15053  Biso   1.000  H
  C330     1.0000 0.15997  0.29307  0.18001  Biso   1.000  C
  C331     1.0000 0.15990  0.29307  0.18001  Biso   1.000  C
  H264     1.0000 0.17500  0.23306  0.17284  Biso   1.000  H
  H265     1.0000 0.17492  0.23302  0.17284  Biso   1.000  H
  C332     1.0000 0.22033  0.37598  0.16250  Biso   1.000  C
  C333     1.0000 0.22026  0.37598  0.16250  Biso   1.000  C
  H266     1.0000 0.27605  0.37305  0.14273  Biso   1.000  H
  C334     1.0000 0.64807  0.78895  0.21216  Biso   1.000  C
  H267     1.0000 0.57737  0.74244  0.22754  Biso   1.000  H
  C335     1.0000 0.64801  0.78891  0.21216  Biso   1.000  C
  C336     1.0000 0.64803  0.78895  0.21216  Biso   1.000  C
  C337     1.0000 0.73561  0.84595  0.19539  Biso   1.000  C
  C338     1.0000 0.73556  0.84591  0.19539  Biso   1.000  C
  C339     1.0000 0.11038  0.26443  0.19539  Biso   1.000  C
  C340     1.0000 0.11034  0.26443  0.19539  Biso   1.000  C
  C341     1.0000 0.14091  0.35198  0.21216  Biso   1.000  C
  H268     1.0000 0.16506  0.42265  0.22754  Biso   1.000  H
  C342     1.0000 0.67479  0.75979  0.17847  Biso   1.000  C
  H269     1.0000 0.62675  0.68944  0.16313  Biso   1.000  H
  C343     1.0000 0.17581  0.34520  0.17571  Biso   1.000  C
  H270     1.0000 0.23264  0.41263  0.16043  Biso   1.000  H
  C344     1.0000 0.63622  0.77671  0.18745  Biso   1.000  C
  C345     1.0000 0.63616  0.77667  0.18745  Biso   1.000  C
  H271     1.0000 0.77359  0.87265  0.19833  Biso   1.000  H
  C346     1.0000 0.70698  0.86691  0.18001  Biso   1.000  C
  C347     1.0000 0.70692  0.86687  0.18001  Biso   1.000  C
  C348     1.0000 0.06882  0.27196  0.18244  Biso   1.000  C
  H272     1.0000 0.09907  0.22644  0.19833  Biso   1.000  H
  C349     1.0000 0.14049  0.36382  0.18745  Biso   1.000  C
  C350     1.0000 0.65480  0.83062  0.17571  Biso   1.000  C
  H273     1.0000 0.59816  0.75013  0.18434  Biso   1.000  H
  C351     1.0000 0.73073  0.91730  0.17002  Biso   1.000  C
  C352     1.0000 0.73070  0.91730  0.17002  Biso   1.000  C
  C353     1.0000 0.02084  0.23294  0.17509  Biso   1.000  C
  C354     1.0000 0.08498  0.32520  0.17847  Biso   1.000  C
  H274     1.0000 0.15199  0.40185  0.18434  Biso   1.000  H
  C355     1.0000 0.62402  0.84433  0.16250  Biso   1.000  C
  C356     1.0000 0.70138  0.93104  0.15611  Biso   1.000  C
  H275     1.0000 0.76696  0.94194  0.17284  Biso   1.000  H
  C357     1.0000 0.98765  0.24546  0.16313  Biso   1.000  C
  C358     1.0000 0.98759  0.24542  0.16313  Biso   1.000  C
  H276     1.0000 0.01007  0.19693  0.17813  Biso   1.000  H
  C359     1.0000 0.05191  0.33728  0.16632  Biso   1.000  C
  C360     1.0000 0.05188  0.33728  0.16632  Biso   1.000  C
  H277     1.0000 0.58739  0.82004  0.16043  Biso   1.000  H
  C361     1.0000 0.64745  0.89392  0.15235  Biso   1.000  C
  N27      1.0000 0.72125  0.98004  0.14457  Biso   1.000  N
  N28      1.0000 0.93633  0.20101  0.15674  Biso   1.000  N
  C362     1.0000 0.00331  0.29771  0.15877  Biso   1.000  C
  H278     1.0000 0.06262  0.37325  0.16313  Biso   1.000  H
  H279     1.0000 0.62699  0.90303  0.14273  Biso   1.000  H
  H280     1.0000 0.62696  0.90303  0.14273  Biso   1.000  H
  C363     1.0000 0.76137  0.02001  0.15209  Biso   1.000  C
  C364     1.0000 0.76130  0.02001  0.15209  Biso   1.000  C
  C365     1.0000 0.90650  0.20790  0.14314  Biso   1.000  C
  H281     1.0000 0.98066  0.30654  0.15053  Biso   1.000  H
  H282     1.0000 0.77818  0.01645  0.16533  Biso   1.000  H
  C366     1.0000 0.78399  0.07294  0.14124  Biso   1.000  C
  C367     1.0000 0.78392  0.07294  0.14124  Biso   1.000  C
  C368     1.0000 0.85368  0.16373  0.13690  Biso   1.000  C
  C369     1.0000 0.85361  0.16373  0.13690  Biso   1.000  C
  H283     1.0000 0.91839  0.24205  0.13683  Biso   1.000  H
  H284     1.0000 0.91832  0.24205  0.13683  Biso   1.000  H
  C370     1.0000 0.83421  0.11326  0.14725  Biso   1.000  C
  C371     1.0000 0.75400  0.08316  0.12533  Biso   1.000  C
  C372     1.0000 0.83419  0.11322  0.14725  Biso   1.000  C
  C373     1.0000 0.82371  0.17241  0.12183  Biso   1.000  C
  O15      1.0000 0.86299  0.10285  0.16241  Biso   1.000  O
  O16      1.0000 0.86296  0.10285  0.16241  Biso   1.000  O
  C374     1.0000 0.77221  0.13287  0.11538  Biso   1.000  C
  H285     1.0000 0.71994  0.05503  0.12113  Biso   1.000  H
  C375     1.0000 0.77217  0.13287  0.11538  Biso   1.000  C
  H286     1.0000 0.83787  0.20663  0.11533  Biso   1.000  H
  H287     1.0000 0.89235  0.13034  0.16453  Biso   1.000  H
  C376     1.0000 0.74133  0.14610  0.09843  Biso   1.000  C
  C377     1.0000 0.74127  0.14606  0.09843  Biso   1.000  C
  C378     1.0000 0.68524  0.09698  0.09436  Biso   1.000  C
  C379     1.0000 0.73412  0.18960  0.10665  Biso   1.000  C
  C380     1.0000 0.76999  0.15898  0.07493  Biso   1.000  C
  C381     1.0000 0.68518  0.09694  0.09436  Biso   1.000  C
  C382     1.0000 0.76992  0.15898  0.07493  Biso   1.000  C
  H288     1.0000 0.68880  0.06906  0.08664  Biso   1.000  H
  H289     1.0000 0.66423  0.10724  0.08483  Biso   1.000  H
  H290     1.0000 0.68872  0.06902  0.08664  Biso   1.000  H
  H291     1.0000 0.66737  0.08375  0.10903  Biso   1.000  H
  H292     1.0000 0.76830  0.22276  0.10643  Biso   1.000  H
  H293     1.0000 0.72028  0.18203  0.12234  Biso   1.000  H
  H294     1.0000 0.76821  0.22272  0.10643  Biso   1.000  H
  H295     1.0000 0.70905  0.19313  0.09674  Biso   1.000  H
  H296     1.0000 0.75396  0.17364  0.06463  Biso   1.000  H
  H297     1.0000 0.80753  0.18493  0.07704  Biso   1.000  H
  H298     1.0000 0.76636  0.12646  0.06824  Biso   1.000  H
  H299     1.0000 0.76634  0.12642  0.06824  Biso   1.000  H
  C383     1.0000 0.59920  0.47707  0.56002  Biso   1.000  C
  C384     1.0000 0.59199  0.52056  0.56824  Biso   1.000  C
  H300     1.0000 0.56507  0.44395  0.56024  Biso   1.000  H
  H301     1.0000 0.62426  0.47354  0.56993  Biso   1.000  H
  H302     1.0000 0.61307  0.48463  0.54433  Biso   1.000  H
  C385     1.0000 0.56111  0.53379  0.55128  Biso   1.000  C
  C386     1.0000 0.64811  0.56969  0.57230  Biso   1.000  C
  C387     1.0000 0.56336  0.50769  0.59173  Biso   1.000  C
  C388     1.0000 0.50964  0.49426  0.54484  Biso   1.000  C
  C389     1.0000 0.57931  0.58351  0.54134  Biso   1.000  C
  H303     1.0000 0.66906  0.55943  0.58184  Biso   1.000  H
  H304     1.0000 0.64457  0.59765  0.58003  Biso   1.000  H
  H305     1.0000 0.66595  0.58292  0.55764  Biso   1.000  H
  H306     1.0000 0.52579  0.48174  0.58963  Biso   1.000  H
  H307     1.0000 0.56698  0.54025  0.59843  Biso   1.000  H
  H308     1.0000 0.57936  0.49303  0.60204  Biso   1.000  H
  C390     1.0000 0.47967  0.50294  0.52977  Biso   1.000  C
  H309     1.0000 0.49548  0.46003  0.55133  Biso   1.000  H
  C391     1.0000 0.54936  0.59373  0.52543  Biso   1.000  C
  H310     1.0000 0.61338  0.61164  0.54554  Biso   1.000  H
  C392     1.0000 0.42678  0.45877  0.52353  Biso   1.000  C
  C393     1.0000 0.49915  0.55340  0.51941  Biso   1.000  C
  C394     1.0000 0.57198  0.64665  0.51458  Biso   1.000  C
  N29      1.0000 0.39699  0.46566  0.50993  Biso   1.000  N
  H311     1.0000 0.41496  0.42462  0.52984  Biso   1.000  H
  O17      1.0000 0.47036  0.56382  0.50426  Biso   1.000  O
  N30      1.0000 0.61207  0.68662  0.52210  Biso   1.000  N
  H312     1.0000 0.55517  0.65022  0.50133  Biso   1.000  H
  C395     1.0000 0.34569  0.42125  0.50354  Biso   1.000  C
  H313     1.0000 0.44097  0.53633  0.50214  Biso   1.000  H
  C396     1.0000 0.63197  0.73563  0.51056  Biso   1.000  C
  C397     1.0000 0.31251  0.43373  0.49158  Biso   1.000  C
  C398     1.0000 0.33004  0.36896  0.50790  Biso   1.000  C
  C399     1.0000 0.68590  0.77274  0.51432  Biso   1.000  C
  C400     1.0000 0.60262  0.74937  0.49665  Biso   1.000  C
  C401     1.0000 0.26449  0.39471  0.48423  Biso   1.000  C
  H314     1.0000 0.32328  0.46974  0.48853  Biso   1.000  H
  C402     1.0000 0.28140  0.32939  0.50034  Biso   1.000  C
  H315     1.0000 0.35266  0.36013  0.51613  Biso   1.000  H
  C403     1.0000 0.70929  0.82234  0.50417  Biso   1.000  C
  H316     1.0000 0.70636  0.76363  0.52394  Biso   1.000  H
  H317     1.0000 0.56635  0.72473  0.49383  Biso   1.000  H
  C404     1.0000 0.62639  0.79980  0.48665  Biso   1.000  C
  C405     1.0000 0.22297  0.40224  0.47127  Biso   1.000  C
  C406     1.0000 0.24834  0.34147  0.48819  Biso   1.000  C
  H318     1.0000 0.27066  0.29342  0.50354  Biso   1.000  H
  C407     1.0000 0.67855  0.83605  0.49096  Biso   1.000  C
  H319     1.0000 0.74596  0.84662  0.50624  Biso   1.000  H
  C408     1.0000 0.59776  0.82076  0.47127  Biso   1.000  C
  C409     1.0000 0.20829  0.36868  0.44976  Biso   1.000  C
  H320     1.0000 0.23425  0.44023  0.46833  Biso   1.000  H
  C410     1.0000 0.17338  0.37360  0.48665  Biso   1.000  C
  C411     1.0000 0.19283  0.30285  0.47922  Biso   1.000  C
  C412     1.0000 0.69715  0.89000  0.47922  Biso   1.000  C
  C413     1.0000 0.63134  0.83961  0.44976  Biso   1.000  C
  H321     1.0000 0.55976  0.79402  0.46833  Biso   1.000  H
  C414     1.0000 0.60530  0.86980  0.48423  Biso   1.000  C
  C415     1.0000 0.20850  0.38564  0.42799  Biso   1.000  C
  C416     1.0000 0.19244  0.31469  0.45451  Biso   1.000  C
  C417     1.0000 0.15751  0.32147  0.49096  Biso   1.000  C
  C418     1.0000 0.14674  0.39737  0.49665  Biso   1.000  C
  H322     1.0000 0.18136  0.26482  0.48233  Biso   1.000  H
  C419     1.0000 0.68530  0.87776  0.45451  Biso   1.000  C
  C420     1.0000 0.65856  0.90688  0.48819  Biso   1.000  C
  H323     1.0000 0.73516  0.91654  0.48233  Biso   1.000  H
  C421     1.0000 0.61437  0.82290  0.42799  Biso   1.000  C
  C422     1.0000 0.56624  0.87875  0.49158  Biso   1.000  C
  C423     1.0000 0.19034  0.34817  0.41034  Biso   1.000  C
  H324     1.0000 0.22067  0.42193  0.42483  Biso   1.000  H
  C424     1.0000 0.17758  0.27983  0.43638  Biso   1.000  C
  C425     1.0000 0.11303  0.29069  0.50417  Biso   1.000  C
  C426     1.0000 0.10368  0.36805  0.51056  Biso   1.000  C
  H325     1.0000 0.15837  0.43365  0.49383  Biso   1.000  H
  C427     1.0000 0.72018  0.89777  0.43638  Biso   1.000  C
  C428     1.0000 0.67060  0.95204  0.50034  Biso   1.000  C
  C429     1.0000 0.65184  0.84219  0.41034  Biso   1.000  C
  H326     1.0000 0.57807  0.79873  0.42483  Biso   1.000  H
  H327     1.0000 0.53026  0.85352  0.48853  Biso   1.000  H
  C430     1.0000 0.57877  0.92447  0.50354  Biso   1.000  C
  N31      1.0000 0.18495  0.36647  0.38802  Biso   1.000  N
  C431     1.0000 0.17604  0.29623  0.41423  Biso   1.000  C
  H328     1.0000 0.16826  0.24402  0.43913  Biso   1.000  H
  H329     1.0000 0.10067  0.25404  0.50624  Biso   1.000  H
  C432     1.0000 0.08686  0.31410  0.51432  Biso   1.000  C
  N32      1.0000 0.07455  0.38794  0.52210  Biso   1.000  N
  C433     1.0000 0.70376  0.87982  0.41423  Biso   1.000  C
  H330     1.0000 0.75595  0.92423  0.43913  Biso   1.000  H
  C434     1.0000 0.63104  0.96107  0.50790  Biso   1.000  C
  H331     1.0000 0.70656  0.97723  0.50354  Biso   1.000  H
  N33      1.0000 0.63353  0.81846  0.38802  Biso   1.000  N
  N34      1.0000 0.53434  0.93132  0.50993  Biso   1.000  N
  C435     1.0000 0.14294  0.33624  0.37636  Biso   1.000  C
  H332     1.0000 0.16517  0.27175  0.40193  Biso   1.000  H
  H333     1.0000 0.05727  0.29362  0.52394  Biso   1.000  H
  C436     1.0000 0.07466  0.42803  0.51458  Biso   1.000  C
  H334     1.0000 0.72828  0.89345  0.40193  Biso   1.000  H
  H335     1.0000 0.63987  0.99252  0.51613  Biso   1.000  H
  C437     1.0000 0.66377  0.80669  0.37636  Biso   1.000  C
  C438     1.0000 0.54122  0.96800  0.52353  Biso   1.000  C
  C439     1.0000 0.13139  0.35122  0.35459  Biso   1.000  C
  H336     1.0000 0.11836  0.30245  0.38243  Biso   1.000  H
  H337     1.0000 0.09507  0.44482  0.50133  Biso   1.000  H
  C440     1.0000 0.04437  0.45061  0.52543  Biso   1.000  C
  C441     1.0000 0.64878  0.78015  0.35459  Biso   1.000  C
  H338     1.0000 0.69758  0.81592  0.38243  Biso   1.000  H
  C442     1.0000 0.49704  0.97672  0.52977  Biso   1.000  C
  H339     1.0000 0.57538  0.99034  0.52984  Biso   1.000  H
  C443     1.0000 0.08262  0.31838  0.34456  Biso   1.000  C
  C444     1.0000 0.16736  0.39915  0.34347  Biso   1.000  C
  C445     1.0000 0.05425  0.50084  0.51941  Biso   1.000  C
  C446     1.0000 0.00420  0.42070  0.54134  Biso   1.000  C
  C447     1.0000 0.60086  0.76823  0.34347  Biso   1.000  C
  C448     1.0000 0.68161  0.76423  0.34456  Biso   1.000  C
  C449     1.0000 0.44659  0.94574  0.51941  Biso   1.000  C
  C450     1.0000 0.50570  0.01538  0.54484  Biso   1.000  C
  C451     1.0000 0.06666  0.33196  0.32404  Biso   1.000  C
  H340     1.0000 0.05906  0.28554  0.35174  Biso   1.000  H
  C452     1.0000 0.15453  0.41293  0.32325  Biso   1.000  C
  O18      1.0000 0.21582  0.43266  0.35311  Biso   1.000  O
  O19      1.0000 0.09346  0.52964  0.50426  Biso   1.000  O
  C453     1.0000 0.02328  0.52033  0.52977  Biso   1.000  C
  C454     1.0000 0.97267  0.43888  0.55128  Biso   1.000  C
  H341     1.0000 0.99825  0.38663  0.54554  Biso   1.000  H
  C455     1.0000 0.58707  0.74161  0.32325  Biso   1.000  C
  O20      1.0000 0.56731  0.78312  0.35311  Biso   1.000  O
  C456     1.0000 0.66805  0.73472  0.32404  Biso   1.000  C
  H342     1.0000 0.71446  0.77354  0.35174  Biso   1.000  H
  C457     1.0000 0.40626  0.95564  0.52543  Biso   1.000  C
  O21      1.0000 0.43620  0.90656  0.50426  Biso   1.000  O
  C458     1.0000 0.46623  0.02734  0.55128  Biso   1.000  C
  H343     1.0000 0.53994  0.03542  0.55133  Biso   1.000  H
  C459     1.0000 0.01239  0.29580  0.31438  Biso   1.000  C
  C460     1.0000 0.10523  0.37966  0.31339  Biso   1.000  C
  C461     1.0000 0.19243  0.46178  0.31127  Biso   1.000  C
  H344     1.0000 0.21877  0.41963  0.36543  Biso   1.000  H
  H345     1.0000 0.09536  0.55903  0.50214  Biso   1.000  H
  C462     1.0000 0.03198  0.57321  0.52353  Biso   1.000  C
  C463     1.0000 0.98463  0.49038  0.54484  Biso   1.000  C
  C464     1.0000 0.92858  0.40798  0.56824  Biso   1.000  C
  C465     1.0000 0.53824  0.73068  0.31127  Biso   1.000  C
  C466     1.0000 0.62032  0.72557  0.31339  Biso   1.000  C
  H346     1.0000 0.58036  0.79913  0.36543  Biso   1.000  H
  C467     1.0000 0.70422  0.71661  0.31438  Biso   1.000  C
  C468     1.0000 0.35337  0.92534  0.51458  Biso   1.000  C
  C469     1.0000 0.41650  0.99581  0.54134  Biso   1.000  C
  H347     1.0000 0.46366  0.90462  0.50214  Biso   1.000  H
  C470     1.0000 0.47942  0.07143  0.56824  Biso   1.000  C
  C471     1.0000 0.00760  0.24382  0.30789  Biso   1.000  C
  C472     1.0000 0.00220  0.32071  0.29317  Biso   1.000  C
  C473     1.0000 0.97026  0.28680  0.33256  Biso   1.000  C
  H348     1.0000 0.09716  0.38924  0.29904  Biso   1.000  H
  N35      1.0000 0.18045  0.47679  0.29263  Biso   1.000  N
  H349     1.0000 0.22685  0.48293  0.31753  Biso   1.000  H
  N36      1.0000 0.06866  0.60300  0.50993  Biso   1.000  N
  H350     1.0000 0.00965  0.58502  0.52984  Biso   1.000  H
  H351     1.0000 0.96457  0.50452  0.55133  Biso   1.000  H
  C474     1.0000 0.92160  0.35189  0.57230  Biso   1.000  C
  C475     1.0000 0.87789  0.40081  0.56002  Biso   1.000  C
  C476     1.0000 0.94434  0.43662  0.59173  Biso   1.000  C
  N37      1.0000 0.52319  0.70366  0.29263  Biso   1.000  N
  H352     1.0000 0.51709  0.74395  0.31753  Biso   1.000  H
  H353     1.0000 0.61075  0.70794  0.29904  Biso   1.000  H
  C477     1.0000 0.67927  0.68147  0.29317  Biso   1.000  C
  C478     1.0000 0.71320  0.68346  0.33256  Biso   1.000  C
  C479     1.0000 0.75618  0.76379  0.30789  Biso   1.000  C
  N38      1.0000 0.31339  0.92546  0.52210  Biso   1.000  N
  H354     1.0000 0.34975  0.90494  0.50133  Biso   1.000  H
  H355     1.0000 0.38835  0.00175  0.54554  Biso   1.000  H
  C480     1.0000 0.43028  0.07840  0.57230  Biso   1.000  C
  C481     1.0000 0.52295  0.12214  0.56002  Biso   1.000  C
  C482     1.0000 0.49229  0.05567  0.59173  Biso   1.000  C
  H356     1.0000 0.00528  0.22394  0.32173  Biso   1.000  H
  H357     1.0000 0.03877  0.25024  0.29904  Biso   1.000  H
  H358     1.0000 0.97558  0.22334  0.29863  Biso   1.000  H
  H359     1.0000 0.02805  0.32602  0.28123  Biso   1.000  H
  H360     1.0000 0.00577  0.35494  0.29733  Biso   1.000  H
  H361     1.0000 0.96628  0.29702  0.28743  Biso   1.000  H
  H362     1.0000 0.93497  0.26173  0.32663  Biso   1.000  H
  H363     1.0000 0.97215  0.32051  0.33603  Biso   1.000  H
  H364     1.0000 0.97696  0.27234  0.34644  Biso   1.000  H
  C483     1.0000 0.21818  0.52536  0.28215  Biso   1.000  C
  C484     1.0000 0.07555  0.65430  0.50354  Biso   1.000  C
  H365     1.0000 0.89036  0.33093  0.58184  Biso   1.000  H
  H366     1.0000 0.95307  0.35541  0.58003  Biso   1.000  H
  H367     1.0000 0.91695  0.33402  0.55764  Biso   1.000  H
  H368     1.0000 0.87885  0.43492  0.56024  Biso   1.000  H
  H369     1.0000 0.84926  0.37574  0.56993  Biso   1.000  H
  H370     1.0000 0.87158  0.38695  0.54433  Biso   1.000  H
  H371     1.0000 0.95597  0.47422  0.58963  Biso   1.000  H
  H372     1.0000 0.97328  0.43302  0.59843  Biso   1.000  H
  H373     1.0000 0.91366  0.42062  0.60204  Biso   1.000  H
  C485     1.0000 0.47461  0.69280  0.28215  Biso   1.000  C
  H374     1.0000 0.67398  0.70203  0.28123  Biso   1.000  H
  H375     1.0000 0.64504  0.65081  0.29733  Biso   1.000  H
  H376     1.0000 0.70297  0.66923  0.28743  Biso   1.000  H
  H377     1.0000 0.73828  0.67324  0.32663  Biso   1.000  H
  H378     1.0000 0.67949  0.65165  0.33603  Biso   1.000  H
  H379     1.0000 0.72767  0.70465  0.34644  Biso   1.000  H
  H380     1.0000 0.77607  0.78134  0.32173  Biso   1.000  H
  H381     1.0000 0.74976  0.78855  0.29904  Biso   1.000  H
  H382     1.0000 0.77668  0.75223  0.29863  Biso   1.000  H
  C486     1.0000 0.26439  0.89634  0.51056  Biso   1.000  C
  H383     1.0000 0.44057  0.10962  0.58184  Biso   1.000  H
  H384     1.0000 0.40237  0.04695  0.58003  Biso   1.000  H
  H385     1.0000 0.41706  0.08304  0.55764  Biso   1.000  H
  H386     1.0000 0.55605  0.12115  0.56024  Biso   1.000  H
  H387     1.0000 0.52648  0.15074  0.56993  Biso   1.000  H
  H388     1.0000 0.51533  0.12844  0.54433  Biso   1.000  H
  H389     1.0000 0.51824  0.04402  0.58963  Biso   1.000  H
  H390     1.0000 0.45979  0.02675  0.59843  Biso   1.000  H
  H391     1.0000 0.50694  0.08633  0.60204  Biso   1.000  H
  C487     1.0000 0.21590  0.52710  0.25859  Biso   1.000  C
  C488     1.0000 0.25458  0.56905  0.29447  Biso   1.000  C
  C489     1.0000 0.12124  0.68750  0.49158  Biso   1.000  C
  C490     1.0000 0.03894  0.66995  0.50790  Biso   1.000  C
  C491     1.0000 0.43093  0.68552  0.29447  Biso   1.000  C
  C492     1.0000 0.47293  0.68884  0.25859  Biso   1.000  C
  C493     1.0000 0.25063  0.85324  0.49665  Biso   1.000  C
  C494     1.0000 0.22726  0.91314  0.51432  Biso   1.000  C
  C495     1.0000 0.25274  0.57115  0.24647  Biso   1.000  C
  H392     1.0000 0.18877  0.49775  0.25054  Biso   1.000  H
  C496     1.0000 0.29069  0.61492  0.28243  Biso   1.000  C
  H393     1.0000 0.25529  0.56814  0.31072  Biso   1.000  H
  C497     1.0000 0.13022  0.73551  0.48423  Biso   1.000  C
  H394     1.0000 0.14645  0.67672  0.48853  Biso   1.000  H
  H395     1.0000 0.00746  0.64733  0.51613  Biso   1.000  H
  C498     1.0000 0.04797  0.71859  0.50034  Biso   1.000  C
  C499     1.0000 0.38509  0.67577  0.28243  Biso   1.000  C
  H396     1.0000 0.43187  0.68714  0.31072  Biso   1.000  H
  C500     1.0000 0.42886  0.68159  0.24647  Biso   1.000  C
  H397     1.0000 0.50226  0.69102  0.25054  Biso   1.000  H
  C501     1.0000 0.20023  0.82662  0.48665  Biso   1.000  C
  H398     1.0000 0.27525  0.84163  0.49383  Biso   1.000  H
  C502     1.0000 0.17763  0.88695  0.50417  Biso   1.000  C
  H399     1.0000 0.23636  0.94273  0.52394  Biso   1.000  H
  C503     1.0000 0.28980  0.61405  0.25835  Biso   1.000  C
  H400     1.0000 0.25216  0.57143  0.23024  Biso   1.000  H
  C504     1.0000 0.33334  0.66662  0.29237  Biso   1.000  C
  C505     1.0000 0.17928  0.77702  0.47127  Biso   1.000  C
  C506     1.0000 0.09312  0.75167  0.48819  Biso   1.000  C
  H401     1.0000 0.02277  0.72933  0.50354  Biso   1.000  H
  C507     1.0000 0.38596  0.67573  0.25835  Biso   1.000  C
  H402     1.0000 0.42856  0.68072  0.23024  Biso   1.000  H
  C508     1.0000 0.16393  0.84247  0.49096  Biso   1.000  C
  H403     1.0000 0.15337  0.89935  0.50624  Biso   1.000  H
  C509     1.0000 0.33334  0.66662  0.24823  Biso   1.000  C
  H404     1.0000 0.33334  0.66662  0.30943  Biso   1.000  H
  C510     1.0000 0.32423  0.70932  0.28243  Biso   1.000  C
  C511     1.0000 0.16038  0.79172  0.44976  Biso   1.000  C
  H405     1.0000 0.20598  0.76573  0.46833  Biso   1.000  H
  C512     1.0000 0.11002  0.80717  0.47922  Biso   1.000  C
  H406     1.0000 0.33334  0.66662  0.23113  Biso   1.000  H
  C513     1.0000 0.32426  0.71019  0.25835  Biso   1.000  C
  C514     1.0000 0.31449  0.74541  0.29447  Biso   1.000  C
  C515     1.0000 0.17711  0.79148  0.42799  Biso   1.000  C
  C516     1.0000 0.12226  0.80757  0.45451  Biso   1.000  C
  H407     1.0000 0.08347  0.81862  0.48233  Biso   1.000  H
  C517     1.0000 0.31838  0.74723  0.24647  Biso   1.000  C
  C518     1.0000 0.30717  0.78182  0.28215  Biso   1.000  C
  H408     1.0000 0.31288  0.74474  0.31072  Biso   1.000  H
  C519     1.0000 0.15781  0.80963  0.41034  Biso   1.000  C
  H409     1.0000 0.20125  0.77932  0.42483  Biso   1.000  H
  C520     1.0000 0.10225  0.82242  0.43638  Biso   1.000  C
  H410     1.0000 0.31926  0.74783  0.23024  Biso   1.000  H
  C521     1.0000 0.31118  0.78407  0.25859  Biso   1.000  C
  N39      1.0000 0.29635  0.81953  0.29263  Biso   1.000  N
  N40      1.0000 0.18152  0.81505  0.38802  Biso   1.000  N
  C522     1.0000 0.12021  0.82397  0.41423  Biso   1.000  C
  H411     1.0000 0.07575  0.83173  0.43913  Biso   1.000  H
  H412     1.0000 0.30898  0.81125  0.25054  Biso   1.000  H
  C523     1.0000 0.26934  0.80757  0.31127  Biso   1.000  C
  C524     1.0000 0.19330  0.85708  0.37636  Biso   1.000  C
  H413     1.0000 0.10656  0.83482  0.40193  Biso   1.000  H
  H414     1.0000 0.25607  0.77314  0.31753  Biso   1.000  H
  C525     1.0000 0.25841  0.84548  0.32325  Biso   1.000  C
  C526     1.0000 0.21984  0.86865  0.35459  Biso   1.000  C
  H415     1.0000 0.18407  0.88164  0.38243  Biso   1.000  H
  C527     1.0000 0.27444  0.89476  0.31339  Biso   1.000  C
  C528     1.0000 0.23179  0.83264  0.34347  Biso   1.000  C
  C529     1.0000 0.23576  0.91737  0.34456  Biso   1.000  C
  H416     1.0000 0.29206  0.90284  0.29904  Biso   1.000  H
  C530     1.0000 0.26529  0.93334  0.32404  Biso   1.000  C
  O22      1.0000 0.21686  0.78419  0.35311  Biso   1.000  O
  H417     1.0000 0.22648  0.94094  0.35174  Biso   1.000  H
  C531     1.0000 0.28340  0.98761  0.31438  Biso   1.000  C
  H418     1.0000 0.20086  0.78122  0.36543  Biso   1.000  H
  C532     1.0000 0.31851  0.99779  0.29317  Biso   1.000  C
  C533     1.0000 0.23623  0.99240  0.30789  Biso   1.000  C
  C534     1.0000 0.31650  0.02972  0.33256  Biso   1.000  C
  H419     1.0000 0.29796  0.97192  0.28123  Biso   1.000  H
  H420     1.0000 0.34915  0.99423  0.29733  Biso   1.000  H
  H421     1.0000 0.33071  0.03372  0.28743  Biso   1.000  H
  H422     1.0000 0.21866  0.99474  0.32173  Biso   1.000  H
  H423     1.0000 0.21148  0.96123  0.29904  Biso   1.000  H
  H424     1.0000 0.24779  0.02445  0.29863  Biso   1.000  H
  H425     1.0000 0.32677  0.06502  0.32663  Biso   1.000  H
  H426     1.0000 0.34831  0.02782  0.33603  Biso   1.000  H
  H427     1.0000 0.29535  0.02302  0.34644  Biso   1.000  H
  C535     1.0000 0.90286  0.32574  0.64122  Biso   1.000  C
  C536     1.0000 0.95004  0.32095  0.64772  Biso   1.000  C
  H428     1.0000 0.88531  0.32804  0.65506  Biso   1.000  H
  H429     1.0000 0.87812  0.29457  0.63237  Biso   1.000  H
  H430     1.0000 0.91441  0.35775  0.63196  Biso   1.000  H
  C537     1.0000 0.98518  0.33113  0.62651  Biso   1.000  C
  C538     1.0000 0.93196  0.26668  0.65737  Biso   1.000  C
  C539     1.0000 0.90290  0.32574  0.64122  Biso   1.000  C
  C540     1.0000 0.93191  0.26664  0.65737  Biso   1.000  C
  C541     1.0000 0.98317  0.36306  0.66590  Biso   1.000  C
  H431     1.0000 0.99742  0.36706  0.62077  Biso   1.000  H
  H432     1.0000 0.96463  0.30526  0.61456  Biso   1.000  H
  H433     1.0000 0.96460  0.30526  0.61456  Biso   1.000  H
  H434     1.0000 0.01582  0.32757  0.63066  Biso   1.000  H
  C542     1.0000 0.94111  0.22810  0.64672  Biso   1.000  C
  C543     1.0000 0.90243  0.25072  0.67789  Biso   1.000  C
  C544     1.0000 0.94107  0.22810  0.64672  Biso   1.000  C
  C545     1.0000 0.90240  0.25072  0.67789  Biso   1.000  C
  H435     1.0000 0.96202  0.35637  0.67977  Biso   1.000  H
  H436     1.0000 0.99344  0.39836  0.65997  Biso   1.000  H
  H437     1.0000 0.99341  0.39836  0.65997  Biso   1.000  H
  H438     1.0000 0.01502  0.36116  0.66937  Biso   1.000  H
  H439     1.0000 0.95873  0.23618  0.63237  Biso   1.000  H
  C546     1.0000 0.92508  0.17882  0.65658  Biso   1.000  C
  C547     1.0000 0.92505  0.17882  0.65658  Biso   1.000  C
  C548     1.0000 0.88649  0.20195  0.68793  Biso   1.000  C
  H440     1.0000 0.89315  0.27429  0.68507  Biso   1.000  H
  H441     1.0000 0.89310  0.27425  0.68507  Biso   1.000  H
  C549     1.0000 0.93601  0.14091  0.64461  Biso   1.000  C
  C550     1.0000 0.89846  0.16598  0.67680  Biso   1.000  C
  C551     1.0000 0.89844  0.16594  0.67680  Biso   1.000  C
  C552     1.0000 0.85997  0.19042  0.70970  Biso   1.000  C
  N41      1.0000 0.96302  0.15287  0.62596  Biso   1.000  N
  H442     1.0000 0.92274  0.10648  0.65086  Biso   1.000  H
  N42      1.0000 0.96298  0.15287  0.62596  Biso   1.000  N
  H443     1.0000 0.92272  0.10644  0.65086  Biso   1.000  H
  O23      1.0000 0.88351  0.11749  0.68644  Biso   1.000  O
  N43      1.0000 0.84819  0.14839  0.72135  Biso   1.000  N
  H444     1.0000 0.85074  0.21498  0.71576  Biso   1.000  H
  H445     1.0000 0.85069  0.21494  0.71576  Biso   1.000  H
  C553     1.0000 0.97382  0.11512  0.61549  Biso   1.000  C
  H446     1.0000 0.86750  0.11456  0.69876  Biso   1.000  H
  C554     1.0000 0.82448  0.14297  0.74367  Biso   1.000  C
  C555     1.0000 0.97785  0.11742  0.59192  Biso   1.000  C
  C556     1.0000 0.98116  0.07875  0.62781  Biso   1.000  C
  C557     1.0000 0.97781  0.11742  0.59192  Biso   1.000  C
  C558     1.0000 0.98110  0.07871  0.62781  Biso   1.000  C
  C559     1.0000 0.84378  0.12482  0.76132  Biso   1.000  C
  C560     1.0000 0.78688  0.15731  0.74756  Biso   1.000  C
  C561     1.0000 0.78682  0.15727  0.74756  Biso   1.000  C
  C562     1.0000 0.98505  0.08057  0.57980  Biso   1.000  C
  H447     1.0000 0.97563  0.14455  0.58387  Biso   1.000  H
  C563     1.0000 0.98502  0.08057  0.57980  Biso   1.000  C
  H448     1.0000 0.97560  0.14455  0.58387  Biso   1.000  H
  H449     1.0000 0.97955  0.07808  0.64406  Biso   1.000  H
  C564     1.0000 0.99088  0.04262  0.61576  Biso   1.000  C
  H450     1.0000 0.97950  0.07804  0.64406  Biso   1.000  H
  H451     1.0000 0.86792  0.11266  0.75816  Biso   1.000  H
  C565     1.0000 0.82703  0.12502  0.78309  Biso   1.000  C
  H452     1.0000 0.77323  0.16816  0.73526  Biso   1.000  H
  C566     1.0000 0.76890  0.15572  0.76971  Biso   1.000  C
  C567     1.0000 0.76886  0.15572  0.76971  Biso   1.000  C
  H453     1.0000 0.98593  0.08117  0.56357  Biso   1.000  H
  C568     1.0000 0.99093  0.04354  0.59168  Biso   1.000  C
  C569     1.0000 0.99089  0.04354  0.59168  Biso   1.000  C
  C570     1.0000 0.00005  0.99996  0.62570  Biso   1.000  C
  C571     1.0000 0.78893  0.14091  0.78784  Biso   1.000  C
  C572     1.0000 0.84595  0.11036  0.80461  Biso   1.000  C
  C573     1.0000 0.78890  0.14091  0.78784  Biso   1.000  C
  C574     1.0000 0.84589  0.11032  0.80461  Biso   1.000  C
  H454     1.0000 0.74242  0.16507  0.77246  Biso   1.000  H
  C575     1.0000 0.00005  0.99996  0.58156  Biso   1.000  C
  C576     1.0000 0.95736  0.94826  0.61576  Biso   1.000  C
  H455     1.0000 0.00005  0.99996  0.64276  Biso   1.000  H
  C577     1.0000 0.05176  0.00911  0.61576  Biso   1.000  C
  C578     1.0000 0.05171  0.00907  0.61576  Biso   1.000  C
  C579     1.0000 0.77669  0.14051  0.81255  Biso   1.000  C
  C580     1.0000 0.77664  0.14047  0.81255  Biso   1.000  C
  C581     1.0000 0.79687  0.06881  0.81756  Biso   1.000  C
  H456     1.0000 0.87262  0.09907  0.80167  Biso   1.000  H
  C582     1.0000 0.79683  0.06881  0.81756  Biso   1.000  C
  C583     1.0000 0.86685  0.15992  0.81999  Biso   1.000  C
  C584     1.0000 0.95651  0.94739  0.59168  Biso   1.000  C
  C585     1.0000 0.95642  0.94735  0.59168  Biso   1.000  C
  H457     1.0000 0.00005  0.99996  0.56446  Biso   1.000  H
  C586     1.0000 0.05260  0.00907  0.59168  Biso   1.000  C
  C587     1.0000 0.92125  0.90239  0.62781  Biso   1.000  C
  C588     1.0000 0.09760  0.01886  0.62781  Biso   1.000  C
  C589     1.0000 0.83060  0.17581  0.82429  Biso   1.000  C
  H458     1.0000 0.75014  0.15196  0.81566  Biso   1.000  H
  C590     1.0000 0.75977  0.08497  0.82153  Biso   1.000  C
  H459     1.0000 0.75010  0.15196  0.81566  Biso   1.000  H
  C591     1.0000 0.78791  0.02084  0.82491  Biso   1.000  C
  C592     1.0000 0.91730  0.18658  0.82998  Biso   1.000  C
  C593     1.0000 0.91939  0.90445  0.57980  Biso   1.000  C
  C594     1.0000 0.09553  0.01493  0.57980  Biso   1.000  C
  C595     1.0000 0.09550  0.01493  0.57980  Biso   1.000  C
  C596     1.0000 0.88485  0.85870  0.61549  Biso   1.000  C
  H460     1.0000 0.92199  0.90148  0.64406  Biso   1.000  H
  H461     1.0000 0.92190  0.90144  0.64406  Biso   1.000  H
  C597     1.0000 0.14128  0.02615  0.61549  Biso   1.000  C
  H462     1.0000 0.09855  0.02048  0.64406  Biso   1.000  H
  H463     1.0000 0.09849  0.02044  0.64406  Biso   1.000  H
  C598     1.0000 0.84430  0.22029  0.83750  Biso   1.000  C
  C599     1.0000 0.71462  0.05189  0.83368  Biso   1.000  C
  H464     1.0000 0.81312  0.01006  0.82187  Biso   1.000  H
  C600     1.0000 0.74225  0.98764  0.83687  Biso   1.000  C
  C601     1.0000 0.74218  0.98764  0.83687  Biso   1.000  C
  H465     1.0000 0.94192  0.17497  0.82716  Biso   1.000  H
  C602     1.0000 0.93106  0.22968  0.84389  Biso   1.000  C
  C603     1.0000 0.93103  0.22968  0.84389  Biso   1.000  C
  H466     1.0000 0.91887  0.90477  0.56357  Biso   1.000  H
  C604     1.0000 0.88258  0.86040  0.59192  Biso   1.000  C
  H467     1.0000 0.91883  0.90477  0.56357  Biso   1.000  H
  C605     1.0000 0.13958  0.02214  0.59192  Biso   1.000  C
  H468     1.0000 0.09520  0.01406  0.56357  Biso   1.000  H
  C606     1.0000 0.13955  0.02214  0.59192  Biso   1.000  C
  N44      1.0000 0.84712  0.81013  0.62596  Biso   1.000  N
  N45      1.0000 0.84709  0.81013  0.62596  Biso   1.000  N
  N46      1.0000 0.18986  0.03700  0.62596  Biso   1.000  N
  N47      1.0000 0.18984  0.03696  0.62596  Biso   1.000  N
  H469     1.0000 0.82002  0.23265  0.83957  Biso   1.000  H
  C607     1.0000 0.89393  0.24648  0.84765  Biso   1.000  C
  C608     1.0000 0.89390  0.24648  0.84765  Biso   1.000  C
  C609     1.0000 0.70561  0.00329  0.84123  Biso   1.000  C
  H470     1.0000 0.68944  0.06267  0.83687  Biso   1.000  H
  C610     1.0000 0.70558  0.00329  0.84123  Biso   1.000  C
  H471     1.0000 0.68940  0.06267  0.83687  Biso   1.000  H
  N48      1.0000 0.73537  0.93634  0.84326  Biso   1.000  N
  N49      1.0000 0.98003  0.25880  0.85543  Biso   1.000  N
  H472     1.0000 0.85545  0.83105  0.58387  Biso   1.000  H
  H473     1.0000 0.16893  0.02436  0.58387  Biso   1.000  H
  C611     1.0000 0.85914  0.79512  0.64461  Biso   1.000  C
  C612     1.0000 0.85912  0.79508  0.64461  Biso   1.000  C
  C613     1.0000 0.20491  0.06402  0.64461  Biso   1.000  C
  C614     1.0000 0.20486  0.06398  0.64461  Biso   1.000  C
  H474     1.0000 0.90303  0.27607  0.85727  Biso   1.000  H
  H475     1.0000 0.90300  0.27607  0.85727  Biso   1.000  H
  H476     1.0000 0.67417  0.98067  0.84947  Biso   1.000  H
  C615     1.0000 0.69865  0.90655  0.85686  Biso   1.000  C
  C616     1.0000 0.02004  0.25868  0.84791  Biso   1.000  C
  C617     1.0000 0.01998  0.25864  0.84791  Biso   1.000  C
  H477     1.0000 0.89356  0.81627  0.65086  Biso   1.000  H
  C618     1.0000 0.82123  0.74627  0.65658  Biso   1.000  C
  H478     1.0000 0.18376  0.07729  0.65086  Biso   1.000  H
  C619     1.0000 0.25372  0.07491  0.65658  Biso   1.000  C
  H479     1.0000 0.18371  0.07725  0.65086  Biso   1.000  H
  C620     1.0000 0.68993  0.85363  0.86310  Biso   1.000  C
  H480     1.0000 0.67632  0.91836  0.86317  Biso   1.000  H
  H481     1.0000 0.01642  0.23828  0.83467  Biso   1.000  H
  C621     1.0000 0.07293  0.28898  0.85876  Biso   1.000  C
  C622     1.0000 0.07291  0.28894  0.85876  Biso   1.000  C
  C623     1.0000 0.77190  0.71300  0.64672  Biso   1.000  C
  C624     1.0000 0.83403  0.73249  0.67680  Biso   1.000  C
  C625     1.0000 0.28699  0.05891  0.64672  Biso   1.000  C
  C626     1.0000 0.26748  0.10153  0.67680  Biso   1.000  C
  C627     1.0000 0.72092  0.83418  0.85275  Biso   1.000  C
  C628     1.0000 0.65132  0.82368  0.87817  Biso   1.000  C
  C629     1.0000 0.08315  0.32911  0.87467  Biso   1.000  C
  C630     1.0000 0.11321  0.27904  0.85275  Biso   1.000  C
  C631     1.0000 0.08311  0.32911  0.87467  Biso   1.000  C
  C632     1.0000 0.73335  0.66526  0.65737  Biso   1.000  C
  H482     1.0000 0.76381  0.72255  0.63237  Biso   1.000  H
  O24      1.0000 0.88249  0.76600  0.68644  Biso   1.000  O
  C633     1.0000 0.79806  0.68456  0.68793  Biso   1.000  C
  C634     1.0000 0.79804  0.68452  0.68793  Biso   1.000  C
  H483     1.0000 0.27742  0.04128  0.63237  Biso   1.000  H
  C635     1.0000 0.33472  0.06806  0.65737  Biso   1.000  C
  C636     1.0000 0.33469  0.06806  0.65737  Biso   1.000  C
  C637     1.0000 0.31545  0.11349  0.68793  Biso   1.000  C
  O25      1.0000 0.23398  0.11646  0.68644  Biso   1.000  O
  C638     1.0000 0.71104  0.78395  0.85876  Biso   1.000  C
  O26      1.0000 0.76013  0.86298  0.83759  Biso   1.000  O
  C639     1.0000 0.63934  0.77222  0.88462  Biso   1.000  C
  H484     1.0000 0.63127  0.83786  0.88467  Biso   1.000  H
  H485     1.0000 0.63120  0.83786  0.88467  Biso   1.000  H
  O27      1.0000 0.10285  0.23986  0.83759  Biso   1.000  O
  C640     1.0000 0.16371  0.31006  0.86310  Biso   1.000  C
  O28      1.0000 0.10281  0.23986  0.83759  Biso   1.000  O
  C641     1.0000 0.13290  0.36068  0.88462  Biso   1.000  C
  H486     1.0000 0.05504  0.33505  0.87887  Biso   1.000  H
  C642     1.0000 0.13284  0.36064  0.88462  Biso   1.000  C
  H487     1.0000 0.05500  0.33505  0.87887  Biso   1.000  H
  C643     1.0000 0.67909  0.62914  0.64772  Biso   1.000  C
  C644     1.0000 0.74932  0.65172  0.67789  Biso   1.000  C
  C645     1.0000 0.67900  0.62910  0.64772  Biso   1.000  C
  H488     1.0000 0.88544  0.75297  0.69876  Biso   1.000  H
  C646     1.0000 0.80962  0.66954  0.70970  Biso   1.000  C
  C647     1.0000 0.80959  0.66954  0.70970  Biso   1.000  C
  C648     1.0000 0.37087  0.04991  0.64772  Biso   1.000  C
  C649     1.0000 0.34828  0.09757  0.67789  Biso   1.000  C
  C650     1.0000 0.33044  0.14003  0.70970  Biso   1.000  C
  H489     1.0000 0.24703  0.13247  0.69876  Biso   1.000  H
  C651     1.0000 0.74133  0.76137  0.84791  Biso   1.000  C
  C652     1.0000 0.67087  0.75404  0.87467  Biso   1.000  C
  C653     1.0000 0.67085  0.75400  0.87467  Biso   1.000  C
  H490     1.0000 0.76206  0.89237  0.83547  Biso   1.000  H
  H491     1.0000 0.76199  0.89237  0.83547  Biso   1.000  H
  C654     1.0000 0.59528  0.74132  0.90157  Biso   1.000  C
  C655     1.0000 0.59521  0.74132  0.90157  Biso   1.000  C
  H492     1.0000 0.13034  0.23796  0.83547  Biso   1.000  H
  H493     1.0000 0.13030  0.23796  0.83547  Biso   1.000  H
  C656     1.0000 0.17238  0.34868  0.87817  Biso   1.000  C
  C657     1.0000 0.20789  0.30134  0.85686  Biso   1.000  C
  C658     1.0000 0.20786  0.30134  0.85686  Biso   1.000  C
  C659     1.0000 0.14607  0.40473  0.90157  Biso   1.000  C
  C660     1.0000 0.67427  0.57716  0.64122  Biso   1.000  C
  C661     1.0000 0.66891  0.65405  0.62651  Biso   1.000  C
  C662     1.0000 0.63693  0.62014  0.66590  Biso   1.000  C
  C663     1.0000 0.66884  0.65405  0.62651  Biso   1.000  C
  C664     1.0000 0.67425  0.57712  0.64122  Biso   1.000  C
  H494     1.0000 0.72573  0.61888  0.68507  Biso   1.000  H
  H495     1.0000 0.78504  0.63575  0.71576  Biso   1.000  H
  N50      1.0000 0.85165  0.69981  0.72135  Biso   1.000  N
  N51      1.0000 0.85158  0.69981  0.72135  Biso   1.000  N
  C665     1.0000 0.34594  0.01482  0.62651  Biso   1.000  C
  C666     1.0000 0.42283  0.09709  0.64122  Biso   1.000  C
  C667     1.0000 0.37983  0.01680  0.66590  Biso   1.000  C
  H496     1.0000 0.38111  0.10684  0.68507  Biso   1.000  H
  N52      1.0000 0.30020  0.15180  0.72135  Biso   1.000  N
  H497     1.0000 0.36421  0.14926  0.71576  Biso   1.000  H
  N53      1.0000 0.74123  0.72124  0.85543  Biso   1.000  N
  H498     1.0000 0.76177  0.77816  0.83467  Biso   1.000  H
  N54      1.0000 0.74120  0.72124  0.85543  Biso   1.000  N
  H499     1.0000 0.76170  0.77816  0.83467  Biso   1.000  H
  H500     1.0000 0.66492  0.71997  0.87887  Biso   1.000  H
  C668     1.0000 0.58825  0.68519  0.90564  Biso   1.000  C
  C669     1.0000 0.61101  0.76996  0.92507  Biso   1.000  C
  C670     1.0000 0.54456  0.73415  0.89335  Biso   1.000  C
  C671     1.0000 0.54453  0.73415  0.89335  Biso   1.000  C
  H501     1.0000 0.20661  0.36876  0.88467  Biso   1.000  H
  N55      1.0000 0.20101  0.26466  0.84326  Biso   1.000  N
  H502     1.0000 0.24205  0.32368  0.86317  Biso   1.000  H
  N56      1.0000 0.20098  0.26466  0.84326  Biso   1.000  N
  H503     1.0000 0.24200  0.32364  0.86317  Biso   1.000  H
  C672     1.0000 0.09695  0.41175  0.90564  Biso   1.000  C
  C673     1.0000 0.18960  0.45544  0.89335  Biso   1.000  C
  C674     1.0000 0.15896  0.38901  0.92507  Biso   1.000  C
  C675     1.0000 0.18957  0.45544  0.89335  Biso   1.000  C
  H504     1.0000 0.67198  0.55728  0.65506  Biso   1.000  H
  H505     1.0000 0.70548  0.58358  0.63237  Biso   1.000  H
  H506     1.0000 0.64228  0.55668  0.63196  Biso   1.000  H
  H507     1.0000 0.67191  0.55728  0.65506  Biso   1.000  H
  H508     1.0000 0.70539  0.58354  0.63237  Biso   1.000  H
  H509     1.0000 0.64219  0.55664  0.63196  Biso   1.000  H
  H510     1.0000 0.63295  0.63036  0.62077  Biso   1.000  H
  H511     1.0000 0.69472  0.65936  0.61456  Biso   1.000  H
  H512     1.0000 0.67247  0.68828  0.63066  Biso   1.000  H
  H513     1.0000 0.67245  0.68824  0.63066  Biso   1.000  H
  H514     1.0000 0.67240  0.68828  0.63066  Biso   1.000  H
  H515     1.0000 0.60164  0.59507  0.65997  Biso   1.000  H
  H516     1.0000 0.63883  0.65386  0.66937  Biso   1.000  H
  H517     1.0000 0.64364  0.60565  0.67977  Biso   1.000  H
  C676     1.0000 0.85701  0.68151  0.74367  Biso   1.000  C
  H518     1.0000 0.31175  0.98415  0.63066  Biso   1.000  H
  H519     1.0000 0.34065  0.03538  0.61456  Biso   1.000  H
  H520     1.0000 0.36964  0.00257  0.62077  Biso   1.000  H
  H521     1.0000 0.34061  0.03538  0.61456  Biso   1.000  H
  H522     1.0000 0.34619  0.98499  0.66937  Biso   1.000  H
  H523     1.0000 0.34614  0.98495  0.66937  Biso   1.000  H
  H524     1.0000 0.34616  0.98499  0.66937  Biso   1.000  H
  H525     1.0000 0.39432  0.03795  0.67977  Biso   1.000  H
  H526     1.0000 0.40491  0.00658  0.65997  Biso   1.000  H
  H527     1.0000 0.41641  0.12185  0.63237  Biso   1.000  H
  H528     1.0000 0.44335  0.08557  0.63196  Biso   1.000  H
  H529     1.0000 0.44272  0.11464  0.65506  Biso   1.000  H
  H530     1.0000 0.44331  0.08557  0.63196  Biso   1.000  H
  C677     1.0000 0.31846  0.17549  0.74367  Biso   1.000  C
  C678     1.0000 0.77036  0.70135  0.84389  Biso   1.000  C
  C679     1.0000 0.77030  0.70135  0.84389  Biso   1.000  C
  H531     1.0000 0.55707  0.66427  0.91517  Biso   1.000  H
  H532     1.0000 0.61977  0.68875  0.91336  Biso   1.000  H
  H533     1.0000 0.58362  0.66736  0.89097  Biso   1.000  H
  H534     1.0000 0.61974  0.68875  0.91336  Biso   1.000  H
  H535     1.0000 0.62264  0.80756  0.92296  Biso   1.000  H
  H536     1.0000 0.63995  0.76636  0.93176  Biso   1.000  H
  H537     1.0000 0.58037  0.75396  0.93537  Biso   1.000  H
  H538     1.0000 0.62260  0.80756  0.92296  Biso   1.000  H
  H539     1.0000 0.63991  0.76636  0.93176  Biso   1.000  H
  H540     1.0000 0.58033  0.75396  0.93537  Biso   1.000  H
  H541     1.0000 0.54552  0.76826  0.89357  Biso   1.000  H
  H542     1.0000 0.51593  0.70908  0.90326  Biso   1.000  H
  H543     1.0000 0.53826  0.72025  0.87766  Biso   1.000  H
  H544     1.0000 0.53819  0.72025  0.87766  Biso   1.000  H
  C680     1.0000 0.24541  0.25781  0.83687  Biso   1.000  C
  H545     1.0000 0.06902  0.38025  0.91336  Biso   1.000  H
  H546     1.0000 0.10721  0.44296  0.91517  Biso   1.000  H
  H547     1.0000 0.08371  0.41634  0.89097  Biso   1.000  H
  H548     1.0000 0.22273  0.45445  0.89357  Biso   1.000  H
  H549     1.0000 0.19315  0.48408  0.90326  Biso   1.000  H
  H550     1.0000 0.18204  0.46178  0.87766  Biso   1.000  H
  H551     1.0000 0.22270  0.45445  0.89357  Biso   1.000  H
  H552     1.0000 0.19310  0.48404  0.90326  Biso   1.000  H
  H553     1.0000 0.12644  0.36005  0.93176  Biso   1.000  H
  H554     1.0000 0.17364  0.41967  0.93537  Biso   1.000  H
  H555     1.0000 0.18491  0.37736  0.92296  Biso   1.000  H
  H556     1.0000 0.12640  0.36005  0.93176  Biso   1.000  H
  H557     1.0000 0.17361  0.41967  0.93537  Biso   1.000  H
  C681     1.0000 0.84271  0.62957  0.74756  Biso   1.000  C
  C682     1.0000 0.87518  0.71894  0.76132  Biso   1.000  C
  C683     1.0000 0.37043  0.21316  0.74756  Biso   1.000  C
  C684     1.0000 0.28102  0.15620  0.76132  Biso   1.000  C
  C685     1.0000 0.37041  0.21312  0.74756  Biso   1.000  C
  C686     1.0000 0.75356  0.64744  0.84765  Biso   1.000  C
  C687     1.0000 0.81345  0.73071  0.82998  Biso   1.000  C
  C688     1.0000 0.75349  0.64744  0.84765  Biso   1.000  C
  C689     1.0000 0.81338  0.73071  0.82998  Biso   1.000  C
  C690     1.0000 0.23291  0.21209  0.82491  Biso   1.000  C
  C691     1.0000 0.29771  0.29441  0.84123  Biso   1.000  C
  C692     1.0000 0.29765  0.29437  0.84123  Biso   1.000  C
  H558     1.0000 0.83182  0.60505  0.73526  Biso   1.000  H
  C693     1.0000 0.84423  0.61313  0.76971  Biso   1.000  C
  H559     1.0000 0.88738  0.75527  0.75816  Biso   1.000  H
  C694     1.0000 0.87497  0.70199  0.78309  Biso   1.000  C
  H560     1.0000 0.88731  0.75527  0.75816  Biso   1.000  H
  H561     1.0000 0.39493  0.22675  0.73526  Biso   1.000  H
  C695     1.0000 0.38685  0.23111  0.76971  Biso   1.000  C
  H562     1.0000 0.39489  0.22675  0.73526  Biso   1.000  H
  C696     1.0000 0.38681  0.23111  0.76971  Biso   1.000  C
  C697     1.0000 0.29798  0.17295  0.78309  Biso   1.000  C
  H563     1.0000 0.24470  0.13207  0.75816  Biso   1.000  H
  C698     1.0000 0.77970  0.62403  0.83750  Biso   1.000  C
  H564     1.0000 0.72397  0.62696  0.85727  Biso   1.000  H
  H565     1.0000 0.72390  0.62696  0.85727  Biso   1.000  H
  H566     1.0000 0.82502  0.76695  0.82716  Biso   1.000  H
  C699     1.0000 0.84009  0.70694  0.81999  Biso   1.000  C
  C700     1.0000 0.27197  0.20314  0.81756  Biso   1.000  C
  C701     1.0000 0.27192  0.20310  0.81756  Biso   1.000  C
  H567     1.0000 0.19690  0.18686  0.82187  Biso   1.000  H
  C702     1.0000 0.33728  0.28538  0.83368  Biso   1.000  C
  H568     1.0000 0.30650  0.32586  0.84947  Biso   1.000  H
  C703     1.0000 0.85911  0.64803  0.78784  Biso   1.000  C
  H569     1.0000 0.83493  0.57736  0.77246  Biso   1.000  H
  C704     1.0000 0.88968  0.73558  0.80461  Biso   1.000  C
  H570     1.0000 0.42262  0.25757  0.77246  Biso   1.000  H
  C705     1.0000 0.35195  0.21106  0.78784  Biso   1.000  C
  C706     1.0000 0.26441  0.15406  0.80461  Biso   1.000  C
  C707     1.0000 0.82418  0.65481  0.82429  Biso   1.000  C
  H571     1.0000 0.76732  0.58734  0.83957  Biso   1.000  H
  C708     1.0000 0.32519  0.24022  0.82153  Biso   1.000  C
  H572     1.0000 0.37323  0.31057  0.83687  Biso   1.000  H
  C709     1.0000 0.85954  0.63619  0.81255  Biso   1.000  C
  H573     1.0000 0.90092  0.77357  0.80167  Biso   1.000  H
  C710     1.0000 0.93120  0.72805  0.81756  Biso   1.000  C
  C711     1.0000 0.36380  0.22330  0.81255  Biso   1.000  C
  C712     1.0000 0.29304  0.13310  0.81999  Biso   1.000  C
  H574     1.0000 0.22639  0.12736  0.80167  Biso   1.000  H
  H575     1.0000 0.84803  0.59816  0.81566  Biso   1.000  H
  C713     1.0000 0.91502  0.67477  0.82153  Biso   1.000  C
  C714     1.0000 0.97922  0.76707  0.82491  Biso   1.000  C
  C715     1.0000 0.97915  0.76707  0.82491  Biso   1.000  C
  C716     1.0000 0.34522  0.16939  0.82429  Biso   1.000  C
  H576     1.0000 0.40181  0.24984  0.81566  Biso   1.000  H
  C717     1.0000 0.34518  0.16939  0.82429  Biso   1.000  C
  C718     1.0000 0.26927  0.08267  0.82998  Biso   1.000  C
  C719     1.0000 0.94808  0.66273  0.83368  Biso   1.000  C
  C720     1.0000 0.94806  0.66269  0.83368  Biso   1.000  C
  H577     1.0000 0.98998  0.80308  0.82187  Biso   1.000  H
  H578     1.0000 0.98993  0.80304  0.82187  Biso   1.000  H
  H579     1.0000 0.98995  0.80308  0.82187  Biso   1.000  H
  C721     1.0000 0.01238  0.75455  0.83687  Biso   1.000  C
  C722     1.0000 0.37596  0.15568  0.83750  Biso   1.000  C
  H580     1.0000 0.23302  0.05807  0.82716  Biso   1.000  H
  C723     1.0000 0.29861  0.06897  0.84389  Biso   1.000  C
  C724     1.0000 0.99671  0.70230  0.84123  Biso   1.000  C
  H581     1.0000 0.93736  0.62676  0.83687  Biso   1.000  H
  N57      1.0000 0.06366  0.79900  0.84326  Biso   1.000  N
  H582     1.0000 0.41264  0.17997  0.83957  Biso   1.000  H
  C725     1.0000 0.35257  0.10609  0.84765  Biso   1.000  C
  H583     1.0000 0.41260  0.17997  0.83957  Biso   1.000  H
  C726     1.0000 0.35254  0.10609  0.84765  Biso   1.000  C
  N58      1.0000 0.27874  0.01997  0.85543  Biso   1.000  N
  N59      1.0000 0.27872  0.01993  0.85543  Biso   1.000  N
  H584     1.0000 0.01936  0.69347  0.84947  Biso   1.000  H
  C727     1.0000 0.09349  0.79211  0.85686  Biso   1.000  C
  H585     1.0000 0.37303  0.09697  0.85727  Biso   1.000  H
  C728     1.0000 0.23869  0.98000  0.84791  Biso   1.000  C
  C729     1.0000 0.23867  0.97996  0.84791  Biso   1.000  C
  H586     1.0000 0.08163  0.75796  0.86317  Biso   1.000  H
  C730     1.0000 0.14635  0.83628  0.86310  Biso   1.000  C
  H587     1.0000 0.22184  0.98356  0.83467  Biso   1.000  H
  C731     1.0000 0.21607  0.92707  0.85876  Biso   1.000  C
  C732     1.0000 0.21600  0.92707  0.85876  Biso   1.000  C
  C733     1.0000 0.16582  0.88674  0.85275  Biso   1.000  C
  C734     1.0000 0.17631  0.82760  0.87817  Biso   1.000  C
  C735     1.0000 0.17628  0.82760  0.87817  Biso   1.000  C
  C736     1.0000 0.24598  0.91685  0.87467  Biso   1.000  C
  O29      1.0000 0.13701  0.89712  0.83759  Biso   1.000  O
  H588     1.0000 0.16219  0.79337  0.88467  Biso   1.000  H
  H589     1.0000 0.16212  0.79337  0.88467  Biso   1.000  H
  C737     1.0000 0.22776  0.86710  0.88462  Biso   1.000  C
  H590     1.0000 0.28005  0.94498  0.87887  Biso   1.000  H
  H591     1.0000 0.10767  0.86967  0.83547  Biso   1.000  H
  H592     1.0000 0.10760  0.86967  0.83547  Biso   1.000  H
  C738     1.0000 0.25870  0.85390  0.90157  Biso   1.000  C
  C739     1.0000 0.31482  0.90303  0.90564  Biso   1.000  C
  C740     1.0000 0.26590  0.81041  0.89335  Biso   1.000  C
  C741     1.0000 0.23006  0.84103  0.92507  Biso   1.000  C
  C742     1.0000 0.26581  0.81037  0.89335  Biso   1.000  C
  H593     1.0000 0.31122  0.93095  0.91336  Biso   1.000  H
  H594     1.0000 0.33573  0.89277  0.91517  Biso   1.000  H
  H595     1.0000 0.33265  0.91626  0.89097  Biso   1.000  H
  H596     1.0000 0.27974  0.81797  0.87766  Biso   1.000  H
  H597     1.0000 0.23176  0.77725  0.89357  Biso   1.000  H
  H598     1.0000 0.29093  0.80688  0.90326  Biso   1.000  H
  H599     1.0000 0.29091  0.80684  0.90326  Biso   1.000  H
  H600     1.0000 0.19249  0.81508  0.92296  Biso   1.000  H
  H601     1.0000 0.23366  0.87355  0.93176  Biso   1.000  H
  H602     1.0000 0.24606  0.82637  0.93537  Biso   1.000  H
  H603     1.0000 0.19240  0.81504  0.92296  Biso   1.000  H
  H604     1.0000 0.23360  0.87355  0.93176  Biso   1.000  H
  C743     1.0000 0.82565  0.72236  0.25840  Biso   1.000  C
  C744     1.0000 0.81276  0.73808  0.23490  Biso   1.000  C
  H605     1.0000 0.85160  0.71071  0.25630  Biso   1.000  H
  H606     1.0000 0.79310  0.69340  0.26510  Biso   1.000  H
  H607     1.0000 0.84030  0.75302  0.26870  Biso   1.000  H
  C745     1.0000 0.79953  0.69399  0.21795  Biso   1.000  C
  C746     1.0000 0.76364  0.74509  0.23897  Biso   1.000  C
  C747     1.0000 0.85626  0.78879  0.22668  Biso   1.000  C
  C748     1.0000 0.74980  0.66246  0.20800  Biso   1.000  C
  C749     1.0000 0.83908  0.68203  0.21151  Biso   1.000  C
  H608     1.0000 0.77390  0.77631  0.24850  Biso   1.000  H
  H609     1.0000 0.73572  0.71360  0.24669  Biso   1.000  H
  H610     1.0000 0.75040  0.74969  0.22431  Biso   1.000  H
  H611     1.0000 0.88939  0.78780  0.22690  Biso   1.000  H
  H612     1.0000 0.85979  0.81739  0.23659  Biso   1.000  H
  H613     1.0000 0.84871  0.79509  0.21099  Biso   1.000  H
  C750     1.0000 0.73960  0.62229  0.19209  Biso   1.000  C
  H614     1.0000 0.72169  0.66840  0.21221  Biso   1.000  H
  C751     1.0000 0.83040  0.64341  0.19644  Biso   1.000  C
  H615     1.0000 0.87330  0.70211  0.21800  Biso   1.000  H
  C752     1.0000 0.68668  0.59199  0.18124  Biso   1.000  C
  C753     1.0000 0.77990  0.61239  0.18608  Biso   1.000  C
  C754     1.0000 0.87455  0.63469  0.19020  Biso   1.000  C
  N60      1.0000 0.64672  0.59215  0.18876  Biso   1.000  N
  H616     1.0000 0.68310  0.57159  0.16800  Biso   1.000  H
  O30      1.0000 0.76950  0.57321  0.17092  Biso   1.000  O
  N61      1.0000 0.86767  0.59801  0.17660  Biso   1.000  N
  H617     1.0000 0.90869  0.65699  0.19650  Biso   1.000  H
  C755     1.0000 0.59770  0.56299  0.17723  Biso   1.000  C
  H618     1.0000 0.79699  0.57131  0.16880  Biso   1.000  H
  C756     1.0000 0.91208  0.59112  0.17020  Biso   1.000  C
  C757     1.0000 0.58399  0.51993  0.16332  Biso   1.000  C
  C758     1.0000 0.56059  0.57983  0.18099  Biso   1.000  C
  C759     1.0000 0.89960  0.54544  0.15824  Biso   1.000  C
  C760     1.0000 0.96434  0.62772  0.17456  Biso   1.000  C
  C761     1.0000 0.53354  0.49327  0.15332  Biso   1.000  C
  H619     1.0000 0.60860  0.50828  0.16050  Biso   1.000  H
  C762     1.0000 0.51098  0.55360  0.17084  Biso   1.000  C
  H620     1.0000 0.56969  0.60942  0.19061  Biso   1.000  H
  C763     1.0000 0.93861  0.53645  0.15089  Biso   1.000  C
  H621     1.0000 0.86359  0.52021  0.15520  Biso   1.000  H
  H622     1.0000 0.97320  0.65921  0.18280  Biso   1.000  H
  C764     1.0000 0.00395  0.61869  0.16701  Biso   1.000  C
  C765     1.0000 0.51258  0.44367  0.13794  Biso   1.000  C
  C766     1.0000 0.49730  0.50916  0.15763  Biso   1.000  C
  H623     1.0000 0.48671  0.56600  0.17290  Biso   1.000  H
  C767     1.0000 0.93110  0.48741  0.13794  Biso   1.000  C
  C768     1.0000 0.99188  0.57357  0.15486  Biso   1.000  C
  H624     1.0000 0.03991  0.64388  0.17020  Biso   1.000  H
  C769     1.0000 0.46352  0.40216  0.15089  Biso   1.000  C
  C770     1.0000 0.49372  0.45837  0.11643  Biso   1.000  C
  H625     1.0000 0.53929  0.43238  0.13500  Biso   1.000  H
  C771     1.0000 0.44333  0.47382  0.14589  Biso   1.000  C
  C772     1.0000 0.96465  0.50626  0.11643  Biso   1.000  C
  H626     1.0000 0.89309  0.46071  0.13500  Biso   1.000  H
  C773     1.0000 0.95973  0.46645  0.15332  Biso   1.000  C
  C774     1.0000 0.03050  0.55665  0.14589  Biso   1.000  C
  C775     1.0000 0.45458  0.35415  0.15824  Biso   1.000  C
  C776     1.0000 0.42646  0.41832  0.15486  Biso   1.000  C
  C777     1.0000 0.45557  0.47422  0.12118  Biso   1.000  C
  C778     1.0000 0.51047  0.45817  0.09465  Biso   1.000  C
  H627     1.0000 0.41679  0.48531  0.14900  Biso   1.000  H
  C779     1.0000 0.94771  0.48955  0.09465  Biso   1.000  C
  C780     1.0000 0.01865  0.54441  0.12118  Biso   1.000  C
  C781     1.0000 0.93596  0.41602  0.16332  Biso   1.000  C
  C782     1.0000 0.01188  0.50274  0.15763  Biso   1.000  C
  H628     1.0000 0.06850  0.58319  0.14900  Biso   1.000  H
  C783     1.0000 0.40885  0.32095  0.17020  Biso   1.000  C
  H629     1.0000 0.47981  0.34341  0.15520  Biso   1.000  H
  C784     1.0000 0.38131  0.38524  0.16701  Biso   1.000  C
  C785     1.0000 0.43555  0.48907  0.10305  Biso   1.000  C
  C786     1.0000 0.49117  0.47632  0.07700  Biso   1.000  C
  H630     1.0000 0.53461  0.44601  0.09149  Biso   1.000  H
  C787     1.0000 0.98515  0.50884  0.07700  Biso   1.000  C
  H631     1.0000 0.91138  0.46538  0.09149  Biso   1.000  H
  C788     1.0000 0.05351  0.56446  0.10305  Biso   1.000  C
  C789     1.0000 0.96528  0.40228  0.17723  Biso   1.000  C
  H632     1.0000 0.89970  0.39138  0.16050  Biso   1.000  H
  C790     1.0000 0.04266  0.48903  0.17084  Biso   1.000  C
  N62      1.0000 0.40200  0.26965  0.17660  Biso   1.000  N
  C791     1.0000 0.37227  0.33664  0.17456  Biso   1.000  C
  H633     1.0000 0.35609  0.39602  0.17020  Biso   1.000  H
  C792     1.0000 0.45351  0.49062  0.08090  Biso   1.000  C
  H634     1.0000 0.40909  0.49838  0.10580  Biso   1.000  H
  N63      1.0000 0.51488  0.48174  0.05468  Biso   1.000  N
  N64      1.0000 0.96689  0.48515  0.05468  Biso   1.000  N
  C793     1.0000 0.03710  0.54647  0.08090  Biso   1.000  C
  H635     1.0000 0.08931  0.59092  0.10580  Biso   1.000  H
  N65      1.0000 0.94541  0.35328  0.18876  Biso   1.000  N
  C794     1.0000 0.01921  0.43940  0.18099  Biso   1.000  C
  H636     1.0000 0.07929  0.51331  0.17290  Biso   1.000  H
  C795     1.0000 0.36532  0.23986  0.19020  Biso   1.000  C
  H637     1.0000 0.34082  0.31402  0.18280  Biso   1.000  H
  H638     1.0000 0.43992  0.50151  0.06859  Biso   1.000  H
  C796     1.0000 0.52664  0.52373  0.04303  Biso   1.000  C
  C797     1.0000 0.99711  0.47334  0.04303  Biso   1.000  C
  H639     1.0000 0.06159  0.56010  0.06859  Biso   1.000  H
  C798     1.0000 0.90532  0.31330  0.18124  Biso   1.000  C
  H640     1.0000 0.03970  0.43028  0.19061  Biso   1.000  H
  C799     1.0000 0.35658  0.18698  0.19644  Biso   1.000  C
  H641     1.0000 0.34301  0.25171  0.19650  Biso   1.000  H
  C800     1.0000 0.55318  0.53530  0.02126  Biso   1.000  C
  H642     1.0000 0.51738  0.54829  0.04910  Biso   1.000  H
  C801     1.0000 0.98214  0.44684  0.02126  Biso   1.000  C
  H643     1.0000 0.03091  0.48261  0.04910  Biso   1.000  H
  C802     1.0000 0.88272  0.26042  0.19209  Biso   1.000  C
  H644     1.0000 0.88850  0.31691  0.16800  Biso   1.000  H
  C803     1.0000 0.31797  0.15703  0.21151  Biso   1.000  C
  C804     1.0000 0.38762  0.16753  0.18608  Biso   1.000  C
  C805     1.0000 0.56909  0.58406  0.01123  Biso   1.000  C
  C806     1.0000 0.56513  0.49929  0.01013  Biso   1.000  C
  C807     1.0000 0.93417  0.43488  0.01013  Biso   1.000  C
  C808     1.0000 0.01497  0.43092  0.01123  Biso   1.000  C
  C809     1.0000 0.83247  0.22009  0.18608  Biso   1.000  C
  C810     1.0000 0.91262  0.25016  0.20800  Biso   1.000  C
  H645     1.0000 0.29789  0.17121  0.21800  Biso   1.000  H
  C811     1.0000 0.30598  0.10553  0.21795  Biso   1.000  C
  C812     1.0000 0.37770  0.11730  0.19209  Biso   1.000  C
  O31      1.0000 0.42678  0.19633  0.17092  Biso   1.000  O
  H646     1.0000 0.55979  0.60760  0.01840  Biso   1.000  H
  C813     1.0000 0.59860  0.59999  0.99070  Biso   1.000  C
  O32      1.0000 0.55020  0.45084  0.01977  Biso   1.000  O
  C814     1.0000 0.59172  0.51213  0.98992  Biso   1.000  C
  C815     1.0000 0.92041  0.40826  0.98992  Biso   1.000  C
  O33      1.0000 0.90068  0.44981  0.01977  Biso   1.000  O
  C816     1.0000 0.00138  0.40141  0.99070  Biso   1.000  C
  H647     1.0000 0.04781  0.44019  0.01840  Biso   1.000  H
  C817     1.0000 0.81304  0.16963  0.19644  Biso   1.000  C
  O34      1.0000 0.80370  0.23047  0.17092  Biso   1.000  O
  C818     1.0000 0.89445  0.20045  0.21795  Biso   1.000  C
  H648     1.0000 0.94668  0.27829  0.21221  Biso   1.000  H
  C819     1.0000 0.26191  0.07467  0.23490  Biso   1.000  C
  C820     1.0000 0.33754  0.08735  0.20800  Biso   1.000  C
  C821     1.0000 0.40800  0.09468  0.18124  Biso   1.000  C
  H649     1.0000 0.42872  0.22572  0.16880  Biso   1.000  H
  C822     1.0000 0.60777  0.56145  0.98006  Biso   1.000  C
  C823     1.0000 0.61673  0.65430  0.98105  Biso   1.000  C
  H650     1.0000 0.53419  0.44791  0.03209  Biso   1.000  H
  C824     1.0000 0.60268  0.47422  0.97794  Biso   1.000  C
  C825     1.0000 0.87155  0.39733  0.97794  Biso   1.000  C
  C826     1.0000 0.95366  0.39222  0.98006  Biso   1.000  C
  H651     1.0000 0.91372  0.46582  0.03209  Biso   1.000  H
  C827     1.0000 0.03756  0.38326  0.98105  Biso   1.000  C
  C828     1.0000 0.76015  0.12546  0.19020  Biso   1.000  C
  C829     1.0000 0.84297  0.16095  0.21151  Biso   1.000  C
  H652     1.0000 0.77428  0.20298  0.16880  Biso   1.000  H
  C830     1.0000 0.92535  0.18725  0.23490  Biso   1.000  C
  C831     1.0000 0.25490  0.01854  0.23897  Biso   1.000  C
  C832     1.0000 0.21120  0.06746  0.22668  Biso   1.000  C
  C833     1.0000 0.27765  0.10327  0.25840  Biso   1.000  C
  H653     1.0000 0.33159  0.05328  0.21221  Biso   1.000  H
  N66      1.0000 0.40786  0.05459  0.18876  Biso   1.000  N
  H654     1.0000 0.42839  0.11151  0.16800  Biso   1.000  H
  H655     1.0000 0.62541  0.56949  0.96570  Biso   1.000  H
  C834     1.0000 0.65187  0.66448  0.95984  Biso   1.000  C
  C835     1.0000 0.64986  0.69641  0.99923  Biso   1.000  C
  C836     1.0000 0.56955  0.65909  0.97455  Biso   1.000  C
  N67      1.0000 0.62968  0.48622  0.95929  Biso   1.000  N
  H656     1.0000 0.58941  0.43979  0.98419  Biso   1.000  H
  N68      1.0000 0.85653  0.37031  0.95929  Biso   1.000  N
  H657     1.0000 0.85040  0.41060  0.98419  Biso   1.000  H
  H658     1.0000 0.94409  0.37459  0.96570  Biso   1.000  H
  C837     1.0000 0.01262  0.34813  0.95984  Biso   1.000  C
  C838     1.0000 0.04653  0.35015  0.99923  Biso   1.000  C
  C839     1.0000 0.08952  0.43044  0.97455  Biso   1.000  C
  N69      1.0000 0.73035  0.13235  0.17660  Biso   1.000  N
  H659     1.0000 0.74832  0.09131  0.19650  Biso   1.000  H
  H660     1.0000 0.82879  0.12668  0.21800  Biso   1.000  H
  C840     1.0000 0.98148  0.23638  0.23897  Biso   1.000  C
  C841     1.0000 0.93251  0.14372  0.22668  Biso   1.000  C
  C842     1.0000 0.89672  0.17438  0.25840  Biso   1.000  C
  H661     1.0000 0.28640  0.02210  0.24669  Biso   1.000  H
  H662     1.0000 0.25031  0.00071  0.22431  Biso   1.000  H
  H663     1.0000 0.22371  0.99758  0.24850  Biso   1.000  H
  H664     1.0000 0.21222  0.10161  0.22690  Biso   1.000  H
  H665     1.0000 0.18261  0.04239  0.23659  Biso   1.000  H
  H666     1.0000 0.20488  0.05360  0.21099  Biso   1.000  H
  H667     1.0000 0.28929  0.14091  0.25630  Biso   1.000  H
  H668     1.0000 0.30660  0.09971  0.26510  Biso   1.000  H
  H669     1.0000 0.24699  0.08731  0.26870  Biso   1.000  H
  C843     1.0000 0.43699  0.03470  0.17723  Biso   1.000  C
  H670     1.0000 0.63129  0.63861  0.94790  Biso   1.000  H
  H671     1.0000 0.68251  0.66092  0.96399  Biso   1.000  H
  H672     1.0000 0.66411  0.70041  0.95410  Biso   1.000  H
  H673     1.0000 0.68171  0.69451  0.00270  Biso   1.000  H
  H674     1.0000 0.62871  0.68971  0.01311  Biso   1.000  H
  H675     1.0000 0.66010  0.73171  0.99330  Biso   1.000  H
  H676     1.0000 0.55201  0.66139  0.98840  Biso   1.000  H
  H677     1.0000 0.54481  0.62792  0.96570  Biso   1.000  H
  H678     1.0000 0.58110  0.69110  0.96529  Biso   1.000  H
  C844     1.0000 0.64051  0.44847  0.94882  Biso   1.000  C
  C845     1.0000 0.80797  0.35949  0.94882  Biso   1.000  C
  H679     1.0000 0.97840  0.31750  0.96399  Biso   1.000  H
  H680     1.0000 0.00729  0.36868  0.94790  Biso   1.000  H
  H681     1.0000 0.03631  0.33588  0.95410  Biso   1.000  H
  H682     1.0000 0.07159  0.33989  0.99330  Biso   1.000  H
  H683     1.0000 0.01280  0.31830  0.00270  Biso   1.000  H
  H684     1.0000 0.06101  0.37130  0.01311  Biso   1.000  H
  H685     1.0000 0.10941  0.44799  0.98840  Biso   1.000  H
  H686     1.0000 0.08310  0.45520  0.96570  Biso   1.000  H
  H687     1.0000 0.11000  0.41892  0.96529  Biso   1.000  H
  C846     1.0000 0.67903  0.08790  0.17020  Biso   1.000  C
  H688     1.0000 0.97791  0.26430  0.24669  Biso   1.000  H
  H689     1.0000 0.99931  0.24961  0.22431  Biso   1.000  H
  H690     1.0000 0.00242  0.22612  0.24850  Biso   1.000  H
  H691     1.0000 0.89842  0.11060  0.22690  Biso   1.000  H
  H692     1.0000 0.95761  0.14019  0.23659  Biso   1.000  H
  H693     1.0000 0.94638  0.15128  0.21099  Biso   1.000  H
  H694     1.0000 0.85909  0.14839  0.25630  Biso   1.000  H
  H695     1.0000 0.90029  0.20690  0.26510  Biso   1.000  H
  H696     1.0000 0.91270  0.15968  0.26870  Biso   1.000  H
  C847     1.0000 0.48007  0.06406  0.16332  Biso   1.000  C
  C848     1.0000 0.42019  0.98079  0.18099  Biso   1.000  C
  C849     1.0000 0.64450  0.45076  0.92525  Biso   1.000  C
  C850     1.0000 0.64780  0.41206  0.96114  Biso   1.000  C
  C851     1.0000 0.76429  0.35221  0.96114  Biso   1.000  C
  C852     1.0000 0.80624  0.35549  0.92525  Biso   1.000  C
  C853     1.0000 0.64584  0.10042  0.15824  Biso   1.000  C
  C854     1.0000 0.66337  0.03565  0.17456  Biso   1.000  C
  H697     1.0000 0.49171  0.10030  0.16050  Biso   1.000  H
  C855     1.0000 0.50675  0.04029  0.15332  Biso   1.000  C
  C856     1.0000 0.44639  0.95738  0.17084  Biso   1.000  C
  H698     1.0000 0.39060  0.96031  0.19061  Biso   1.000  H
  C857     1.0000 0.65171  0.41392  0.91314  Biso   1.000  C
  H699     1.0000 0.64229  0.47790  0.91720  Biso   1.000  H
  C858     1.0000 0.65757  0.37597  0.94909  Biso   1.000  C
  H700     1.0000 0.64619  0.41139  0.97739  Biso   1.000  H
  C859     1.0000 0.71840  0.34242  0.94909  Biso   1.000  C
  H701     1.0000 0.76518  0.35379  0.97739  Biso   1.000  H
  C860     1.0000 0.76219  0.34828  0.91314  Biso   1.000  C
  H702     1.0000 0.83562  0.35771  0.91720  Biso   1.000  H
  C861     1.0000 0.59784  0.06136  0.15089  Biso   1.000  C
  H703     1.0000 0.65659  0.13639  0.15520  Biso   1.000  H
  C862     1.0000 0.61475  0.99604  0.16701  Biso   1.000  C
  H704     1.0000 0.68602  0.02682  0.18280  Biso   1.000  H
  C863     1.0000 0.55633  0.06893  0.13794  Biso   1.000  C
  C864     1.0000 0.49088  0.98812  0.15763  Biso   1.000  C
  H705     1.0000 0.43398  0.92069  0.17290  Biso   1.000  H
  C865     1.0000 0.65758  0.37689  0.92501  Biso   1.000  C
  H706     1.0000 0.65263  0.41452  0.89690  Biso   1.000  H
  C866     1.0000 0.66671  0.33331  0.95904  Biso   1.000  C
  C867     1.0000 0.71929  0.34242  0.92501  Biso   1.000  C
  H707     1.0000 0.76189  0.34741  0.89690  Biso   1.000  H
  C868     1.0000 0.58168  0.00812  0.15486  Biso   1.000  C
  H708     1.0000 0.60406  0.96011  0.17020  Biso   1.000  H
  C869     1.0000 0.54163  0.03534  0.11643  Biso   1.000  C
  H709     1.0000 0.56761  0.10692  0.13500  Biso   1.000  H
  C870     1.0000 0.52623  0.96954  0.14589  Biso   1.000  C
  C871     1.0000 0.66671  0.33331  0.91490  Biso   1.000  C
  H710     1.0000 0.66671  0.33331  0.97609  Biso   1.000  H
  C872     1.0000 0.62403  0.28157  0.94909  Biso   1.000  C
  C873     1.0000 0.54184  0.05229  0.09465  Biso   1.000  C
  C874     1.0000 0.52578  0.98134  0.12118  Biso   1.000  C
  H711     1.0000 0.51473  0.93151  0.14900  Biso   1.000  H
  H712     1.0000 0.66671  0.33331  0.89779  Biso   1.000  H
  C875     1.0000 0.62311  0.28070  0.92501  Biso   1.000  C
  C876     1.0000 0.58794  0.23574  0.96114  Biso   1.000  C
  C877     1.0000 0.52371  0.01486  0.07700  Biso   1.000  C
  H713     1.0000 0.55400  0.08862  0.09149  Biso   1.000  H
  C878     1.0000 0.51096  0.94648  0.10305  Biso   1.000  C
  C879     1.0000 0.58609  0.23780  0.91314  Biso   1.000  C
  C880     1.0000 0.55155  0.19205  0.94882  Biso   1.000  C
  H714     1.0000 0.58859  0.23479  0.97739  Biso   1.000  H
  N70      1.0000 0.51826  0.03312  0.05468  Biso   1.000  N
  C881     1.0000 0.50938  0.96288  0.08090  Biso   1.000  C
  H715     1.0000 0.50165  0.91071  0.10580  Biso   1.000  H
  C882     1.0000 0.54924  0.19375  0.92525  Biso   1.000  C
  H716     1.0000 0.58552  0.23812  0.89690  Biso   1.000  H
  N71      1.0000 0.51378  0.14348  0.95929  Biso   1.000  N
  C883     1.0000 0.47625  0.00289  0.04303  Biso   1.000  C
  H717     1.0000 0.49855  0.93840  0.06859  Biso   1.000  H
  H718     1.0000 0.52211  0.16440  0.91720  Biso   1.000  H
  C884     1.0000 0.52577  0.12843  0.97794  Biso   1.000  C
  C885     1.0000 0.46469  0.01787  0.02126  Biso   1.000  C
  H719     1.0000 0.45170  0.96910  0.04910  Biso   1.000  H
  C886     1.0000 0.48787  0.07958  0.98992  Biso   1.000  C
  H720     1.0000 0.56019  0.14958  0.98419  Biso   1.000  H
  C887     1.0000 0.50072  0.06584  0.01013  Biso   1.000  C
  C888     1.0000 0.41599  0.98503  0.01123  Biso   1.000  C
  C889     1.0000 0.43856  0.04635  0.98006  Biso   1.000  C
  O35      1.0000 0.54914  0.09935  0.01977  Biso   1.000  O
  C890     1.0000 0.40004  0.99861  0.99070  Biso   1.000  C
  H721     1.0000 0.39244  0.95219  0.01840  Biso   1.000  H
  H722     1.0000 0.43050  0.05589  0.96570  Biso   1.000  H
  H723     1.0000 0.55210  0.08632  0.03209  Biso   1.000  H
  C891     1.0000 0.34570  0.96245  0.98105  Biso   1.000  C
  C892     1.0000 0.33553  0.98740  0.95984  Biso   1.000  C
  C893     1.0000 0.30360  0.95345  0.99923  Biso   1.000  C
  C894     1.0000 0.34091  0.91047  0.97455  Biso   1.000  C
  H724     1.0000 0.36145  0.99271  0.94790  Biso   1.000  H
  H725     1.0000 0.29960  0.96371  0.95410  Biso   1.000  H
  H726     1.0000 0.33911  0.02159  0.96399  Biso   1.000  H
  H727     1.0000 0.26830  0.92842  0.99330  Biso   1.000  H
  H728     1.0000 0.30552  0.98720  0.00270  Biso   1.000  H
  H729     1.0000 0.31030  0.93899  0.01311  Biso   1.000  H
  H730     1.0000 0.33858  0.89059  0.98840  Biso   1.000  H
  H731     1.0000 0.37208  0.91689  0.96570  Biso   1.000  H
  H732     1.0000 0.30889  0.88999  0.96529  Biso   1.000  H
  C895     1.0000 0.72232  0.89670  0.74160  Biso   1.000  C
  C896     1.0000 0.73808  0.92534  0.76510  Biso   1.000  C
  H733     1.0000 0.71069  0.85910  0.74370  Biso   1.000  H
  H734     1.0000 0.69338  0.90030  0.73490  Biso   1.000  H
  H735     1.0000 0.75300  0.91270  0.73130  Biso   1.000  H
  C897     1.0000 0.69399  0.89444  0.78205  Biso   1.000  C
  C898     1.0000 0.74508  0.98147  0.76103  Biso   1.000  C
  C899     1.0000 0.78877  0.93251  0.77332  Biso   1.000  C
  C900     1.0000 0.68205  0.84298  0.78849  Biso   1.000  C
  C901     1.0000 0.66246  0.91262  0.79200  Biso   1.000  C
  H736     1.0000 0.71359  0.97790  0.75331  Biso   1.000  H
  H737     1.0000 0.74971  0.99930  0.77569  Biso   1.000  H
  H738     1.0000 0.77626  0.00239  0.75150  Biso   1.000  H
  H739     1.0000 0.78780  0.89840  0.77310  Biso   1.000  H
  H740     1.0000 0.81740  0.95758  0.76341  Biso   1.000  H
  H741     1.0000 0.79510  0.94641  0.78901  Biso   1.000  H
  C902     1.0000 0.64340  0.81303  0.80356  Biso   1.000  C
  H742     1.0000 0.70209  0.82880  0.78200  Biso   1.000  H
  C903     1.0000 0.62229  0.88271  0.80791  Biso   1.000  C
  H743     1.0000 0.66841  0.94669  0.78779  Biso   1.000  H
  C904     1.0000 0.63468  0.76011  0.80980  Biso   1.000  C
  C905     1.0000 0.61241  0.83248  0.81392  Biso   1.000  C
  C906     1.0000 0.59200  0.90529  0.81876  Biso   1.000  C
  N72      1.0000 0.59800  0.73032  0.82340  Biso   1.000  N
  H744     1.0000 0.65701  0.74830  0.80350  Biso   1.000  H
  O36      1.0000 0.57320  0.80368  0.82908  Biso   1.000  O
  N73      1.0000 0.59213  0.94542  0.81124  Biso   1.000  N
  H745     1.0000 0.57159  0.88850  0.83200  Biso   1.000  H
  C907     1.0000 0.59111  0.67902  0.82980  Biso   1.000  C
  H746     1.0000 0.57130  0.77429  0.83120  Biso   1.000  H
  C908     1.0000 0.56300  0.96531  0.82277  Biso   1.000  C
  C909     1.0000 0.54542  0.64582  0.84176  Biso   1.000  C
  C910     1.0000 0.62772  0.66337  0.82544  Biso   1.000  C
  C911     1.0000 0.51992  0.93595  0.83668  Biso   1.000  C
  C912     1.0000 0.57980  0.01922  0.81901  Biso   1.000  C
  C913     1.0000 0.53646  0.59785  0.84911  Biso   1.000  C
  H747     1.0000 0.52021  0.65660  0.84480  Biso   1.000  H
  C914     1.0000 0.61871  0.61477  0.83299  Biso   1.000  C
  H748     1.0000 0.65920  0.68599  0.81720  Biso   1.000  H
  H749     1.0000 0.50831  0.89971  0.83950  Biso   1.000  H
  C915     1.0000 0.49327  0.95972  0.84668  Biso   1.000  C
  C916     1.0000 0.55363  0.04263  0.82916  Biso   1.000  C
  H750     1.0000 0.60939  0.03970  0.80939  Biso   1.000  H
  C917     1.0000 0.48740  0.55634  0.86206  Biso   1.000  C
  C918     1.0000 0.57356  0.58169  0.84514  Biso   1.000  C
  H751     1.0000 0.64389  0.60399  0.82980  Biso   1.000  H
  C919     1.0000 0.44369  0.93108  0.86206  Biso   1.000  C
  C920     1.0000 0.50912  0.01185  0.84237  Biso   1.000  C
  H752     1.0000 0.56597  0.07932  0.82710  Biso   1.000  H
  C921     1.0000 0.46645  0.50674  0.84668  Biso   1.000  C
  C922     1.0000 0.50630  0.54164  0.88357  Biso   1.000  C
  H753     1.0000 0.46068  0.56759  0.86500  Biso   1.000  H
  C923     1.0000 0.55666  0.52619  0.85411  Biso   1.000  C
  C924     1.0000 0.40217  0.93861  0.84911  Biso   1.000  C
  C925     1.0000 0.45839  0.96467  0.88357  Biso   1.000  C
  H754     1.0000 0.43241  0.89309  0.86500  Biso   1.000  H
  C926     1.0000 0.47379  0.03047  0.85411  Biso   1.000  C
  C927     1.0000 0.41603  0.48008  0.83668  Biso   1.000  C
  C928     1.0000 0.50273  0.49085  0.84237  Biso   1.000  C
  C929     1.0000 0.54440  0.52575  0.87882  Biso   1.000  C
  C930     1.0000 0.48955  0.54184  0.90535  Biso   1.000  C
  H755     1.0000 0.58319  0.51470  0.85100  Biso   1.000  H
  C931     1.0000 0.35415  0.89959  0.84176  Biso   1.000  C
  C932     1.0000 0.41834  0.99189  0.84514  Biso   1.000  C
  C933     1.0000 0.45818  0.94772  0.90535  Biso   1.000  C
  C934     1.0000 0.47418  0.01863  0.87882  Biso   1.000  C
  H756     1.0000 0.48530  0.06850  0.85100  Biso   1.000  H
  C935     1.0000 0.40227  0.43698  0.82277  Biso   1.000  C
  H757     1.0000 0.39141  0.49169  0.83950  Biso   1.000  H
  C936     1.0000 0.48902  0.44637  0.82916  Biso   1.000  C
  C937     1.0000 0.56443  0.51094  0.89695  Biso   1.000  C
  C938     1.0000 0.50885  0.52369  0.92300  Biso   1.000  C
  H758     1.0000 0.46541  0.55400  0.90851  Biso   1.000  H
  C939     1.0000 0.32099  0.91211  0.82980  Biso   1.000  C
  H759     1.0000 0.34340  0.86362  0.84480  Biso   1.000  H
  C940     1.0000 0.38525  0.00393  0.83299  Biso   1.000  C
  C941     1.0000 0.47632  0.98515  0.92300  Biso   1.000  C
  H760     1.0000 0.44599  0.91139  0.90851  Biso   1.000  H
  C942     1.0000 0.48906  0.05353  0.89695  Biso   1.000  C
  N74      1.0000 0.35327  0.40786  0.81124  Biso   1.000  N
  C943     1.0000 0.43940  0.42018  0.81901  Biso   1.000  C
  H761     1.0000 0.51331  0.43401  0.82710  Biso   1.000  H
  C944     1.0000 0.54647  0.50939  0.91910  Biso   1.000  C
  H762     1.0000 0.59091  0.50159  0.89420  Biso   1.000  H
  N75      1.0000 0.48514  0.51827  0.94532  Biso   1.000  N
  N76      1.0000 0.26967  0.86766  0.82340  Biso   1.000  N
  C945     1.0000 0.33662  0.96436  0.82544  Biso   1.000  C
  H763     1.0000 0.39597  0.03990  0.82980  Biso   1.000  H
  N77      1.0000 0.48171  0.96685  0.94532  Biso   1.000  N
  C946     1.0000 0.49058  0.03709  0.91910  Biso   1.000  C
  H764     1.0000 0.49837  0.08930  0.89420  Biso   1.000  H
  C947     1.0000 0.31329  0.40798  0.81876  Biso   1.000  C
  H765     1.0000 0.43030  0.39059  0.80939  Biso   1.000  H
  H766     1.0000 0.56010  0.49850  0.93141  Biso   1.000  H
  C948     1.0000 0.47336  0.47624  0.95697  Biso   1.000  C
  C949     1.0000 0.23988  0.87455  0.80980  Biso   1.000  C
  H767     1.0000 0.31400  0.97319  0.81720  Biso   1.000  H
  C950     1.0000 0.52374  0.99712  0.95697  Biso   1.000  C
  H768     1.0000 0.50147  0.06161  0.93141  Biso   1.000  H
  C951     1.0000 0.26042  0.37772  0.80791  Biso   1.000  C
  H769     1.0000 0.31691  0.42838  0.83200  Biso   1.000  H
  C952     1.0000 0.44684  0.46471  0.97874  Biso   1.000  C
  H770     1.0000 0.48261  0.45172  0.95090  Biso   1.000  H
  C953     1.0000 0.18698  0.83038  0.80356  Biso   1.000  C
  H771     1.0000 0.25170  0.90870  0.80350  Biso   1.000  H
  C954     1.0000 0.53529  0.98214  0.97874  Biso   1.000  C
  H772     1.0000 0.54832  0.03091  0.95090  Biso   1.000  H
  C955     1.0000 0.25018  0.33755  0.79200  Biso   1.000  C
  C956     1.0000 0.22009  0.38762  0.81392  Biso   1.000  C
  C957     1.0000 0.43090  0.41594  0.98877  Biso   1.000  C
  C958     1.0000 0.43489  0.50072  0.98987  Biso   1.000  C
  C959     1.0000 0.16751  0.77992  0.81392  Biso   1.000  C
  C960     1.0000 0.15702  0.83906  0.78849  Biso   1.000  C
  C961     1.0000 0.49930  0.93417  0.98987  Biso   1.000  C
  C962     1.0000 0.58404  0.01494  0.98877  Biso   1.000  C
  C963     1.0000 0.20045  0.30602  0.78205  Biso   1.000  C
  H773     1.0000 0.27829  0.33161  0.78779  Biso   1.000  H
  C964     1.0000 0.16962  0.35660  0.80356  Biso   1.000  C
  O37      1.0000 0.23048  0.42680  0.82908  Biso   1.000  O
  H774     1.0000 0.44019  0.39241  0.98160  Biso   1.000  H
  C965     1.0000 0.40139  0.40002  0.00930  Biso   1.000  C
  O38      1.0000 0.44982  0.54917  0.98023  Biso   1.000  O
  C966     1.0000 0.40825  0.48784  0.01008  Biso   1.000  C
  C967     1.0000 0.11730  0.73959  0.80791  Biso   1.000  C
  O39      1.0000 0.19632  0.76954  0.82908  Biso   1.000  O
  C968     1.0000 0.10557  0.79956  0.78205  Biso   1.000  C
  H775     1.0000 0.17118  0.87328  0.78200  Biso   1.000  H
  C969     1.0000 0.51213  0.92039  0.01008  Biso   1.000  C
  O40      1.0000 0.45084  0.90066  0.98023  Biso   1.000  O
  C970     1.0000 0.59998  0.00140  0.00930  Biso   1.000  C
  H776     1.0000 0.60757  0.04778  0.98160  Biso   1.000  H
  C971     1.0000 0.18726  0.26193  0.76510  Biso   1.000  C
  C972     1.0000 0.16095  0.31798  0.78849  Biso   1.000  C
  C973     1.0000 0.12544  0.36532  0.80980  Biso   1.000  C
  H777     1.0000 0.20299  0.42870  0.83120  Biso   1.000  H
  C974     1.0000 0.39222  0.43856  0.01994  Biso   1.000  C
  C975     1.0000 0.38326  0.34571  0.01895  Biso   1.000  C
  H778     1.0000 0.46580  0.55210  0.96791  Biso   1.000  H
  C976     1.0000 0.39732  0.52575  0.02206  Biso   1.000  C
  C977     1.0000 0.09470  0.68670  0.81876  Biso   1.000  C
  C978     1.0000 0.08735  0.74981  0.79200  Biso   1.000  C
  H779     1.0000 0.22569  0.79699  0.83120  Biso   1.000  H
  C979     1.0000 0.07467  0.81275  0.76510  Biso   1.000  C
  C980     1.0000 0.47423  0.87154  0.02206  Biso   1.000  C
  C981     1.0000 0.56143  0.95366  0.01994  Biso   1.000  C
  H780     1.0000 0.44789  0.91369  0.96791  Biso   1.000  H
  C982     1.0000 0.65429  0.03756  0.01895  Biso   1.000  C
  C983     1.0000 0.17437  0.27765  0.74160  Biso   1.000  C
  C984     1.0000 0.23638  0.25491  0.76103  Biso   1.000  C
  C985     1.0000 0.14372  0.21122  0.77332  Biso   1.000  C
  H781     1.0000 0.12668  0.29790  0.78200  Biso   1.000  H
  N78      1.0000 0.13232  0.40200  0.82340  Biso   1.000  N
  H782     1.0000 0.09130  0.34302  0.80350  Biso   1.000  H
  H783     1.0000 0.37459  0.43048  0.03430  Biso   1.000  H
  C986     1.0000 0.34815  0.33553  0.04016  Biso   1.000  C
  C987     1.0000 0.35013  0.30360  0.00077  Biso   1.000  C
  C988     1.0000 0.43043  0.34092  0.02545  Biso   1.000  C
  N79      1.0000 0.37031  0.51379  0.04071  Biso   1.000  N
  H784     1.0000 0.41061  0.56022  0.01581  Biso   1.000  H
  N80      1.0000 0.05461  0.64673  0.81124  Biso   1.000  N
  H785     1.0000 0.11149  0.68310  0.83200  Biso   1.000  H
  H786     1.0000 0.05328  0.72168  0.78779  Biso   1.000  H
  C989     1.0000 0.01855  0.76363  0.76103  Biso   1.000  C
  C990     1.0000 0.06746  0.85625  0.77332  Biso   1.000  C
  C991     1.0000 0.10330  0.82563  0.74160  Biso   1.000  C
  N81      1.0000 0.48621  0.85653  0.04071  Biso   1.000  N
  H787     1.0000 0.43981  0.85039  0.01581  Biso   1.000  H
  H788     1.0000 0.56952  0.94411  0.03430  Biso   1.000  H
  C992     1.0000 0.66442  0.01261  0.04016  Biso   1.000  C
  C993     1.0000 0.69637  0.04652  0.00077  Biso   1.000  C
  C994     1.0000 0.65908  0.08954  0.02545  Biso   1.000  C
  H789     1.0000 0.14839  0.28930  0.74370  Biso   1.000  H
  H790     1.0000 0.20689  0.30661  0.73490  Biso   1.000  H
  H791     1.0000 0.15969  0.24699  0.73130  Biso   1.000  H
  H792     1.0000 0.22609  0.22370  0.75150  Biso   1.000  H
  H793     1.0000 0.26431  0.28641  0.75331  Biso   1.000  H
  H794     1.0000 0.24962  0.25032  0.77569  Biso   1.000  H
  H795     1.0000 0.11060  0.21221  0.77310  Biso   1.000  H
  H796     1.0000 0.14020  0.18262  0.76341  Biso   1.000  H
  H797     1.0000 0.15129  0.20488  0.78901  Biso   1.000  H
  C995     1.0000 0.08789  0.40885  0.82980  Biso   1.000  C
  H798     1.0000 0.36870  0.36140  0.05210  Biso   1.000  H
  H799     1.0000 0.31751  0.33909  0.03601  Biso   1.000  H
  H800     1.0000 0.33591  0.29960  0.04590  Biso   1.000  H
  H801     1.0000 0.31831  0.30550  0.99730  Biso   1.000  H
  H802     1.0000 0.37131  0.31029  0.98689  Biso   1.000  H
  H803     1.0000 0.33989  0.26830  0.00670  Biso   1.000  H
  H804     1.0000 0.44802  0.33862  0.01160  Biso   1.000  H
  H805     1.0000 0.45518  0.37209  0.03430  Biso   1.000  H
  H806     1.0000 0.41889  0.30891  0.03471  Biso   1.000  H
  C996     1.0000 0.35951  0.55154  0.05118  Biso   1.000  C
  C997     1.0000 0.03469  0.59769  0.82277  Biso   1.000  C
  H807     1.0000 0.02211  0.73571  0.75331  Biso   1.000  H
  H808     1.0000 0.00071  0.75040  0.77569  Biso   1.000  H
  H809     1.0000 0.99760  0.77389  0.75150  Biso   1.000  H
  H810     1.0000 0.10160  0.88941  0.77310  Biso   1.000  H
  H811     1.0000 0.04242  0.85982  0.76341  Biso   1.000  H
  H812     1.0000 0.05359  0.84868  0.78901  Biso   1.000  H
  H813     1.0000 0.14089  0.85162  0.74370  Biso   1.000  H
  H814     1.0000 0.09970  0.79311  0.73490  Biso   1.000  H
  H815     1.0000 0.08730  0.84029  0.73130  Biso   1.000  H
  C998     1.0000 0.44848  0.80796  0.05118  Biso   1.000  C
  H816     1.0000 0.66091  0.97842  0.03601  Biso   1.000  H
  H817     1.0000 0.63858  0.00730  0.05210  Biso   1.000  H
  H818     1.0000 0.70035  0.03630  0.04590  Biso   1.000  H
  H819     1.0000 0.69447  0.01280  0.99730  Biso   1.000  H
  H820     1.0000 0.68972  0.06101  0.98689  Biso   1.000  H
  H821     1.0000 0.73169  0.07159  0.00670  Biso   1.000  H
  H822     1.0000 0.66138  0.10938  0.01160  Biso   1.000  H
  H823     1.0000 0.62791  0.08312  0.03430  Biso   1.000  H
  H824     1.0000 0.69107  0.11002  0.03471  Biso   1.000  H
  C999     1.0000 0.10042  0.45457  0.84176  Biso   1.000  C
  C1000    1.0000 0.03562  0.37225  0.82544  Biso   1.000  C
  C1001    1.0000 0.35548  0.54924  0.07475  Biso   1.000  C
  C1002    1.0000 0.35219  0.58795  0.03886  Biso   1.000  C
  C1003    1.0000 0.06406  0.58399  0.83668  Biso   1.000  C
  C1004    1.0000 0.98076  0.56057  0.81901  Biso   1.000  C
  C1005    1.0000 0.41208  0.76427  0.03886  Biso   1.000  C
  C1006    1.0000 0.45078  0.80626  0.07475  Biso   1.000  C
  C1007    1.0000 0.06136  0.46352  0.84911  Biso   1.000  C
  H825     1.0000 0.13640  0.47980  0.84480  Biso   1.000  H
  H826     1.0000 0.02679  0.34080  0.81720  Biso   1.000  H
  C1008    1.0000 0.99605  0.38128  0.83299  Biso   1.000  C
  C1009    1.0000 0.34828  0.58609  0.08686  Biso   1.000  C
  H827     1.0000 0.35770  0.52211  0.08280  Biso   1.000  H
  C1010    1.0000 0.34245  0.62404  0.05091  Biso   1.000  C
  H828     1.0000 0.35378  0.58858  0.02261  Biso   1.000  H
  C1011    1.0000 0.04029  0.53356  0.84668  Biso   1.000  C
  H829     1.0000 0.10031  0.60859  0.83950  Biso   1.000  H
  C1012    1.0000 0.95737  0.51098  0.82916  Biso   1.000  C
  H830     1.0000 0.96030  0.56969  0.80939  Biso   1.000  H
  C1013    1.0000 0.37597  0.71839  0.05091  Biso   1.000  C
  H831     1.0000 0.41139  0.76522  0.02261  Biso   1.000  H
  C1014    1.0000 0.41394  0.76221  0.08686  Biso   1.000  C
  H832     1.0000 0.47791  0.83561  0.08280  Biso   1.000  H
  C1015    1.0000 0.06892  0.51260  0.86206  Biso   1.000  C
  C1016    1.0000 0.00810  0.42644  0.84514  Biso   1.000  C
  H833     1.0000 0.96009  0.35609  0.82980  Biso   1.000  H
  C1017    1.0000 0.34240  0.62312  0.07499  Biso   1.000  C
  H834     1.0000 0.34740  0.58549  0.10310  Biso   1.000  H
  C1018    1.0000 0.33332  0.66670  0.04096  Biso   1.000  C
  C1019    1.0000 0.98811  0.49727  0.84237  Biso   1.000  C
  H835     1.0000 0.92069  0.48669  0.82710  Biso   1.000  H
  C1020    1.0000 0.37687  0.71931  0.07499  Biso   1.000  C
  H836     1.0000 0.41450  0.76189  0.10310  Biso   1.000  H
  C1021    1.0000 0.03532  0.49371  0.88357  Biso   1.000  C
  H837     1.0000 0.10690  0.53930  0.86500  Biso   1.000  H
  C1022    1.0000 0.96953  0.44336  0.85411  Biso   1.000  C
  C1023    1.0000 0.33332  0.66670  0.08510  Biso   1.000  C
  C1024    1.0000 0.28159  0.65759  0.05091  Biso   1.000  C
  H838     1.0000 0.33332  0.66670  0.02391  Biso   1.000  H
  C1025    1.0000 0.05231  0.51046  0.90535  Biso   1.000  C
  C1026    1.0000 0.98138  0.45560  0.87882  Biso   1.000  C
  H839     1.0000 0.93152  0.41682  0.85100  Biso   1.000  H
  C1027    1.0000 0.28070  0.65759  0.07499  Biso   1.000  C
  H840     1.0000 0.33332  0.66670  0.10221  Biso   1.000  H
  C1028    1.0000 0.23573  0.64780  0.03886  Biso   1.000  C
  C1029    1.0000 0.01484  0.49117  0.92300  Biso   1.000  C
  H841     1.0000 0.08859  0.53459  0.90851  Biso   1.000  H
  C1030    1.0000 0.94648  0.43555  0.89695  Biso   1.000  C
  C1031    1.0000 0.23780  0.65173  0.08686  Biso   1.000  C
  C1032    1.0000 0.19205  0.64051  0.05118  Biso   1.000  C
  H842     1.0000 0.23480  0.64622  0.02261  Biso   1.000  H
  N82      1.0000 0.03313  0.51486  0.94532  Biso   1.000  N
  C1033    1.0000 0.96292  0.45354  0.91910  Biso   1.000  C
  H843     1.0000 0.91071  0.40909  0.89420  Biso   1.000  H
  C1034    1.0000 0.19375  0.64452  0.07475  Biso   1.000  C
  H844     1.0000 0.23810  0.65260  0.10310  Biso   1.000  H
  N83      1.0000 0.14347  0.62966  0.04071  Biso   1.000  N
  C1035    1.0000 0.00289  0.52662  0.95697  Biso   1.000  C
  H845     1.0000 0.93840  0.43991  0.93141  Biso   1.000  H
  H846     1.0000 0.16440  0.64230  0.08280  Biso   1.000  H
  C1036    1.0000 0.12844  0.60268  0.02206  Biso   1.000  C
  C1037    1.0000 0.01788  0.55317  0.97874  Biso   1.000  C
  H847     1.0000 0.96908  0.51739  0.95090  Biso   1.000  H
  C1038    1.0000 0.07961  0.59175  0.01008  Biso   1.000  C
  H848     1.0000 0.14959  0.58941  0.01581  Biso   1.000  H
  C1039    1.0000 0.06582  0.56513  0.98987  Biso   1.000  C
  C1040    1.0000 0.98505  0.56909  0.98877  Biso   1.000  C
  C1041    1.0000 0.04634  0.60775  0.01994  Biso   1.000  C
  O41      1.0000 0.09935  0.55020  0.98023  Biso   1.000  O
  H849     1.0000 0.95220  0.55978  0.98160  Biso   1.000  H
  C1042    1.0000 0.99861  0.59860  0.00930  Biso   1.000  C
  H850     1.0000 0.05591  0.62538  0.03430  Biso   1.000  H
  H851     1.0000 0.08630  0.53419  0.96791  Biso   1.000  H
  C1043    1.0000 0.96246  0.61675  0.01895  Biso   1.000  C
  C1044    1.0000 0.98739  0.65184  0.04016  Biso   1.000  C
  C1045    1.0000 0.95346  0.64986  0.00077  Biso   1.000  C
  C1046    1.0000 0.91050  0.56957  0.02545  Biso   1.000  C
  H852     1.0000 0.99268  0.63128  0.05210  Biso   1.000  H
  H853     1.0000 0.96369  0.66408  0.04590  Biso   1.000  H
  H854     1.0000 0.02162  0.68250  0.03601  Biso   1.000  H
  H855     1.0000 0.98719  0.68171  0.99730  Biso   1.000  H
  H856     1.0000 0.93901  0.62871  0.98689  Biso   1.000  H
  H857     1.0000 0.92838  0.66008  0.00670  Biso   1.000  H
  H858     1.0000 0.89061  0.55202  0.01160  Biso   1.000  H
  H859     1.0000 0.91692  0.54481  0.03430  Biso   1.000  H
  H860     1.0000 0.88998  0.58109  0.03471  Biso   1.000  H
