data_image0
_cell_length_a       39.28
_cell_length_b       39.28
_cell_length_c       39.78
_cell_angle_alpha    90
_cell_angle_beta     90
_cell_angle_gamma    90

_symmetry_space_group_name_H-M    "P 1"
_symmetry_int_tables_number       1

loop_
  _symmetry_equiv_pos_as_xyz
  'x, y, z'

loop_
  _atom_site_label
  _atom_site_occupancy
  _atom_site_fract_x
  _atom_site_fract_y
  _atom_site_fract_z
  _atom_site_thermal_displace_type
  _atom_site_B_iso_or_equiv
  _atom_site_type_symbol
  C1       1.0000 0.55334  0.56001  0.48376  Biso   1.000  C
  C2       1.0000 0.52948  0.56713  0.45960  Biso   1.000  C
  H1       1.0000 0.56441  0.53849  0.48391  Biso   1.000  H
  C3       1.0000 0.56153  0.58416  0.50822  Biso   1.000  C
  C4       1.0000 0.51344  0.59885  0.45799  Biso   1.000  C
  H2       1.0000 0.52370  0.55010  0.44359  Biso   1.000  H
  C5       1.0000 0.54638  0.61614  0.50626  Biso   1.000  C
  C6       1.0000 0.58360  0.57528  0.53532  Biso   1.000  C
  C7       1.0000 0.48312  0.60308  0.43351  Biso   1.000  C
  C8       1.0000 0.52258  0.62332  0.48140  Biso   1.000  C
  H3       1.0000 0.55239  0.63320  0.52210  Biso   1.000  H
  C9       1.0000 0.60087  0.56652  0.55847  Biso   1.000  C
  C10      1.0000 0.45652  0.57849  0.44867  Biso   1.000  C
  C11      1.0000 0.49300  0.59427  0.39701  Biso   1.000  C
  C12      1.0000 0.47006  0.64005  0.43215  Biso   1.000  C
  H4       1.0000 0.51250  0.64529  0.48039  Biso   1.000  H
  C13      1.0000 0.62093  0.55530  0.58660  Biso   1.000  C
  C14      1.0000 0.44786  0.54794  0.43396  Biso   1.000  C
  C15      1.0000 0.44318  0.58582  0.48049  Biso   1.000  C
  C16      1.0000 0.52655  0.59239  0.38620  Biso   1.000  C
  C17      1.0000 0.46792  0.59206  0.37262  Biso   1.000  C
  C18      1.0000 0.43676  0.64944  0.43876  Biso   1.000  C
  C19      1.0000 0.49254  0.66555  0.42169  Biso   1.000  C
  C20      1.0000 0.64483  0.52966  0.58316  Biso   1.000  C
  N1       1.0000 0.61510  0.57047  0.61724  Biso   1.000  N
  C21      1.0000 0.42556  0.52561  0.44967  Biso   1.000  C
  H5       1.0000 0.45731  0.54211  0.41269  Biso   1.000  H
  C22      1.0000 0.42024  0.56418  0.49595  Biso   1.000  C
  H6       1.0000 0.45000  0.60611  0.49170  Biso   1.000  H
  C23      1.0000 0.53432  0.58824  0.35236  Biso   1.000  C
  H7       1.0000 0.54450  0.59399  0.40221  Biso   1.000  H
  H8       1.0000 0.44470  0.59361  0.37921  Biso   1.000  H
  C24      1.0000 0.47576  0.58765  0.33884  Biso   1.000  C
  H9       1.0000 0.42070  0.63241  0.44460  Biso   1.000  H
  C25      1.0000 0.42637  0.68320  0.43700  Biso   1.000  C
  C26      1.0000 0.48246  0.69885  0.41958  Biso   1.000  C
  H10      1.0000 0.51530  0.65970  0.41599  Biso   1.000  H
  H11      1.0000 0.64819  0.51909  0.56189  Biso   1.000  H
  C27      1.0000 0.66390  0.51945  0.61061  Biso   1.000  C
  C28      1.0000 0.63409  0.56003  0.64442  Biso   1.000  C
  H12      1.0000 0.59829  0.58770  0.61961  Biso   1.000  H
  C29      1.0000 0.41087  0.53404  0.48049  Biso   1.000  C
  H13      1.0000 0.42029  0.50440  0.43929  Biso   1.000  H
  H14      1.0000 0.41090  0.57001  0.51719  Biso   1.000  H
  C30      1.0000 0.50916  0.58615  0.32901  Biso   1.000  C
  H15      1.0000 0.55741  0.58689  0.34550  Biso   1.000  H
  H16      1.0000 0.45810  0.58569  0.32270  Biso   1.000  H
  H17      1.0000 0.40349  0.68910  0.44211  Biso   1.000  H
  C31      1.0000 0.44934  0.70840  0.42778  Biso   1.000  C
  H18      1.0000 0.49829  0.71571  0.41239  Biso   1.000  H
  H19      1.0000 0.68050  0.50201  0.60830  Biso   1.000  H
  C32      1.0000 0.65866  0.53485  0.64120  Biso   1.000  C
  C33      1.0000 0.62711  0.57584  0.67597  Biso   1.000  C
  C34      1.0000 0.38613  0.51222  0.49578  Biso   1.000  C
  O1       1.0000 0.52019  0.58317  0.29618  Biso   1.000  O
  C35      1.0000 0.43867  0.74338  0.42695  Biso   1.000  C
  H20      1.0000 0.67179  0.52821  0.66011  Biso   1.000  H
  C36      1.0000 0.62026  0.58964  0.70196  Biso   1.000  C
  C37      1.0000 0.36487  0.49465  0.50820  Biso   1.000  C
  C38      1.0000 0.49516  0.58248  0.27129  Biso   1.000  C
  C39      1.0000 0.42859  0.77207  0.42745  Biso   1.000  C
  C40      1.0000 0.61232  0.60578  0.73157  Biso   1.000  C
  C41      1.0000 0.33793  0.47416  0.52132  Biso   1.000  C
  H21      1.0000 0.50591  0.58030  0.24920  Biso   1.000  H
  H22      1.0000 0.47999  0.56301  0.27509  Biso   1.000  H
  H23      1.0000 0.48190  0.60359  0.27210  Biso   1.000  H
  C42      1.0000 0.41487  0.80583  0.42959  Biso   1.000  C
  C43      1.0000 0.60573  0.61963  0.75754  Biso   1.000  C
  C44      1.0000 0.32986  0.44277  0.50681  Biso   1.000  C
  C45      1.0000 0.31904  0.48651  0.54804  Biso   1.000  C
  C46      1.0000 0.41446  0.82729  0.40161  Biso   1.000  C
  N2       1.0000 0.40079  0.81568  0.45935  Biso   1.000  N
  C47      1.0000 0.59679  0.63554  0.78856  Biso   1.000  C
  C48      1.0000 0.30344  0.42401  0.51941  Biso   1.000  C
  H24      1.0000 0.34269  0.43450  0.48831  Biso   1.000  H
  C49      1.0000 0.29208  0.46759  0.55980  Biso   1.000  C
  H25      1.0000 0.32459  0.50769  0.55809  Biso   1.000  H
  H26      1.0000 0.42459  0.82029  0.38110  Biso   1.000  H
  C50      1.0000 0.39916  0.85883  0.40410  Biso   1.000  C
  C51      1.0000 0.38554  0.84679  0.46144  Biso   1.000  C
  H27      1.0000 0.40160  0.80109  0.47841  Biso   1.000  H
  C52      1.0000 0.61889  0.63467  0.81624  Biso   1.000  C
  N3       1.0000 0.56568  0.65079  0.79065  Biso   1.000  N
  H28      1.0000 0.29829  0.40239  0.50990  Biso   1.000  H
  C53      1.0000 0.28419  0.43630  0.54585  Biso   1.000  C
  C54      1.0000 0.27324  0.48129  0.58776  Biso   1.000  C
  H29      1.0000 0.39870  0.87360  0.38519  Biso   1.000  H
  C55      1.0000 0.38467  0.86889  0.43376  Biso   1.000  C
  C56      1.0000 0.36963  0.85573  0.49246  Biso   1.000  C
  C57      1.0000 0.60883  0.64916  0.84590  Biso   1.000  C
  H30      1.0000 0.64061  0.62421  0.81440  Biso   1.000  H
  C58      1.0000 0.55583  0.66487  0.82041  Biso   1.000  C
  H31      1.0000 0.55109  0.65160  0.77159  Biso   1.000  H
  H32      1.0000 0.26571  0.42340  0.55440  Biso   1.000  H
  C59      1.0000 0.25950  0.49417  0.61131  Biso   1.000  C
  H33      1.0000 0.37421  0.89061  0.43560  Biso   1.000  H
  C60      1.0000 0.35578  0.86232  0.51843  Biso   1.000  C
  C61      1.0000 0.57729  0.66446  0.84839  Biso   1.000  C
  H34      1.0000 0.62360  0.64870  0.86481  Biso   1.000  H
  C62      1.0000 0.52207  0.67859  0.82255  Biso   1.000  C
  C63      1.0000 0.24417  0.50950  0.63869  Biso   1.000  C
  C64      1.0000 0.33964  0.87026  0.54804  Biso   1.000  C
  H35      1.0000 0.57029  0.67459  0.86890  Biso   1.000  H
  C65      1.0000 0.49338  0.68867  0.82305  Biso   1.000  C
  C66      1.0000 0.23129  0.52324  0.66224  Biso   1.000  C
  C67      1.0000 0.32584  0.87711  0.57403  Biso   1.000  C
  C68      1.0000 0.45840  0.69934  0.82222  Biso   1.000  C
  C69      1.0000 0.21759  0.54208  0.69020  Biso   1.000  C
  C70      1.0000 0.31003  0.88409  0.60558  Biso   1.000  C
  C71      1.0000 0.43320  0.67637  0.81300  Biso   1.000  C
  C72      1.0000 0.44885  0.73246  0.83042  Biso   1.000  C
  C73      1.0000 0.18630  0.53419  0.70415  Biso   1.000  C
  C74      1.0000 0.23651  0.56904  0.70196  Biso   1.000  C
  C75      1.0000 0.28485  0.90866  0.60880  Biso   1.000  C
  N4       1.0000 0.32047  0.86510  0.63276  Biso   1.000  N
  C76      1.0000 0.39944  0.68676  0.81124  Biso   1.000  C
  H36      1.0000 0.43910  0.65349  0.80789  Biso   1.000  H
  C77      1.0000 0.41555  0.74254  0.82831  Biso   1.000  C
  H37      1.0000 0.46571  0.74829  0.83761  Biso   1.000  H
  C78      1.0000 0.17401  0.55344  0.73059  Biso   1.000  C
  H38      1.0000 0.17340  0.51571  0.69560  Biso   1.000  H
  C79      1.0000 0.22416  0.58793  0.72868  Biso   1.000  C
  H39      1.0000 0.25769  0.57459  0.69191  Biso   1.000  H
  C80      1.0000 0.26945  0.91390  0.63939  Biso   1.000  C
  H40      1.0000 0.27821  0.92179  0.58989  Biso   1.000  H
  C81      1.0000 0.30530  0.87093  0.66340  Biso   1.000  C
  H41      1.0000 0.33770  0.84829  0.63039  Biso   1.000  H
  C82      1.0000 0.39005  0.72006  0.81785  Biso   1.000  C
  H42      1.0000 0.38241  0.67070  0.80540  Biso   1.000  H
  H43      1.0000 0.40970  0.76530  0.83401  Biso   1.000  H
  C83      1.0000 0.19277  0.57986  0.74319  Biso   1.000  C
  H44      1.0000 0.15239  0.54829  0.74010  Biso   1.000  H
  C84      1.0000 0.24465  0.61487  0.74180  Biso   1.000  C
  C85      1.0000 0.27966  0.89483  0.66684  Biso   1.000  C
  H45      1.0000 0.25201  0.93050  0.64170  Biso   1.000  H
  C86      1.0000 0.31652  0.85087  0.69153  Biso   1.000  C
  C87      1.0000 0.35308  0.73312  0.81649  Biso   1.000  C
  H46      1.0000 0.18450  0.59269  0.76169  Biso   1.000  H
  C88      1.0000 0.26222  0.63613  0.75422  Biso   1.000  C
  H47      1.0000 0.26909  0.89819  0.68811  Biso   1.000  H
  C89      1.0000 0.32528  0.83360  0.71468  Biso   1.000  C
  C90      1.0000 0.32849  0.70652  0.80133  Biso   1.000  C
  C91      1.0000 0.34427  0.74300  0.85299  Biso   1.000  C
  C92      1.0000 0.34885  0.76344  0.79201  Biso   1.000  C
  C93      1.0000 0.28404  0.66087  0.76951  Biso   1.000  C
  C94      1.0000 0.33416  0.81153  0.74178  Biso   1.000  C
  C95      1.0000 0.29794  0.69786  0.81604  Biso   1.000  C
  C96      1.0000 0.33582  0.69318  0.76951  Biso   1.000  C
  C97      1.0000 0.34239  0.77655  0.86380  Biso   1.000  C
  C98      1.0000 0.34206  0.71792  0.87738  Biso   1.000  C
  C99      1.0000 0.31713  0.77948  0.79040  Biso   1.000  C
  C100     1.0000 0.37332  0.77258  0.76860  Biso   1.000  C
  C101     1.0000 0.27561  0.67556  0.80033  Biso   1.000  C
  C102     1.0000 0.31418  0.67024  0.75405  Biso   1.000  C
  C103     1.0000 0.31001  0.80334  0.76624  Biso   1.000  C
  C104     1.0000 0.36614  0.79638  0.74374  Biso   1.000  C
  H48      1.0000 0.29211  0.70731  0.83731  Biso   1.000  H
  H49      1.0000 0.35611  0.70000  0.75830  Biso   1.000  H
  C105     1.0000 0.33824  0.78432  0.89764  Biso   1.000  C
  H50      1.0000 0.34399  0.79450  0.84779  Biso   1.000  H
  H51      1.0000 0.34361  0.69470  0.87079  Biso   1.000  H
  C106     1.0000 0.33765  0.72576  0.91116  Biso   1.000  C
  H52      1.0000 0.30010  0.77370  0.80641  Biso   1.000  H
  H53      1.0000 0.39529  0.76250  0.76961  Biso   1.000  H
  H54      1.0000 0.25440  0.67029  0.81071  Biso   1.000  H
  H55      1.0000 0.32001  0.66090  0.73281  Biso   1.000  H
  H56      1.0000 0.28849  0.81441  0.76609  Biso   1.000  H
  H57      1.0000 0.38320  0.80239  0.72790  Biso   1.000  H
  C107     1.0000 0.33615  0.75916  0.92099  Biso   1.000  C
  H58      1.0000 0.33689  0.80741  0.90450  Biso   1.000  H
  H59      1.0000 0.33569  0.70810  0.92730  Biso   1.000  H
  O2       1.0000 0.33317  0.77019  0.95382  Biso   1.000  O
  C108     1.0000 0.33248  0.74516  0.97871  Biso   1.000  C
  H60      1.0000 0.31301  0.72999  0.97491  Biso   1.000  H
  H61      1.0000 0.35359  0.73190  0.97790  Biso   1.000  H
  H62      1.0000 0.33030  0.75591  0.00080  Biso   1.000  H
  C109     1.0000 0.44666  0.43999  0.51624  Biso   1.000  C
  C110     1.0000 0.43847  0.41584  0.49178  Biso   1.000  C
  C111     1.0000 0.47052  0.43287  0.54040  Biso   1.000  C
  H63      1.0000 0.43559  0.46151  0.51609  Biso   1.000  H
  C112     1.0000 0.41640  0.42472  0.46468  Biso   1.000  C
  C113     1.0000 0.45362  0.38386  0.49374  Biso   1.000  C
  C114     1.0000 0.48656  0.40115  0.54201  Biso   1.000  C
  H64      1.0000 0.47630  0.44990  0.55641  Biso   1.000  H
  C115     1.0000 0.39913  0.43348  0.44153  Biso   1.000  C
  H65      1.0000 0.44761  0.36680  0.47790  Biso   1.000  H
  C116     1.0000 0.47742  0.37668  0.51860  Biso   1.000  C
  C117     1.0000 0.51688  0.39692  0.56649  Biso   1.000  C
  C118     1.0000 0.37907  0.44470  0.41340  Biso   1.000  C
  H66      1.0000 0.48750  0.35471  0.51961  Biso   1.000  H
  C119     1.0000 0.50700  0.40573  0.60299  Biso   1.000  C
  C120     1.0000 0.54348  0.42151  0.55133  Biso   1.000  C
  C121     1.0000 0.52994  0.35995  0.56785  Biso   1.000  C
  N5       1.0000 0.38490  0.42953  0.38276  Biso   1.000  N
  C122     1.0000 0.35517  0.47034  0.41684  Biso   1.000  C
  C123     1.0000 0.47345  0.40761  0.61380  Biso   1.000  C
  C124     1.0000 0.53208  0.40794  0.62738  Biso   1.000  C
  C125     1.0000 0.55214  0.45206  0.56604  Biso   1.000  C
  C126     1.0000 0.55682  0.41418  0.51951  Biso   1.000  C
  C127     1.0000 0.56324  0.35056  0.56124  Biso   1.000  C
  C128     1.0000 0.50746  0.33445  0.57831  Biso   1.000  C
  C129     1.0000 0.36591  0.43997  0.35558  Biso   1.000  C
  H67      1.0000 0.40171  0.41230  0.38039  Biso   1.000  H
  C130     1.0000 0.33610  0.48055  0.38939  Biso   1.000  C
  H68      1.0000 0.35181  0.48091  0.43811  Biso   1.000  H
  C131     1.0000 0.46568  0.41176  0.64764  Biso   1.000  C
  H69      1.0000 0.45550  0.40601  0.59779  Biso   1.000  H
  H70      1.0000 0.55530  0.40639  0.62079  Biso   1.000  H
  C132     1.0000 0.52424  0.41235  0.66116  Biso   1.000  C
  H71      1.0000 0.54269  0.45789  0.58731  Biso   1.000  H
  C133     1.0000 0.57444  0.47439  0.55033  Biso   1.000  C
  C134     1.0000 0.57976  0.43582  0.50405  Biso   1.000  C
  H72      1.0000 0.55000  0.39389  0.50830  Biso   1.000  H
  H73      1.0000 0.57930  0.36759  0.55540  Biso   1.000  H
  C135     1.0000 0.57363  0.31680  0.56300  Biso   1.000  C
  C136     1.0000 0.51754  0.30115  0.58042  Biso   1.000  C
  H74      1.0000 0.48470  0.34030  0.58401  Biso   1.000  H
  C137     1.0000 0.37289  0.42416  0.32403  Biso   1.000  C
  C138     1.0000 0.34134  0.46515  0.35880  Biso   1.000  C
  H75      1.0000 0.31950  0.49799  0.39170  Biso   1.000  H
  C139     1.0000 0.49084  0.41385  0.67099  Biso   1.000  C
  H76      1.0000 0.44259  0.41311  0.65450  Biso   1.000  H
  H77      1.0000 0.54190  0.41431  0.67730  Biso   1.000  H
  H78      1.0000 0.57971  0.49560  0.56071  Biso   1.000  H
  C140     1.0000 0.58913  0.46596  0.51951  Biso   1.000  C
  H79      1.0000 0.58910  0.42999  0.48281  Biso   1.000  H
  H80      1.0000 0.59651  0.31090  0.55789  Biso   1.000  H
  C141     1.0000 0.55066  0.29160  0.57222  Biso   1.000  C
  H81      1.0000 0.50171  0.28429  0.58761  Biso   1.000  H
  C142     1.0000 0.37974  0.41036  0.29804  Biso   1.000  C
  H82      1.0000 0.32821  0.47179  0.33989  Biso   1.000  H
  O3       1.0000 0.47981  0.41683  0.70382  Biso   1.000  O
  C143     1.0000 0.61387  0.48778  0.50422  Biso   1.000  C
  C144     1.0000 0.56133  0.25662  0.57305  Biso   1.000  C
  C145     1.0000 0.38768  0.39422  0.26843  Biso   1.000  C
  C146     1.0000 0.50484  0.41752  0.72871  Biso   1.000  C
  C147     1.0000 0.63513  0.50535  0.49180  Biso   1.000  C
  C148     1.0000 0.57141  0.22793  0.57255  Biso   1.000  C
  C149     1.0000 0.39427  0.38037  0.24246  Biso   1.000  C
  H83      1.0000 0.49409  0.41970  0.75080  Biso   1.000  H
  H84      1.0000 0.52001  0.43699  0.72491  Biso   1.000  H
  H85      1.0000 0.51810  0.39641  0.72790  Biso   1.000  H
  C150     1.0000 0.66207  0.52584  0.47868  Biso   1.000  C
  C151     1.0000 0.58513  0.19417  0.57041  Biso   1.000  C
  C152     1.0000 0.40321  0.36446  0.21144  Biso   1.000  C
  C153     1.0000 0.67014  0.55723  0.49319  Biso   1.000  C
  C154     1.0000 0.68096  0.51349  0.45196  Biso   1.000  C
  C155     1.0000 0.58554  0.17271  0.59839  Biso   1.000  C
  N6       1.0000 0.59921  0.18432  0.54065  Biso   1.000  N
  C156     1.0000 0.38111  0.36533  0.18376  Biso   1.000  C
  N7       1.0000 0.43432  0.34921  0.20935  Biso   1.000  N
  H86      1.0000 0.65731  0.56550  0.51169  Biso   1.000  H
  C157     1.0000 0.69656  0.57599  0.48059  Biso   1.000  C
  C158     1.0000 0.70792  0.53241  0.44020  Biso   1.000  C
  H87      1.0000 0.67541  0.49231  0.44191  Biso   1.000  H
  H88      1.0000 0.57541  0.17971  0.61890  Biso   1.000  H
  C159     1.0000 0.60084  0.14117  0.59590  Biso   1.000  C
  C160     1.0000 0.61446  0.15321  0.53856  Biso   1.000  C
  H89      1.0000 0.59840  0.19891  0.52159  Biso   1.000  H
  C161     1.0000 0.39117  0.35084  0.15410  Biso   1.000  C
  H90      1.0000 0.35939  0.37579  0.18560  Biso   1.000  H
  C162     1.0000 0.44417  0.33513  0.17959  Biso   1.000  C
  H91      1.0000 0.44891  0.34840  0.22841  Biso   1.000  H
  C163     1.0000 0.71581  0.56370  0.45415  Biso   1.000  C
  H92      1.0000 0.70171  0.59761  0.49010  Biso   1.000  H
  C164     1.0000 0.72676  0.51871  0.41224  Biso   1.000  C
  C165     1.0000 0.61533  0.13111  0.56624  Biso   1.000  C
  H93      1.0000 0.60130  0.12640  0.61481  Biso   1.000  H
  C166     1.0000 0.63037  0.14427  0.50754  Biso   1.000  C
  C167     1.0000 0.42271  0.33554  0.15161  Biso   1.000  C
  H94      1.0000 0.37640  0.35130  0.13519  Biso   1.000  H
  C168     1.0000 0.47793  0.32141  0.17745  Biso   1.000  C
  H95      1.0000 0.73429  0.57660  0.44560  Biso   1.000  H
  C169     1.0000 0.74050  0.50583  0.38869  Biso   1.000  C
  H96      1.0000 0.62579  0.10939  0.56440  Biso   1.000  H
  C170     1.0000 0.64422  0.13768  0.48157  Biso   1.000  C
  H97      1.0000 0.42971  0.32541  0.13110  Biso   1.000  H
  C171     1.0000 0.50662  0.31133  0.17695  Biso   1.000  C
  C172     1.0000 0.75583  0.49050  0.36131  Biso   1.000  C
  C173     1.0000 0.66036  0.12974  0.45196  Biso   1.000  C
  C174     1.0000 0.54160  0.30066  0.17778  Biso   1.000  C
  C175     1.0000 0.76871  0.47676  0.33776  Biso   1.000  C
  C176     1.0000 0.67416  0.12289  0.42597  Biso   1.000  C
  C177     1.0000 0.56680  0.32363  0.18700  Biso   1.000  C
  C178     1.0000 0.55115  0.26754  0.16958  Biso   1.000  C
  C179     1.0000 0.78241  0.45792  0.30980  Biso   1.000  C
  C180     1.0000 0.68997  0.11591  0.39442  Biso   1.000  C
  C181     1.0000 0.60056  0.31324  0.18876  Biso   1.000  C
  H98      1.0000 0.56090  0.34651  0.19211  Biso   1.000  H
  H99      1.0000 0.53429  0.25171  0.16239  Biso   1.000  H
  C182     1.0000 0.58445  0.25746  0.17169  Biso   1.000  C
  C183     1.0000 0.76349  0.43096  0.29804  Biso   1.000  C
  C184     1.0000 0.81370  0.46581  0.29585  Biso   1.000  C
  N8       1.0000 0.67953  0.13490  0.36724  Biso   1.000  N
  C185     1.0000 0.71515  0.09134  0.39120  Biso   1.000  C
  C186     1.0000 0.60995  0.27994  0.18215  Biso   1.000  C
  H100     1.0000 0.61759  0.32930  0.19460  Biso   1.000  H
  H101     1.0000 0.59030  0.23470  0.16599  Biso   1.000  H
  C187     1.0000 0.77584  0.41207  0.27132  Biso   1.000  C
  H102     1.0000 0.74231  0.42541  0.30809  Biso   1.000  H
  C188     1.0000 0.82599  0.44656  0.26941  Biso   1.000  C
  H103     1.0000 0.82660  0.48429  0.30440  Biso   1.000  H
  C189     1.0000 0.69470  0.12907  0.33660  Biso   1.000  C
  H104     1.0000 0.66230  0.15171  0.36961  Biso   1.000  H
  C190     1.0000 0.73055  0.08610  0.36061  Biso   1.000  C
  H105     1.0000 0.72179  0.07821  0.41011  Biso   1.000  H
  C191     1.0000 0.64692  0.26688  0.18351  Biso   1.000  C
  C192     1.0000 0.75535  0.38513  0.25820  Biso   1.000  C
  C193     1.0000 0.80723  0.42014  0.25681  Biso   1.000  C
  H106     1.0000 0.84761  0.45171  0.25990  Biso   1.000  H
  C194     1.0000 0.68348  0.14913  0.30847  Biso   1.000  C
  C195     1.0000 0.72034  0.10517  0.33316  Biso   1.000  C
  H107     1.0000 0.74799  0.06950  0.35830  Biso   1.000  H
  C196     1.0000 0.65573  0.25700  0.14701  Biso   1.000  C
  C197     1.0000 0.65115  0.23656  0.20799  Biso   1.000  C
  C198     1.0000 0.67151  0.29348  0.19867  Biso   1.000  C
  C199     1.0000 0.73778  0.36387  0.24578  Biso   1.000  C
  H108     1.0000 0.81550  0.40731  0.23831  Biso   1.000  H
  C200     1.0000 0.67472  0.16640  0.28532  Biso   1.000  C
  H109     1.0000 0.73091  0.10181  0.31189  Biso   1.000  H
  C201     1.0000 0.65761  0.22345  0.13620  Biso   1.000  C
  C202     1.0000 0.65794  0.28208  0.12262  Biso   1.000  C
  C203     1.0000 0.68287  0.22052  0.20960  Biso   1.000  C
  C204     1.0000 0.62668  0.22742  0.23140  Biso   1.000  C
  C205     1.0000 0.70206  0.30214  0.18396  Biso   1.000  C
  C206     1.0000 0.66418  0.30682  0.23049  Biso   1.000  C
  C207     1.0000 0.71596  0.33913  0.23049  Biso   1.000  C
  C208     1.0000 0.66584  0.18847  0.25822  Biso   1.000  C
  C209     1.0000 0.66176  0.21568  0.10236  Biso   1.000  C
  H110     1.0000 0.65601  0.20550  0.15221  Biso   1.000  H
  H111     1.0000 0.65639  0.30530  0.12921  Biso   1.000  H
  C210     1.0000 0.66235  0.27424  0.08884  Biso   1.000  C
  H112     1.0000 0.69990  0.22630  0.19359  Biso   1.000  H
  C211     1.0000 0.68999  0.19666  0.23376  Biso   1.000  C
  C212     1.0000 0.63386  0.20362  0.25626  Biso   1.000  C
  H113     1.0000 0.60471  0.23750  0.23039  Biso   1.000  H
  H114     1.0000 0.70789  0.29269  0.16269  Biso   1.000  H
  C213     1.0000 0.72439  0.32444  0.19967  Biso   1.000  C
  C214     1.0000 0.68582  0.32976  0.24595  Biso   1.000  C
  H115     1.0000 0.64389  0.30000  0.24170  Biso   1.000  H
  C215     1.0000 0.66385  0.24084  0.07901  Biso   1.000  C
  H116     1.0000 0.66311  0.19259  0.09550  Biso   1.000  H
  H117     1.0000 0.66431  0.29190  0.07270  Biso   1.000  H
  H118     1.0000 0.71151  0.18559  0.23391  Biso   1.000  H
  H119     1.0000 0.61680  0.19761  0.27210  Biso   1.000  H
  H120     1.0000 0.74560  0.32971  0.18929  Biso   1.000  H
  H121     1.0000 0.67999  0.33910  0.26719  Biso   1.000  H
  O4       1.0000 0.66683  0.22981  0.04618  Biso   1.000  O
  C216     1.0000 0.66752  0.25484  0.02129  Biso   1.000  C
  H122     1.0000 0.68699  0.27001  0.02509  Biso   1.000  H
  H123     1.0000 0.64641  0.26810  0.02210  Biso   1.000  H
  H124     1.0000 0.66970  0.24409  0.99920  Biso   1.000  H
  C217     1.0000 0.61533  0.63111  0.43376  Biso   1.000  C
  C218     1.0000 0.60084  0.64117  0.40410  Biso   1.000  C
  H125     1.0000 0.62579  0.60939  0.43560  Biso   1.000  H
  C219     1.0000 0.61446  0.65321  0.46144  Biso   1.000  C
  C220     1.0000 0.58554  0.67271  0.40161  Biso   1.000  C
  H126     1.0000 0.60130  0.62640  0.38519  Biso   1.000  H
  N9       1.0000 0.59921  0.68432  0.45935  Biso   1.000  N
  C221     1.0000 0.63037  0.64427  0.49246  Biso   1.000  C
  C222     1.0000 0.58513  0.69417  0.42959  Biso   1.000  C
  H127     1.0000 0.57541  0.67971  0.38110  Biso   1.000  H
  H128     1.0000 0.59840  0.69891  0.47841  Biso   1.000  H
  C223     1.0000 0.64422  0.63768  0.51843  Biso   1.000  C
  C224     1.0000 0.57141  0.72793  0.42745  Biso   1.000  C
  C225     1.0000 0.66036  0.62974  0.54804  Biso   1.000  C
  C226     1.0000 0.56133  0.75662  0.42695  Biso   1.000  C
  C227     1.0000 0.67416  0.62289  0.57403  Biso   1.000  C
  C228     1.0000 0.55066  0.79160  0.42778  Biso   1.000  C
  C229     1.0000 0.68997  0.61591  0.60558  Biso   1.000  C
  C230     1.0000 0.57363  0.81680  0.43700  Biso   1.000  C
  C231     1.0000 0.51754  0.80115  0.41958  Biso   1.000  C
  C232     1.0000 0.71515  0.59134  0.60880  Biso   1.000  C
  N10      1.0000 0.67953  0.63490  0.63276  Biso   1.000  N
  C233     1.0000 0.56324  0.85056  0.43876  Biso   1.000  C
  H129     1.0000 0.59651  0.81090  0.44211  Biso   1.000  H
  H130     1.0000 0.50171  0.78429  0.41239  Biso   1.000  H
  C234     1.0000 0.50746  0.83445  0.42169  Biso   1.000  C
  C235     1.0000 0.73055  0.58610  0.63939  Biso   1.000  C
  H131     1.0000 0.72179  0.57821  0.58989  Biso   1.000  H
  C236     1.0000 0.69470  0.62907  0.66340  Biso   1.000  C
  H132     1.0000 0.66230  0.65171  0.63039  Biso   1.000  H
  C237     1.0000 0.52994  0.85995  0.43215  Biso   1.000  C
  H133     1.0000 0.57930  0.86759  0.44460  Biso   1.000  H
  H134     1.0000 0.48470  0.84030  0.41599  Biso   1.000  H
  C238     1.0000 0.72034  0.60517  0.66684  Biso   1.000  C
  H135     1.0000 0.74799  0.56950  0.64170  Biso   1.000  H
  C239     1.0000 0.68348  0.64913  0.69153  Biso   1.000  C
  C240     1.0000 0.51688  0.89692  0.43351  Biso   1.000  C
  H136     1.0000 0.73091  0.60181  0.68811  Biso   1.000  H
  C241     1.0000 0.67472  0.66640  0.71468  Biso   1.000  C
  C242     1.0000 0.50700  0.90573  0.39701  Biso   1.000  C
  C243     1.0000 0.48656  0.90115  0.45799  Biso   1.000  C
  C244     1.0000 0.54348  0.92151  0.44867  Biso   1.000  C
  C245     1.0000 0.66584  0.68847  0.74178  Biso   1.000  C
  C246     1.0000 0.47345  0.90761  0.38620  Biso   1.000  C
  C247     1.0000 0.53208  0.90794  0.37262  Biso   1.000  C
  C248     1.0000 0.47052  0.93287  0.45960  Biso   1.000  C
  C249     1.0000 0.47742  0.87668  0.48140  Biso   1.000  C
  C250     1.0000 0.55214  0.95206  0.43396  Biso   1.000  C
  C251     1.0000 0.55682  0.91418  0.48049  Biso   1.000  C
  C252     1.0000 0.68999  0.69666  0.76624  Biso   1.000  C
  C253     1.0000 0.63386  0.70362  0.74374  Biso   1.000  C
  C254     1.0000 0.46568  0.91176  0.35236  Biso   1.000  C
  H137     1.0000 0.45550  0.90601  0.40221  Biso   1.000  H
  H138     1.0000 0.55530  0.90639  0.37921  Biso   1.000  H
  C255     1.0000 0.52424  0.91235  0.33884  Biso   1.000  C
  H139     1.0000 0.47630  0.94990  0.44359  Biso   1.000  H
  C256     1.0000 0.44666  0.93999  0.48376  Biso   1.000  C
  C257     1.0000 0.45362  0.88386  0.50626  Biso   1.000  C
  H140     1.0000 0.48750  0.85471  0.48039  Biso   1.000  H
  H141     1.0000 0.54269  0.95789  0.41269  Biso   1.000  H
  C258     1.0000 0.57444  0.97439  0.44967  Biso   1.000  C
  C259     1.0000 0.57976  0.93582  0.49595  Biso   1.000  C
  H142     1.0000 0.55000  0.89389  0.49170  Biso   1.000  H
  C260     1.0000 0.68287  0.72052  0.79040  Biso   1.000  C
  H143     1.0000 0.71151  0.68559  0.76609  Biso   1.000  H
  H144     1.0000 0.61680  0.69761  0.72790  Biso   1.000  H
  C261     1.0000 0.62668  0.72742  0.76860  Biso   1.000  C
  C262     1.0000 0.49084  0.91385  0.32901  Biso   1.000  C
  H145     1.0000 0.44259  0.91311  0.34550  Biso   1.000  H
  H146     1.0000 0.54190  0.91431  0.32270  Biso   1.000  H
  H147     1.0000 0.43559  0.96151  0.48391  Biso   1.000  H
  C263     1.0000 0.43847  0.91584  0.50822  Biso   1.000  C
  H148     1.0000 0.44761  0.86680  0.52210  Biso   1.000  H
  H149     1.0000 0.57971  0.99560  0.43929  Biso   1.000  H
  C264     1.0000 0.58913  0.96596  0.48049  Biso   1.000  C
  H150     1.0000 0.58910  0.92999  0.51719  Biso   1.000  H
  C265     1.0000 0.65115  0.73656  0.79201  Biso   1.000  C
  H151     1.0000 0.69990  0.72630  0.80641  Biso   1.000  H
  H152     1.0000 0.60471  0.73750  0.76961  Biso   1.000  H
  O5       1.0000 0.47981  0.91683  0.29618  Biso   1.000  O
  C266     1.0000 0.41640  0.92472  0.53532  Biso   1.000  C
  C267     1.0000 0.61387  0.98778  0.49578  Biso   1.000  C
  C268     1.0000 0.64692  0.76688  0.81649  Biso   1.000  C
  C269     1.0000 0.50484  0.91752  0.27129  Biso   1.000  C
  C270     1.0000 0.39913  0.93348  0.55847  Biso   1.000  C
  C271     1.0000 0.63513  0.00535  0.50820  Biso   1.000  C
  C272     1.0000 0.65573  0.75700  0.85299  Biso   1.000  C
  C273     1.0000 0.67151  0.79348  0.80133  Biso   1.000  C
  C274     1.0000 0.60995  0.77994  0.81785  Biso   1.000  C
  H153     1.0000 0.49409  0.91970  0.24920  Biso   1.000  H
  H154     1.0000 0.52001  0.93699  0.27509  Biso   1.000  H
  H155     1.0000 0.51810  0.89641  0.27210  Biso   1.000  H
  C275     1.0000 0.37907  0.94470  0.58660  Biso   1.000  C
  C276     1.0000 0.66207  0.02584  0.52132  Biso   1.000  C
  C277     1.0000 0.65761  0.72345  0.86380  Biso   1.000  C
  C278     1.0000 0.65794  0.78208  0.87738  Biso   1.000  C
  C279     1.0000 0.70206  0.80214  0.81604  Biso   1.000  C
  C280     1.0000 0.66418  0.80682  0.76951  Biso   1.000  C
  C281     1.0000 0.60056  0.81324  0.81124  Biso   1.000  C
  C282     1.0000 0.58445  0.75746  0.82831  Biso   1.000  C
  C283     1.0000 0.35517  0.97034  0.58316  Biso   1.000  C
  N11      1.0000 0.38490  0.92953  0.61724  Biso   1.000  N
  C284     1.0000 0.67014  0.05723  0.50681  Biso   1.000  C
  C285     1.0000 0.68096  0.01349  0.54804  Biso   1.000  C
  C286     1.0000 0.66176  0.71568  0.89764  Biso   1.000  C
  H156     1.0000 0.65601  0.70550  0.84779  Biso   1.000  H
  H157     1.0000 0.65639  0.80530  0.87079  Biso   1.000  H
  C287     1.0000 0.66235  0.77424  0.91116  Biso   1.000  C
  H158     1.0000 0.70789  0.79269  0.83731  Biso   1.000  H
  C288     1.0000 0.72439  0.82444  0.80033  Biso   1.000  C
  C289     1.0000 0.68582  0.82976  0.75405  Biso   1.000  C
  H159     1.0000 0.64389  0.80000  0.75830  Biso   1.000  H
  H160     1.0000 0.61759  0.82930  0.80540  Biso   1.000  H
  C290     1.0000 0.56680  0.82363  0.81300  Biso   1.000  C
  C291     1.0000 0.55115  0.76754  0.83042  Biso   1.000  C
  H161     1.0000 0.59030  0.73470  0.83401  Biso   1.000  H
  H162     1.0000 0.35181  0.98091  0.56189  Biso   1.000  H
  C292     1.0000 0.33610  0.98055  0.61061  Biso   1.000  C
  C293     1.0000 0.36591  0.93997  0.64442  Biso   1.000  C
  H163     1.0000 0.40171  0.91230  0.61961  Biso   1.000  H
  H164     1.0000 0.65731  0.06550  0.48831  Biso   1.000  H
  C294     1.0000 0.69656  0.07599  0.51941  Biso   1.000  C
  H165     1.0000 0.67541  0.99231  0.55809  Biso   1.000  H
  C295     1.0000 0.70792  0.03241  0.55980  Biso   1.000  C
  C296     1.0000 0.66385  0.74084  0.92099  Biso   1.000  C
  H166     1.0000 0.66311  0.69259  0.90450  Biso   1.000  H
  H167     1.0000 0.66431  0.79190  0.92730  Biso   1.000  H
  H168     1.0000 0.74560  0.82971  0.81071  Biso   1.000  H
  C297     1.0000 0.71596  0.83913  0.76951  Biso   1.000  C
  H169     1.0000 0.67999  0.83910  0.73281  Biso   1.000  H
  H170     1.0000 0.56090  0.84651  0.80789  Biso   1.000  H
  C298     1.0000 0.54160  0.80066  0.82222  Biso   1.000  C
  H171     1.0000 0.53429  0.75171  0.83761  Biso   1.000  H
  H172     1.0000 0.31950  0.99799  0.60830  Biso   1.000  H
  C299     1.0000 0.34134  0.96515  0.64120  Biso   1.000  C
  C300     1.0000 0.37289  0.92416  0.67597  Biso   1.000  C
  H173     1.0000 0.70171  0.09761  0.50990  Biso   1.000  H
  C301     1.0000 0.71581  0.06370  0.54585  Biso   1.000  C
  C302     1.0000 0.72676  0.01871  0.58776  Biso   1.000  C
  O6       1.0000 0.66683  0.72981  0.95382  Biso   1.000  O
  C303     1.0000 0.73778  0.86387  0.75422  Biso   1.000  C
  C304     1.0000 0.50662  0.81133  0.82305  Biso   1.000  C
  H174     1.0000 0.32821  0.97179  0.66011  Biso   1.000  H
  C305     1.0000 0.37974  0.91036  0.70196  Biso   1.000  C
  H175     1.0000 0.73429  0.07660  0.55440  Biso   1.000  H
  C306     1.0000 0.74050  0.00583  0.61131  Biso   1.000  C
  C307     1.0000 0.66752  0.75484  0.97871  Biso   1.000  C
  C308     1.0000 0.75535  0.88513  0.74180  Biso   1.000  C
  C309     1.0000 0.47793  0.82141  0.82255  Biso   1.000  C
  C310     1.0000 0.38768  0.89422  0.73157  Biso   1.000  C
  C311     1.0000 0.75583  0.99050  0.63869  Biso   1.000  C
  H176     1.0000 0.68699  0.77001  0.97491  Biso   1.000  H
  H177     1.0000 0.64641  0.76810  0.97790  Biso   1.000  H
  H178     1.0000 0.66970  0.74409  0.00080  Biso   1.000  H
  C312     1.0000 0.77584  0.91207  0.72868  Biso   1.000  C
  C313     1.0000 0.44417  0.83513  0.82041  Biso   1.000  C
  C314     1.0000 0.39427  0.88037  0.75754  Biso   1.000  C
  C315     1.0000 0.76871  0.97676  0.66224  Biso   1.000  C
  C316     1.0000 0.76349  0.93096  0.70196  Biso   1.000  C
  C317     1.0000 0.80723  0.92014  0.74319  Biso   1.000  C
  N12      1.0000 0.43432  0.84921  0.79065  Biso   1.000  N
  C318     1.0000 0.42271  0.83554  0.84839  Biso   1.000  C
  C319     1.0000 0.40321  0.86446  0.78856  Biso   1.000  C
  C320     1.0000 0.78241  0.95792  0.69020  Biso   1.000  C
  H179     1.0000 0.74231  0.92541  0.69191  Biso   1.000  H
  C321     1.0000 0.82599  0.94656  0.73059  Biso   1.000  C
  H180     1.0000 0.81550  0.90731  0.76169  Biso   1.000  H
  H181     1.0000 0.44891  0.84840  0.77159  Biso   1.000  H
  C322     1.0000 0.39117  0.85084  0.84590  Biso   1.000  C
  H182     1.0000 0.42971  0.82541  0.86890  Biso   1.000  H
  C323     1.0000 0.38111  0.86533  0.81624  Biso   1.000  C
  C324     1.0000 0.81370  0.96581  0.70415  Biso   1.000  C
  H183     1.0000 0.84761  0.95171  0.74010  Biso   1.000  H
  H184     1.0000 0.37640  0.85130  0.86481  Biso   1.000  H
  H185     1.0000 0.35939  0.87579  0.81440  Biso   1.000  H
  H186     1.0000 0.82660  0.98429  0.69560  Biso   1.000  H
  C325     1.0000 0.38467  0.36889  0.56624  Biso   1.000  C
  C326     1.0000 0.38554  0.34679  0.53856  Biso   1.000  C
  C327     1.0000 0.39916  0.35883  0.59590  Biso   1.000  C
  H187     1.0000 0.37421  0.39061  0.56440  Biso   1.000  H
  C328     1.0000 0.36963  0.35573  0.50754  Biso   1.000  C
  N13      1.0000 0.40079  0.31568  0.54065  Biso   1.000  N
  C329     1.0000 0.41446  0.32729  0.59839  Biso   1.000  C
  H188     1.0000 0.39870  0.37360  0.61481  Biso   1.000  H
  C330     1.0000 0.35578  0.36232  0.48157  Biso   1.000  C
  C331     1.0000 0.41487  0.30583  0.57041  Biso   1.000  C
  H189     1.0000 0.40160  0.30109  0.52159  Biso   1.000  H
  H190     1.0000 0.42459  0.32029  0.61890  Biso   1.000  H
  C332     1.0000 0.33964  0.37026  0.45196  Biso   1.000  C
  C333     1.0000 0.42859  0.27207  0.57255  Biso   1.000  C
  C334     1.0000 0.32584  0.37711  0.42597  Biso   1.000  C
  C335     1.0000 0.43867  0.24338  0.57305  Biso   1.000  C
  C336     1.0000 0.31003  0.38409  0.39442  Biso   1.000  C
  C337     1.0000 0.44934  0.20840  0.57222  Biso   1.000  C
  N14      1.0000 0.32047  0.36510  0.36724  Biso   1.000  N
  C338     1.0000 0.28485  0.40866  0.39120  Biso   1.000  C
  C339     1.0000 0.42637  0.18320  0.56300  Biso   1.000  C
  C340     1.0000 0.48246  0.19885  0.58042  Biso   1.000  C
  C341     1.0000 0.30530  0.37093  0.33660  Biso   1.000  C
  H191     1.0000 0.33770  0.34829  0.36961  Biso   1.000  H
  C342     1.0000 0.26945  0.41390  0.36061  Biso   1.000  C
  H192     1.0000 0.27821  0.42179  0.41011  Biso   1.000  H
  C343     1.0000 0.43676  0.14944  0.56124  Biso   1.000  C
  H193     1.0000 0.40349  0.18910  0.55789  Biso   1.000  H
  H194     1.0000 0.49829  0.21571  0.58761  Biso   1.000  H
  C344     1.0000 0.49254  0.16555  0.57831  Biso   1.000  C
  C345     1.0000 0.31652  0.35087  0.30847  Biso   1.000  C
  C346     1.0000 0.27966  0.39483  0.33316  Biso   1.000  C
  H195     1.0000 0.25201  0.43050  0.35830  Biso   1.000  H
  C347     1.0000 0.47006  0.14005  0.56785  Biso   1.000  C
  H196     1.0000 0.42070  0.13241  0.55540  Biso   1.000  H
  H197     1.0000 0.51530  0.15970  0.58401  Biso   1.000  H
  C348     1.0000 0.32528  0.33360  0.28532  Biso   1.000  C
  H198     1.0000 0.26909  0.39819  0.31189  Biso   1.000  H
  C349     1.0000 0.48312  0.10308  0.56649  Biso   1.000  C
  C350     1.0000 0.33416  0.31153  0.25822  Biso   1.000  C
  C351     1.0000 0.49300  0.09427  0.60299  Biso   1.000  C
  C352     1.0000 0.51344  0.09885  0.54201  Biso   1.000  C
  C353     1.0000 0.45652  0.07849  0.55133  Biso   1.000  C
  C354     1.0000 0.31001  0.30334  0.23376  Biso   1.000  C
  C355     1.0000 0.36614  0.29638  0.25626  Biso   1.000  C
  C356     1.0000 0.52655  0.09239  0.61380  Biso   1.000  C
  C357     1.0000 0.46792  0.09206  0.62738  Biso   1.000  C
  C358     1.0000 0.52948  0.06713  0.54040  Biso   1.000  C
  C359     1.0000 0.52258  0.12332  0.51860  Biso   1.000  C
  C360     1.0000 0.44786  0.04794  0.56604  Biso   1.000  C
  C361     1.0000 0.44318  0.08582  0.51951  Biso   1.000  C
  C362     1.0000 0.31713  0.27948  0.20960  Biso   1.000  C
  H199     1.0000 0.28849  0.31441  0.23391  Biso   1.000  H
  C363     1.0000 0.37332  0.27258  0.23140  Biso   1.000  C
  H200     1.0000 0.38320  0.30239  0.27210  Biso   1.000  H
  C364     1.0000 0.53432  0.08824  0.64764  Biso   1.000  C
  H201     1.0000 0.54450  0.09399  0.59779  Biso   1.000  H
  H202     1.0000 0.44470  0.09361  0.62079  Biso   1.000  H
  C365     1.0000 0.47576  0.08765  0.66116  Biso   1.000  C
  C366     1.0000 0.55334  0.06001  0.51624  Biso   1.000  C
  H203     1.0000 0.52370  0.05010  0.55641  Biso   1.000  H
  C367     1.0000 0.54638  0.11614  0.49374  Biso   1.000  C
  H204     1.0000 0.51250  0.14529  0.51961  Biso   1.000  H
  C368     1.0000 0.42556  0.02561  0.55033  Biso   1.000  C
  H205     1.0000 0.45731  0.04211  0.58731  Biso   1.000  H
  C369     1.0000 0.42024  0.06418  0.50405  Biso   1.000  C
  H206     1.0000 0.45000  0.10611  0.50830  Biso   1.000  H
  C370     1.0000 0.34885  0.26344  0.20799  Biso   1.000  C
  H207     1.0000 0.30010  0.27370  0.19359  Biso   1.000  H
  H208     1.0000 0.39529  0.26250  0.23039  Biso   1.000  H
  C371     1.0000 0.50916  0.08615  0.67099  Biso   1.000  C
  H209     1.0000 0.55741  0.08689  0.65450  Biso   1.000  H
  H210     1.0000 0.45810  0.08569  0.67730  Biso   1.000  H
  C372     1.0000 0.56153  0.08416  0.49178  Biso   1.000  C
  H211     1.0000 0.56441  0.03849  0.51609  Biso   1.000  H
  H212     1.0000 0.55239  0.13320  0.47790  Biso   1.000  H
  C373     1.0000 0.41087  0.03404  0.51951  Biso   1.000  C
  H213     1.0000 0.42029  0.00440  0.56071  Biso   1.000  H
  H214     1.0000 0.41090  0.07001  0.48281  Biso   1.000  H
  C374     1.0000 0.35308  0.23312  0.18351  Biso   1.000  C
  O7       1.0000 0.52019  0.08317  0.70382  Biso   1.000  O
  C375     1.0000 0.58360  0.07528  0.46468  Biso   1.000  C
  C376     1.0000 0.38613  0.01222  0.50422  Biso   1.000  C
  C377     1.0000 0.34427  0.24300  0.14701  Biso   1.000  C
  C378     1.0000 0.32849  0.20652  0.19867  Biso   1.000  C
  C379     1.0000 0.39005  0.22006  0.18215  Biso   1.000  C
  C380     1.0000 0.49516  0.08248  0.72871  Biso   1.000  C
  C381     1.0000 0.60087  0.06652  0.44153  Biso   1.000  C
  C382     1.0000 0.36487  0.99465  0.49180  Biso   1.000  C
  C383     1.0000 0.34239  0.27655  0.13620  Biso   1.000  C
  C384     1.0000 0.34206  0.21792  0.12262  Biso   1.000  C
  C385     1.0000 0.29794  0.19786  0.18396  Biso   1.000  C
  C386     1.0000 0.33582  0.19318  0.23049  Biso   1.000  C
  C387     1.0000 0.39944  0.18676  0.18876  Biso   1.000  C
  C388     1.0000 0.41555  0.24254  0.17169  Biso   1.000  C
  H215     1.0000 0.50591  0.08030  0.75080  Biso   1.000  H
  H216     1.0000 0.47999  0.06301  0.72491  Biso   1.000  H
  H217     1.0000 0.48190  0.10359  0.72790  Biso   1.000  H
  C389     1.0000 0.62093  0.05530  0.41340  Biso   1.000  C
  C390     1.0000 0.33793  0.97416  0.47868  Biso   1.000  C
  C391     1.0000 0.33824  0.28432  0.10236  Biso   1.000  C
  H218     1.0000 0.34399  0.29450  0.15221  Biso   1.000  H
  H219     1.0000 0.34361  0.19470  0.12921  Biso   1.000  H
  C392     1.0000 0.33765  0.22576  0.08884  Biso   1.000  C
  H220     1.0000 0.29211  0.20731  0.16269  Biso   1.000  H
  C393     1.0000 0.27561  0.17556  0.19967  Biso   1.000  C
  C394     1.0000 0.31418  0.17024  0.24595  Biso   1.000  C
  H221     1.0000 0.35611  0.20000  0.24170  Biso   1.000  H
  H222     1.0000 0.38241  0.17070  0.19460  Biso   1.000  H
  C395     1.0000 0.43320  0.17637  0.18700  Biso   1.000  C
  C396     1.0000 0.44885  0.23246  0.16958  Biso   1.000  C
  H223     1.0000 0.40970  0.26530  0.16599  Biso   1.000  H
  N15      1.0000 0.61510  0.07047  0.38276  Biso   1.000  N
  C397     1.0000 0.64483  0.02966  0.41684  Biso   1.000  C
  C398     1.0000 0.31904  0.98651  0.45196  Biso   1.000  C
  C399     1.0000 0.32986  0.94277  0.49319  Biso   1.000  C
  C400     1.0000 0.33615  0.25916  0.07901  Biso   1.000  C
  H224     1.0000 0.33689  0.30741  0.09550  Biso   1.000  H
  H225     1.0000 0.33569  0.20810  0.07270  Biso   1.000  H
  H226     1.0000 0.25440  0.17029  0.18929  Biso   1.000  H
  C401     1.0000 0.28404  0.16087  0.23049  Biso   1.000  C
  H227     1.0000 0.32001  0.16090  0.26719  Biso   1.000  H
  H228     1.0000 0.43910  0.15349  0.19211  Biso   1.000  H
  C402     1.0000 0.45840  0.19934  0.17778  Biso   1.000  C
  H229     1.0000 0.46571  0.24829  0.16239  Biso   1.000  H
  C403     1.0000 0.63409  0.06003  0.35558  Biso   1.000  C
  H230     1.0000 0.59829  0.08770  0.38039  Biso   1.000  H
  C404     1.0000 0.66390  0.01945  0.38939  Biso   1.000  C
  H231     1.0000 0.64819  0.01909  0.43811  Biso   1.000  H
  C405     1.0000 0.29208  0.96759  0.44020  Biso   1.000  C
  H232     1.0000 0.32459  0.00769  0.44191  Biso   1.000  H
  C406     1.0000 0.30344  0.92401  0.48059  Biso   1.000  C
  H233     1.0000 0.34269  0.93450  0.51169  Biso   1.000  H
  O8       1.0000 0.33317  0.27019  0.04618  Biso   1.000  O
  C407     1.0000 0.26222  0.13613  0.24578  Biso   1.000  C
  C408     1.0000 0.49338  0.18867  0.17695  Biso   1.000  C
  C409     1.0000 0.62711  0.07584  0.32403  Biso   1.000  C
  C410     1.0000 0.65866  0.03485  0.35880  Biso   1.000  C
  H234     1.0000 0.68050  0.00201  0.39170  Biso   1.000  H
  C411     1.0000 0.27324  0.98129  0.41224  Biso   1.000  C
  C412     1.0000 0.28419  0.93630  0.45415  Biso   1.000  C
  H235     1.0000 0.29829  0.90239  0.49010  Biso   1.000  H
  C413     1.0000 0.33248  0.24516  0.02129  Biso   1.000  C
  C414     1.0000 0.24465  0.11487  0.25820  Biso   1.000  C
  C415     1.0000 0.52207  0.17859  0.17745  Biso   1.000  C
  C416     1.0000 0.62026  0.08964  0.29804  Biso   1.000  C
  H236     1.0000 0.67179  0.02821  0.33989  Biso   1.000  H
  C417     1.0000 0.25950  0.99417  0.38869  Biso   1.000  C
  H237     1.0000 0.26571  0.92340  0.44560  Biso   1.000  H
  H238     1.0000 0.31301  0.22999  0.02509  Biso   1.000  H
  H239     1.0000 0.35359  0.23190  0.02210  Biso   1.000  H
  H240     1.0000 0.33030  0.25591  0.99920  Biso   1.000  H
  C418     1.0000 0.22416  0.08793  0.27132  Biso   1.000  C
  C419     1.0000 0.55583  0.16487  0.17959  Biso   1.000  C
  C420     1.0000 0.61232  0.10578  0.26843  Biso   1.000  C
  C421     1.0000 0.24417  0.00950  0.36131  Biso   1.000  C
  C422     1.0000 0.19277  0.07986  0.25681  Biso   1.000  C
  C423     1.0000 0.23651  0.06904  0.29804  Biso   1.000  C
  C424     1.0000 0.57729  0.16446  0.15161  Biso   1.000  C
  N16      1.0000 0.56568  0.15079  0.20935  Biso   1.000  N
  C425     1.0000 0.60573  0.11963  0.24246  Biso   1.000  C
  C426     1.0000 0.23129  0.02324  0.33776  Biso   1.000  C
  H241     1.0000 0.18450  0.09269  0.23831  Biso   1.000  H
  C427     1.0000 0.17401  0.05344  0.26941  Biso   1.000  C
  C428     1.0000 0.21759  0.04208  0.30980  Biso   1.000  C
  H242     1.0000 0.25769  0.07459  0.30809  Biso   1.000  H
  H243     1.0000 0.57029  0.17459  0.13110  Biso   1.000  H
  C429     1.0000 0.60883  0.14916  0.15410  Biso   1.000  C
  C430     1.0000 0.59679  0.13554  0.21144  Biso   1.000  C
  H244     1.0000 0.55109  0.15160  0.22841  Biso   1.000  H
  H245     1.0000 0.15239  0.04829  0.25990  Biso   1.000  H
  C431     1.0000 0.18630  0.03419  0.29585  Biso   1.000  C
  H246     1.0000 0.62360  0.14870  0.13519  Biso   1.000  H
  C432     1.0000 0.61889  0.13467  0.18376  Biso   1.000  C
  H247     1.0000 0.17340  0.01571  0.30440  Biso   1.000  H
  H248     1.0000 0.64061  0.12421  0.18560  Biso   1.000  H
  C433     1.0000 0.57729  0.33554  0.65161  Biso   1.000  C
  C434     1.0000 0.55583  0.33513  0.67959  Biso   1.000  C
  H249     1.0000 0.57029  0.32541  0.63110  Biso   1.000  H
  C435     1.0000 0.60883  0.35084  0.65410  Biso   1.000  C
  C436     1.0000 0.52207  0.32141  0.67745  Biso   1.000  C
  N17      1.0000 0.56568  0.34921  0.70935  Biso   1.000  N
  H250     1.0000 0.62360  0.35130  0.63519  Biso   1.000  H
  C437     1.0000 0.61889  0.36533  0.68376  Biso   1.000  C
  C438     1.0000 0.49338  0.31133  0.67695  Biso   1.000  C
  C439     1.0000 0.59679  0.36446  0.71144  Biso   1.000  C
  H251     1.0000 0.55109  0.34840  0.72841  Biso   1.000  H
  H252     1.0000 0.64061  0.37579  0.68560  Biso   1.000  H
  C440     1.0000 0.45840  0.30066  0.67778  Biso   1.000  C
  C441     1.0000 0.60573  0.38037  0.74246  Biso   1.000  C
  C442     1.0000 0.43320  0.32363  0.68700  Biso   1.000  C
  C443     1.0000 0.44885  0.26754  0.66958  Biso   1.000  C
  C444     1.0000 0.61232  0.39422  0.76843  Biso   1.000  C
  C445     1.0000 0.39944  0.31324  0.68876  Biso   1.000  C
  H253     1.0000 0.43910  0.34651  0.69211  Biso   1.000  H
  C446     1.0000 0.41555  0.25746  0.67169  Biso   1.000  C
  H254     1.0000 0.46571  0.25171  0.66239  Biso   1.000  H
  C447     1.0000 0.62026  0.41036  0.79804  Biso   1.000  C
  C448     1.0000 0.39005  0.27994  0.68215  Biso   1.000  C
  H255     1.0000 0.38241  0.32930  0.69460  Biso   1.000  H
  H256     1.0000 0.40970  0.23470  0.66599  Biso   1.000  H
  C449     1.0000 0.62711  0.42416  0.82403  Biso   1.000  C
  C450     1.0000 0.35308  0.26688  0.68351  Biso   1.000  C
  C451     1.0000 0.63409  0.43997  0.85558  Biso   1.000  C
  C452     1.0000 0.34427  0.25700  0.64701  Biso   1.000  C
  C453     1.0000 0.34885  0.23656  0.70799  Biso   1.000  C
  C454     1.0000 0.32849  0.29348  0.69867  Biso   1.000  C
  C455     1.0000 0.65866  0.46515  0.85880  Biso   1.000  C
  N18      1.0000 0.61510  0.42953  0.88276  Biso   1.000  N
  C456     1.0000 0.34239  0.22345  0.63620  Biso   1.000  C
  C457     1.0000 0.34206  0.28208  0.62262  Biso   1.000  C
  C458     1.0000 0.31713  0.22052  0.70960  Biso   1.000  C
  C459     1.0000 0.37332  0.22742  0.73140  Biso   1.000  C
  C460     1.0000 0.29794  0.30214  0.68396  Biso   1.000  C
  C461     1.0000 0.33582  0.30682  0.73049  Biso   1.000  C
  C462     1.0000 0.66390  0.48055  0.88939  Biso   1.000  C
  H257     1.0000 0.67179  0.47179  0.83989  Biso   1.000  H
  C463     1.0000 0.62093  0.44470  0.91340  Biso   1.000  C
  H258     1.0000 0.59829  0.41230  0.88039  Biso   1.000  H
  C464     1.0000 0.33824  0.21568  0.60236  Biso   1.000  C
  H259     1.0000 0.34399  0.20550  0.65221  Biso   1.000  H
  C465     1.0000 0.33765  0.27424  0.58884  Biso   1.000  C
  H260     1.0000 0.34361  0.30530  0.62921  Biso   1.000  H
  H261     1.0000 0.30010  0.22630  0.69359  Biso   1.000  H
  C466     1.0000 0.31001  0.19666  0.73376  Biso   1.000  C
  C467     1.0000 0.36614  0.20362  0.75626  Biso   1.000  C
  H262     1.0000 0.39529  0.23750  0.73039  Biso   1.000  H
  H263     1.0000 0.29211  0.29269  0.66269  Biso   1.000  H
  C468     1.0000 0.27561  0.32444  0.69967  Biso   1.000  C
  C469     1.0000 0.31418  0.32976  0.74595  Biso   1.000  C
  H264     1.0000 0.35611  0.30000  0.74170  Biso   1.000  H
  C470     1.0000 0.64483  0.47034  0.91684  Biso   1.000  C
  H265     1.0000 0.68050  0.49799  0.89170  Biso   1.000  H
  C471     1.0000 0.60087  0.43348  0.94153  Biso   1.000  C
  C472     1.0000 0.33615  0.24084  0.57901  Biso   1.000  C
  H266     1.0000 0.33689  0.19259  0.59550  Biso   1.000  H
  H267     1.0000 0.33569  0.29190  0.57270  Biso   1.000  H
  H268     1.0000 0.28849  0.18559  0.73391  Biso   1.000  H
  C473     1.0000 0.33416  0.18847  0.75822  Biso   1.000  C
  H269     1.0000 0.38320  0.19761  0.77210  Biso   1.000  H
  H270     1.0000 0.25440  0.32971  0.68929  Biso   1.000  H
  C474     1.0000 0.28404  0.33913  0.73049  Biso   1.000  C
  H271     1.0000 0.32001  0.33910  0.76719  Biso   1.000  H
  H272     1.0000 0.64819  0.48091  0.93811  Biso   1.000  H
  C475     1.0000 0.58360  0.42472  0.96468  Biso   1.000  C
  O9       1.0000 0.33317  0.22981  0.54618  Biso   1.000  O
  C476     1.0000 0.32528  0.16640  0.78532  Biso   1.000  C
  C477     1.0000 0.26222  0.36387  0.74578  Biso   1.000  C
  C478     1.0000 0.56153  0.41584  0.99178  Biso   1.000  C
  C479     1.0000 0.33248  0.25484  0.52129  Biso   1.000  C
  C480     1.0000 0.31652  0.14913  0.80847  Biso   1.000  C
  C481     1.0000 0.24465  0.38513  0.75820  Biso   1.000  C
  C482     1.0000 0.54638  0.38386  0.99374  Biso   1.000  C
  C483     1.0000 0.55334  0.43999  0.01624  Biso   1.000  C
  H273     1.0000 0.33030  0.24409  0.49920  Biso   1.000  H
  H274     1.0000 0.31301  0.27001  0.52509  Biso   1.000  H
  H275     1.0000 0.35359  0.26810  0.52210  Biso   1.000  H
  C484     1.0000 0.30530  0.12907  0.83660  Biso   1.000  C
  C485     1.0000 0.22416  0.41207  0.77132  Biso   1.000  C
  H276     1.0000 0.55239  0.36680  0.97790  Biso   1.000  H
  C486     1.0000 0.52258  0.37668  0.01860  Biso   1.000  C
  C487     1.0000 0.52948  0.43287  0.04040  Biso   1.000  C
  H277     1.0000 0.56441  0.46151  0.01609  Biso   1.000  H
  C488     1.0000 0.27966  0.10517  0.83316  Biso   1.000  C
  N19      1.0000 0.32047  0.13490  0.86724  Biso   1.000  N
  C489     1.0000 0.19277  0.42014  0.75681  Biso   1.000  C
  C490     1.0000 0.23651  0.43096  0.79804  Biso   1.000  C
  C491     1.0000 0.51344  0.40115  0.04201  Biso   1.000  C
  H278     1.0000 0.51250  0.35471  0.01961  Biso   1.000  H
  H279     1.0000 0.52370  0.44990  0.05641  Biso   1.000  H
  H280     1.0000 0.26909  0.10181  0.81189  Biso   1.000  H
  C492     1.0000 0.26945  0.08610  0.86061  Biso   1.000  C
  C493     1.0000 0.31003  0.11591  0.89442  Biso   1.000  C
  H281     1.0000 0.33770  0.15171  0.86961  Biso   1.000  H
  H282     1.0000 0.18450  0.40731  0.73831  Biso   1.000  H
  C494     1.0000 0.17401  0.44656  0.76941  Biso   1.000  C
  C495     1.0000 0.21759  0.45792  0.80980  Biso   1.000  C
  H283     1.0000 0.25769  0.42541  0.80809  Biso   1.000  H
  C496     1.0000 0.48312  0.39692  0.06649  Biso   1.000  C
  H284     1.0000 0.25201  0.06950  0.85830  Biso   1.000  H
  C497     1.0000 0.28485  0.09134  0.89120  Biso   1.000  C
  C498     1.0000 0.32584  0.12289  0.92597  Biso   1.000  C
  H285     1.0000 0.15239  0.45171  0.75990  Biso   1.000  H
  C499     1.0000 0.18630  0.46581  0.79585  Biso   1.000  C
  C500     1.0000 0.23129  0.47676  0.83776  Biso   1.000  C
  C501     1.0000 0.47006  0.35995  0.06785  Biso   1.000  C
  C502     1.0000 0.45652  0.42151  0.05133  Biso   1.000  C
  C503     1.0000 0.49300  0.40573  0.10299  Biso   1.000  C
  H286     1.0000 0.27821  0.07821  0.91011  Biso   1.000  H
  C504     1.0000 0.33964  0.12974  0.95196  Biso   1.000  C
  H287     1.0000 0.17340  0.48429  0.80440  Biso   1.000  H
  C505     1.0000 0.24417  0.49050  0.86131  Biso   1.000  C
  C506     1.0000 0.43676  0.35056  0.06124  Biso   1.000  C
  C507     1.0000 0.49254  0.33445  0.07831  Biso   1.000  C
  C508     1.0000 0.44786  0.45206  0.06604  Biso   1.000  C
  C509     1.0000 0.44318  0.41418  0.01951  Biso   1.000  C
  C510     1.0000 0.52655  0.40761  0.11380  Biso   1.000  C
  C511     1.0000 0.46792  0.40794  0.12738  Biso   1.000  C
  C512     1.0000 0.35578  0.13768  0.98157  Biso   1.000  C
  C513     1.0000 0.25950  0.50583  0.88869  Biso   1.000  C
  C514     1.0000 0.42637  0.31680  0.06300  Biso   1.000  C
  H288     1.0000 0.42070  0.36759  0.05540  Biso   1.000  H
  C515     1.0000 0.48246  0.30115  0.08042  Biso   1.000  C
  H289     1.0000 0.51530  0.34030  0.08401  Biso   1.000  H
  C516     1.0000 0.42556  0.47439  0.05033  Biso   1.000  C
  H290     1.0000 0.45731  0.45789  0.08731  Biso   1.000  H
  C517     1.0000 0.42024  0.43582  0.00405  Biso   1.000  C
  H291     1.0000 0.45000  0.39389  0.00830  Biso   1.000  H
  C518     1.0000 0.53432  0.41176  0.14764  Biso   1.000  C
  H292     1.0000 0.54450  0.40601  0.09779  Biso   1.000  H
  H293     1.0000 0.44470  0.40639  0.12079  Biso   1.000  H
  C519     1.0000 0.47576  0.41235  0.16116  Biso   1.000  C
  C520     1.0000 0.36963  0.14427  0.00754  Biso   1.000  C
  C521     1.0000 0.27324  0.51871  0.91224  Biso   1.000  C
  C522     1.0000 0.44934  0.29160  0.07222  Biso   1.000  C
  H294     1.0000 0.40349  0.31090  0.05789  Biso   1.000  H
  H295     1.0000 0.49829  0.28429  0.08761  Biso   1.000  H
  C523     1.0000 0.41087  0.46596  0.01951  Biso   1.000  C
  H296     1.0000 0.42029  0.49560  0.06071  Biso   1.000  H
  H297     1.0000 0.41090  0.42999  0.98281  Biso   1.000  H
  C524     1.0000 0.50916  0.41385  0.17099  Biso   1.000  C
  H298     1.0000 0.55741  0.41311  0.15450  Biso   1.000  H
  H299     1.0000 0.45810  0.41431  0.17730  Biso   1.000  H
  C525     1.0000 0.38554  0.15321  0.03856  Biso   1.000  C
  C526     1.0000 0.29208  0.53241  0.94020  Biso   1.000  C
  C527     1.0000 0.43867  0.25662  0.07305  Biso   1.000  C
  C528     1.0000 0.38613  0.48778  0.00422  Biso   1.000  C
  O10      1.0000 0.52019  0.41683  0.20382  Biso   1.000  O
  C529     1.0000 0.38467  0.13111  0.06624  Biso   1.000  C
  N20      1.0000 0.40079  0.18432  0.04065  Biso   1.000  N
  C530     1.0000 0.28419  0.56370  0.95415  Biso   1.000  C
  C531     1.0000 0.31904  0.51349  0.95196  Biso   1.000  C
  C532     1.0000 0.42859  0.22793  0.07255  Biso   1.000  C
  C533     1.0000 0.36487  0.50535  0.99180  Biso   1.000  C
  C534     1.0000 0.49516  0.41752  0.22871  Biso   1.000  C
  C535     1.0000 0.39916  0.14117  0.09590  Biso   1.000  C
  H300     1.0000 0.37421  0.10939  0.06440  Biso   1.000  H
  C536     1.0000 0.41487  0.19417  0.07041  Biso   1.000  C
  H301     1.0000 0.40160  0.19891  0.02159  Biso   1.000  H
  C537     1.0000 0.30344  0.57599  0.98059  Biso   1.000  C
  H302     1.0000 0.26571  0.57660  0.94560  Biso   1.000  H
  C538     1.0000 0.33793  0.52584  0.97868  Biso   1.000  C
  H303     1.0000 0.32459  0.49231  0.94191  Biso   1.000  H
  H304     1.0000 0.50591  0.41970  0.25080  Biso   1.000  H
  H305     1.0000 0.47999  0.43699  0.22491  Biso   1.000  H
  H306     1.0000 0.48190  0.39641  0.22790  Biso   1.000  H
  C539     1.0000 0.41446  0.17271  0.09839  Biso   1.000  C
  H307     1.0000 0.39870  0.12640  0.11481  Biso   1.000  H
  C540     1.0000 0.32986  0.55723  0.99319  Biso   1.000  C
  H308     1.0000 0.29829  0.59761  0.99010  Biso   1.000  H
  H309     1.0000 0.42459  0.17971  0.11890  Biso   1.000  H
  H310     1.0000 0.34269  0.56550  0.01169  Biso   1.000  H
  C541     1.0000 0.42271  0.66446  0.34839  Biso   1.000  C
  C542     1.0000 0.39117  0.64916  0.34590  Biso   1.000  C
  C543     1.0000 0.44417  0.66487  0.32041  Biso   1.000  C
  H311     1.0000 0.42971  0.67459  0.36890  Biso   1.000  H
  C544     1.0000 0.38111  0.63467  0.31624  Biso   1.000  C
  H312     1.0000 0.37640  0.64870  0.36481  Biso   1.000  H
  N21      1.0000 0.43432  0.65079  0.29065  Biso   1.000  N
  C545     1.0000 0.47793  0.67859  0.32255  Biso   1.000  C
  C546     1.0000 0.40321  0.63554  0.28856  Biso   1.000  C
  H313     1.0000 0.35939  0.62421  0.31440  Biso   1.000  H
  H314     1.0000 0.44891  0.65160  0.27159  Biso   1.000  H
  C547     1.0000 0.50662  0.68867  0.32305  Biso   1.000  C
  C548     1.0000 0.39427  0.61963  0.25754  Biso   1.000  C
  C549     1.0000 0.54160  0.69934  0.32222  Biso   1.000  C
  C550     1.0000 0.38768  0.60578  0.23157  Biso   1.000  C
  C551     1.0000 0.56680  0.67637  0.31300  Biso   1.000  C
  C552     1.0000 0.55115  0.73246  0.33042  Biso   1.000  C
  C553     1.0000 0.37974  0.58964  0.20196  Biso   1.000  C
  C554     1.0000 0.60056  0.68676  0.31124  Biso   1.000  C
  H315     1.0000 0.56090  0.65349  0.30789  Biso   1.000  H
  H316     1.0000 0.53429  0.74829  0.33761  Biso   1.000  H
  C555     1.0000 0.58445  0.74254  0.32831  Biso   1.000  C
  C556     1.0000 0.37289  0.57584  0.17597  Biso   1.000  C
  C557     1.0000 0.60995  0.72006  0.31785  Biso   1.000  C
  H317     1.0000 0.61759  0.67070  0.30540  Biso   1.000  H
  H318     1.0000 0.59030  0.76530  0.33401  Biso   1.000  H
  C558     1.0000 0.36591  0.56003  0.14442  Biso   1.000  C
  C559     1.0000 0.64692  0.73312  0.31649  Biso   1.000  C
  C560     1.0000 0.34134  0.53485  0.14120  Biso   1.000  C
  N22      1.0000 0.38490  0.57047  0.11724  Biso   1.000  N
  C561     1.0000 0.65573  0.74300  0.35299  Biso   1.000  C
  C562     1.0000 0.65115  0.76344  0.29201  Biso   1.000  C
  C563     1.0000 0.67151  0.70652  0.30133  Biso   1.000  C
  C564     1.0000 0.33610  0.51945  0.11061  Biso   1.000  C
  H319     1.0000 0.32821  0.52821  0.16011  Biso   1.000  H
  C565     1.0000 0.37907  0.55530  0.08660  Biso   1.000  C
  H320     1.0000 0.40171  0.58770  0.11961  Biso   1.000  H
  C566     1.0000 0.65761  0.77655  0.36380  Biso   1.000  C
  C567     1.0000 0.65794  0.71792  0.37738  Biso   1.000  C
  C568     1.0000 0.68287  0.77948  0.29040  Biso   1.000  C
  C569     1.0000 0.62668  0.77258  0.26860  Biso   1.000  C
  C570     1.0000 0.70206  0.69786  0.31604  Biso   1.000  C
  C571     1.0000 0.66418  0.69318  0.26951  Biso   1.000  C
  C572     1.0000 0.35517  0.52966  0.08316  Biso   1.000  C
  H321     1.0000 0.31950  0.50201  0.10830  Biso   1.000  H
  C573     1.0000 0.39913  0.56652  0.05847  Biso   1.000  C
  C574     1.0000 0.66176  0.78432  0.39764  Biso   1.000  C
  H322     1.0000 0.65601  0.79450  0.34779  Biso   1.000  H
  H323     1.0000 0.65639  0.69470  0.37079  Biso   1.000  H
  C575     1.0000 0.66235  0.72576  0.41116  Biso   1.000  C
  H324     1.0000 0.69990  0.77370  0.30641  Biso   1.000  H
  C576     1.0000 0.68999  0.80334  0.26624  Biso   1.000  C
  C577     1.0000 0.63386  0.79638  0.24374  Biso   1.000  C
  H325     1.0000 0.60471  0.76250  0.26961  Biso   1.000  H
  H326     1.0000 0.70789  0.70731  0.33731  Biso   1.000  H
  C578     1.0000 0.72439  0.67556  0.30033  Biso   1.000  C
  C579     1.0000 0.68582  0.67024  0.25405  Biso   1.000  C
  H327     1.0000 0.64389  0.70000  0.25830  Biso   1.000  H
  H328     1.0000 0.35181  0.51909  0.06189  Biso   1.000  H
  C580     1.0000 0.41640  0.57528  0.03532  Biso   1.000  C
  C581     1.0000 0.66385  0.75916  0.42099  Biso   1.000  C
  H329     1.0000 0.66311  0.80741  0.40450  Biso   1.000  H
  H330     1.0000 0.66431  0.70810  0.42730  Biso   1.000  H
  H331     1.0000 0.71151  0.81441  0.26609  Biso   1.000  H
  C582     1.0000 0.66584  0.81153  0.24178  Biso   1.000  C
  H332     1.0000 0.61680  0.80239  0.22790  Biso   1.000  H
  H333     1.0000 0.74560  0.67029  0.31071  Biso   1.000  H
  C583     1.0000 0.71596  0.66087  0.26951  Biso   1.000  C
  H334     1.0000 0.67999  0.66090  0.23281  Biso   1.000  H
  C584     1.0000 0.43847  0.58416  0.00822  Biso   1.000  C
  O11      1.0000 0.66683  0.77019  0.45382  Biso   1.000  O
  C585     1.0000 0.67472  0.83360  0.21468  Biso   1.000  C
  C586     1.0000 0.73778  0.63613  0.25422  Biso   1.000  C
  C587     1.0000 0.45362  0.61614  0.00626  Biso   1.000  C
  C588     1.0000 0.44666  0.56001  0.98376  Biso   1.000  C
  C589     1.0000 0.66752  0.74516  0.47871  Biso   1.000  C
  C590     1.0000 0.68348  0.85087  0.19153  Biso   1.000  C
  C591     1.0000 0.75535  0.61487  0.24180  Biso   1.000  C
  H335     1.0000 0.44761  0.63320  0.02210  Biso   1.000  H
  C592     1.0000 0.47742  0.62332  0.98140  Biso   1.000  C
  C593     1.0000 0.47052  0.56713  0.95960  Biso   1.000  C
  H336     1.0000 0.43559  0.53849  0.98391  Biso   1.000  H
  H337     1.0000 0.66970  0.75591  0.50080  Biso   1.000  H
  H338     1.0000 0.68699  0.72999  0.47491  Biso   1.000  H
  H339     1.0000 0.64641  0.73190  0.47790  Biso   1.000  H
  C594     1.0000 0.69470  0.87093  0.16340  Biso   1.000  C
  C595     1.0000 0.77584  0.58793  0.22868  Biso   1.000  C
  C596     1.0000 0.48656  0.59885  0.95799  Biso   1.000  C
  H340     1.0000 0.48750  0.64529  0.98039  Biso   1.000  H
  H341     1.0000 0.47630  0.55010  0.94359  Biso   1.000  H
  N23      1.0000 0.67953  0.86510  0.13276  Biso   1.000  N
  C597     1.0000 0.72034  0.89483  0.16684  Biso   1.000  C
  C598     1.0000 0.76349  0.56904  0.20196  Biso   1.000  C
  C599     1.0000 0.80723  0.57986  0.24319  Biso   1.000  C
  C600     1.0000 0.51688  0.60308  0.93351  Biso   1.000  C
  C601     1.0000 0.68997  0.88409  0.10558  Biso   1.000  C
  H342     1.0000 0.66230  0.84829  0.13039  Biso   1.000  H
  C602     1.0000 0.73055  0.91390  0.13939  Biso   1.000  C
  H343     1.0000 0.73091  0.89819  0.18811  Biso   1.000  H
  C603     1.0000 0.78241  0.54208  0.19020  Biso   1.000  C
  H344     1.0000 0.74231  0.57459  0.19191  Biso   1.000  H
  C604     1.0000 0.82599  0.55344  0.23059  Biso   1.000  C
  H345     1.0000 0.81550  0.59269  0.26169  Biso   1.000  H
  C605     1.0000 0.50700  0.59427  0.89701  Biso   1.000  C
  C606     1.0000 0.54348  0.57849  0.94867  Biso   1.000  C
  C607     1.0000 0.52994  0.64005  0.93215  Biso   1.000  C
  C608     1.0000 0.67416  0.87711  0.07403  Biso   1.000  C
  C609     1.0000 0.71515  0.90866  0.10880  Biso   1.000  C
  H346     1.0000 0.74799  0.93050  0.14170  Biso   1.000  H
  C610     1.0000 0.76871  0.52324  0.16224  Biso   1.000  C
  C611     1.0000 0.81370  0.53419  0.20415  Biso   1.000  C
  H347     1.0000 0.84761  0.54829  0.24010  Biso   1.000  H
  C612     1.0000 0.47345  0.59239  0.88620  Biso   1.000  C
  C613     1.0000 0.53208  0.59206  0.87262  Biso   1.000  C
  C614     1.0000 0.55214  0.54794  0.93396  Biso   1.000  C
  C615     1.0000 0.55682  0.58582  0.98049  Biso   1.000  C
  C616     1.0000 0.56324  0.64944  0.93876  Biso   1.000  C
  C617     1.0000 0.50746  0.66555  0.92169  Biso   1.000  C
  C618     1.0000 0.66036  0.87026  0.04804  Biso   1.000  C
  H348     1.0000 0.72179  0.92179  0.08989  Biso   1.000  H
  C619     1.0000 0.75583  0.50950  0.13869  Biso   1.000  C
  H349     1.0000 0.82660  0.51571  0.19560  Biso   1.000  H
  C620     1.0000 0.46568  0.58824  0.85236  Biso   1.000  C
  H350     1.0000 0.45550  0.59399  0.90221  Biso   1.000  H
  H351     1.0000 0.55530  0.59361  0.87921  Biso   1.000  H
  C621     1.0000 0.52424  0.58765  0.83884  Biso   1.000  C
  H352     1.0000 0.54269  0.54211  0.91269  Biso   1.000  H
  C622     1.0000 0.57444  0.52561  0.94967  Biso   1.000  C
  C623     1.0000 0.57976  0.56418  0.99595  Biso   1.000  C
  H353     1.0000 0.55000  0.60611  0.99170  Biso   1.000  H
  H354     1.0000 0.57930  0.63241  0.94460  Biso   1.000  H
  C624     1.0000 0.57363  0.68320  0.93700  Biso   1.000  C
  C625     1.0000 0.51754  0.69885  0.91958  Biso   1.000  C
  H355     1.0000 0.48470  0.65970  0.91599  Biso   1.000  H
  C626     1.0000 0.64422  0.86232  0.01843  Biso   1.000  C
  C627     1.0000 0.74050  0.49417  0.11131  Biso   1.000  C
  C628     1.0000 0.49084  0.58615  0.82901  Biso   1.000  C
  H356     1.0000 0.44259  0.58689  0.84550  Biso   1.000  H
  H357     1.0000 0.54190  0.58569  0.82270  Biso   1.000  H
  H358     1.0000 0.57971  0.50440  0.93929  Biso   1.000  H
  C629     1.0000 0.58913  0.53404  0.98049  Biso   1.000  C
  H359     1.0000 0.58910  0.57001  0.01719  Biso   1.000  H
  H360     1.0000 0.59651  0.68910  0.94211  Biso   1.000  H
  C630     1.0000 0.55066  0.70840  0.92778  Biso   1.000  C
  H361     1.0000 0.50171  0.71571  0.91239  Biso   1.000  H
  C631     1.0000 0.63037  0.85573  0.99246  Biso   1.000  C
  C632     1.0000 0.72676  0.48129  0.08776  Biso   1.000  C
  O12      1.0000 0.47981  0.58317  0.79618  Biso   1.000  O
  C633     1.0000 0.61387  0.51222  0.99578  Biso   1.000  C
  C634     1.0000 0.56133  0.74338  0.92695  Biso   1.000  C
  C635     1.0000 0.61446  0.84679  0.96144  Biso   1.000  C
  C636     1.0000 0.70792  0.46759  0.05980  Biso   1.000  C
  C637     1.0000 0.50484  0.58248  0.77129  Biso   1.000  C
  C638     1.0000 0.63513  0.49465  0.00820  Biso   1.000  C
  C639     1.0000 0.57141  0.77207  0.92745  Biso   1.000  C
  N24      1.0000 0.59921  0.81568  0.95935  Biso   1.000  N
  C640     1.0000 0.61533  0.86889  0.93376  Biso   1.000  C
  C641     1.0000 0.68096  0.48651  0.04804  Biso   1.000  C
  C642     1.0000 0.71581  0.43630  0.04585  Biso   1.000  C
  H362     1.0000 0.49409  0.58030  0.74920  Biso   1.000  H
  H363     1.0000 0.52001  0.56301  0.77509  Biso   1.000  H
  H364     1.0000 0.51810  0.60359  0.77210  Biso   1.000  H
  C643     1.0000 0.66207  0.47416  0.02132  Biso   1.000  C
  C644     1.0000 0.58513  0.80583  0.92959  Biso   1.000  C
  H365     1.0000 0.59840  0.80109  0.97841  Biso   1.000  H
  C645     1.0000 0.60084  0.85883  0.90410  Biso   1.000  C
  H366     1.0000 0.62579  0.89061  0.93560  Biso   1.000  H
  H367     1.0000 0.67541  0.50769  0.05809  Biso   1.000  H
  C646     1.0000 0.69656  0.42401  0.01941  Biso   1.000  C
  H368     1.0000 0.73429  0.42340  0.05440  Biso   1.000  H
  C647     1.0000 0.67014  0.44277  0.00681  Biso   1.000  C
  C648     1.0000 0.58554  0.82729  0.90161  Biso   1.000  C
  H369     1.0000 0.60130  0.87360  0.88519  Biso   1.000  H
  H370     1.0000 0.70171  0.40239  0.00990  Biso   1.000  H
  H371     1.0000 0.65731  0.43450  0.98831  Biso   1.000  H
  H372     1.0000 0.57541  0.82029  0.88110  Biso   1.000  H
  C649     1.0000 0.68630  0.46581  0.70415  Biso   1.000  C
  C650     1.0000 0.67401  0.44656  0.73059  Biso   1.000  C
  C651     1.0000 0.71759  0.45792  0.69020  Biso   1.000  C
  H373     1.0000 0.67340  0.48429  0.69560  Biso   1.000  H
  C652     1.0000 0.69277  0.42014  0.74319  Biso   1.000  C
  H374     1.0000 0.65239  0.45171  0.74010  Biso   1.000  H
  C653     1.0000 0.73651  0.43096  0.70196  Biso   1.000  C
  C654     1.0000 0.73129  0.47676  0.66224  Biso   1.000  C
  C655     1.0000 0.72416  0.41207  0.72868  Biso   1.000  C
  H375     1.0000 0.68450  0.40731  0.76169  Biso   1.000  H
  H376     1.0000 0.75769  0.42541  0.69191  Biso   1.000  H
  C656     1.0000 0.74417  0.49050  0.63869  Biso   1.000  C
  C657     1.0000 0.74465  0.38513  0.74180  Biso   1.000  C
  C658     1.0000 0.75950  0.50583  0.61131  Biso   1.000  C
  C659     1.0000 0.76222  0.36387  0.75422  Biso   1.000  C
  C660     1.0000 0.77324  0.51871  0.58776  Biso   1.000  C
  C661     1.0000 0.78404  0.33913  0.76951  Biso   1.000  C
  C662     1.0000 0.79208  0.53241  0.55980  Biso   1.000  C
  C663     1.0000 0.77561  0.32444  0.80033  Biso   1.000  C
  C664     1.0000 0.81418  0.32976  0.75405  Biso   1.000  C
  C665     1.0000 0.81904  0.51349  0.54804  Biso   1.000  C
  C666     1.0000 0.78419  0.56370  0.54585  Biso   1.000  C
  C667     1.0000 0.79794  0.30214  0.81604  Biso   1.000  C
  H377     1.0000 0.75440  0.32971  0.81071  Biso   1.000  H
  C668     1.0000 0.83582  0.30682  0.76951  Biso   1.000  C
  H378     1.0000 0.82001  0.33910  0.73281  Biso   1.000  H
  C669     1.0000 0.83793  0.52584  0.52132  Biso   1.000  C
  H379     1.0000 0.82459  0.49231  0.55809  Biso   1.000  H
  C670     1.0000 0.80344  0.57599  0.51941  Biso   1.000  C
  H380     1.0000 0.76571  0.57660  0.55440  Biso   1.000  H
  C671     1.0000 0.82849  0.29348  0.80133  Biso   1.000  C
  H381     1.0000 0.79211  0.29269  0.83731  Biso   1.000  H
  H382     1.0000 0.85611  0.30000  0.75830  Biso   1.000  H
  C672     1.0000 0.86487  0.50535  0.50820  Biso   1.000  C
  C673     1.0000 0.82986  0.55723  0.50681  Biso   1.000  C
  H383     1.0000 0.79829  0.59761  0.50990  Biso   1.000  H
  C674     1.0000 0.85308  0.26688  0.81649  Biso   1.000  C
  C675     1.0000 0.88613  0.48778  0.49578  Biso   1.000  C
  H384     1.0000 0.84269  0.56550  0.48831  Biso   1.000  H
  C676     1.0000 0.84885  0.23656  0.79201  Biso   1.000  C
  C677     1.0000 0.84427  0.25700  0.85299  Biso   1.000  C
  C678     1.0000 0.89005  0.27994  0.81785  Biso   1.000  C
  C679     1.0000 0.91087  0.46596  0.48049  Biso   1.000  C
  C680     1.0000 0.81713  0.22052  0.79040  Biso   1.000  C
  C681     1.0000 0.87332  0.22742  0.76860  Biso   1.000  C
  C682     1.0000 0.84239  0.22345  0.86380  Biso   1.000  C
  C683     1.0000 0.84206  0.28208  0.87738  Biso   1.000  C
  C684     1.0000 0.89944  0.31324  0.81124  Biso   1.000  C
  C685     1.0000 0.91555  0.25746  0.82831  Biso   1.000  C
  C686     1.0000 0.92556  0.47439  0.44967  Biso   1.000  C
  C687     1.0000 0.92024  0.43582  0.49595  Biso   1.000  C
  C688     1.0000 0.81001  0.19666  0.76624  Biso   1.000  C
  H385     1.0000 0.80010  0.22630  0.80641  Biso   1.000  H
  C689     1.0000 0.86614  0.20362  0.74374  Biso   1.000  C
  H386     1.0000 0.89529  0.23750  0.76961  Biso   1.000  H
  C690     1.0000 0.83824  0.21568  0.89764  Biso   1.000  C
  H387     1.0000 0.84399  0.20550  0.84779  Biso   1.000  H
  H388     1.0000 0.84361  0.30530  0.87079  Biso   1.000  H
  C691     1.0000 0.83765  0.27424  0.91116  Biso   1.000  C
  H389     1.0000 0.88241  0.32930  0.80540  Biso   1.000  H
  C692     1.0000 0.93320  0.32363  0.81300  Biso   1.000  C
  C693     1.0000 0.94885  0.26754  0.83042  Biso   1.000  C
  H390     1.0000 0.90970  0.23470  0.83401  Biso   1.000  H
  C694     1.0000 0.94786  0.45206  0.43396  Biso   1.000  C
  H391     1.0000 0.92029  0.49560  0.43929  Biso   1.000  H
  C695     1.0000 0.94318  0.41418  0.48049  Biso   1.000  C
  H392     1.0000 0.91090  0.42999  0.51719  Biso   1.000  H
  C696     1.0000 0.83416  0.18847  0.74178  Biso   1.000  C
  H393     1.0000 0.78849  0.18559  0.76609  Biso   1.000  H
  H394     1.0000 0.88320  0.19761  0.72790  Biso   1.000  H
  C697     1.0000 0.83615  0.24084  0.92099  Biso   1.000  C
  H395     1.0000 0.83689  0.19259  0.90450  Biso   1.000  H
  H396     1.0000 0.83569  0.29190  0.92730  Biso   1.000  H
  H397     1.0000 0.93910  0.34651  0.80789  Biso   1.000  H
  C698     1.0000 0.95840  0.30066  0.82222  Biso   1.000  C
  H398     1.0000 0.96571  0.25171  0.83761  Biso   1.000  H
  C699     1.0000 0.95652  0.42151  0.44867  Biso   1.000  C
  H399     1.0000 0.95731  0.45789  0.41269  Biso   1.000  H
  H400     1.0000 0.95000  0.39389  0.49170  Biso   1.000  H
  C700     1.0000 0.82528  0.16640  0.71468  Biso   1.000  C
  O13      1.0000 0.83317  0.22981  0.95382  Biso   1.000  O
  C701     1.0000 0.99338  0.31133  0.82305  Biso   1.000  C
  C702     1.0000 0.98312  0.39692  0.43351  Biso   1.000  C
  C703     1.0000 0.81652  0.14913  0.69153  Biso   1.000  C
  C704     1.0000 0.83248  0.25484  0.97871  Biso   1.000  C
  C705     1.0000 0.02207  0.32141  0.82255  Biso   1.000  C
  C706     1.0000 0.97006  0.35995  0.43215  Biso   1.000  C
  C707     1.0000 0.99300  0.40573  0.39701  Biso   1.000  C
  C708     1.0000 0.01344  0.40115  0.45799  Biso   1.000  C
  C709     1.0000 0.80530  0.12907  0.66340  Biso   1.000  C
  H401     1.0000 0.81301  0.27001  0.97491  Biso   1.000  H
  H402     1.0000 0.85359  0.26810  0.97790  Biso   1.000  H
  H403     1.0000 0.83030  0.24409  0.00080  Biso   1.000  H
  C710     1.0000 0.05583  0.33513  0.82041  Biso   1.000  C
  C711     1.0000 0.93676  0.35056  0.43876  Biso   1.000  C
  C712     1.0000 0.99254  0.33445  0.42169  Biso   1.000  C
  C713     1.0000 0.96792  0.40794  0.37262  Biso   1.000  C
  C714     1.0000 0.02655  0.40761  0.38620  Biso   1.000  C
  C715     1.0000 0.02948  0.43287  0.45960  Biso   1.000  C
  C716     1.0000 0.02258  0.37668  0.48140  Biso   1.000  C
  C717     1.0000 0.77966  0.10517  0.66684  Biso   1.000  C
  N25      1.0000 0.82047  0.13490  0.63276  Biso   1.000  N
  C718     1.0000 0.07729  0.33554  0.84839  Biso   1.000  C
  N26      1.0000 0.06568  0.34921  0.79065  Biso   1.000  N
  C719     1.0000 0.92637  0.31680  0.43700  Biso   1.000  C
  H404     1.0000 0.92070  0.36759  0.44460  Biso   1.000  H
  C720     1.0000 0.98246  0.30115  0.41958  Biso   1.000  C
  H405     1.0000 0.01530  0.34030  0.41599  Biso   1.000  H
  H406     1.0000 0.94470  0.40639  0.37921  Biso   1.000  H
  C721     1.0000 0.97576  0.41235  0.33884  Biso   1.000  C
  C722     1.0000 0.03432  0.41176  0.35236  Biso   1.000  C
  H407     1.0000 0.04450  0.40601  0.40221  Biso   1.000  H
  H408     1.0000 0.02370  0.44990  0.44359  Biso   1.000  H
  C723     1.0000 0.05334  0.43999  0.48376  Biso   1.000  C
  C724     1.0000 0.04638  0.38386  0.50626  Biso   1.000  C
  H409     1.0000 0.01250  0.35471  0.48039  Biso   1.000  H
  C725     1.0000 0.76945  0.08610  0.63939  Biso   1.000  C
  H410     1.0000 0.76909  0.10181  0.68811  Biso   1.000  H
  C726     1.0000 0.81003  0.11591  0.60558  Biso   1.000  C
  H411     1.0000 0.83770  0.15171  0.63039  Biso   1.000  H
  H412     1.0000 0.07029  0.32541  0.86890  Biso   1.000  H
  C727     1.0000 0.10883  0.35084  0.84590  Biso   1.000  C
  C728     1.0000 0.09679  0.36446  0.78856  Biso   1.000  C
  H413     1.0000 0.05109  0.34840  0.77159  Biso   1.000  H
  C729     1.0000 0.94934  0.29160  0.42778  Biso   1.000  C
  H414     1.0000 0.90349  0.31090  0.44211  Biso   1.000  H
  H415     1.0000 0.99829  0.28429  0.41239  Biso   1.000  H
  H416     1.0000 0.95810  0.41431  0.32270  Biso   1.000  H
  C730     1.0000 0.00916  0.41385  0.32901  Biso   1.000  C
  H417     1.0000 0.05741  0.41311  0.34550  Biso   1.000  H
  H418     1.0000 0.06441  0.46151  0.48391  Biso   1.000  H
  C731     1.0000 0.06153  0.41584  0.50822  Biso   1.000  C
  H419     1.0000 0.05239  0.36680  0.52210  Biso   1.000  H
  C732     1.0000 0.78485  0.09134  0.60880  Biso   1.000  C
  H420     1.0000 0.75201  0.06950  0.64170  Biso   1.000  H
  C733     1.0000 0.82584  0.12289  0.57403  Biso   1.000  C
  H421     1.0000 0.12360  0.35130  0.86481  Biso   1.000  H
  C734     1.0000 0.11889  0.36533  0.81624  Biso   1.000  C
  C735     1.0000 0.10573  0.38037  0.75754  Biso   1.000  C
  C736     1.0000 0.93867  0.25662  0.42695  Biso   1.000  C
  O14      1.0000 0.02019  0.41683  0.29618  Biso   1.000  O
  C737     1.0000 0.08360  0.42472  0.53532  Biso   1.000  C
  H422     1.0000 0.77821  0.07821  0.58989  Biso   1.000  H
  C738     1.0000 0.83964  0.12974  0.54804  Biso   1.000  C
  H423     1.0000 0.14061  0.37579  0.81440  Biso   1.000  H
  C739     1.0000 0.11232  0.39422  0.73157  Biso   1.000  C
  C740     1.0000 0.92859  0.22793  0.42745  Biso   1.000  C
  C741     1.0000 0.99516  0.41752  0.27129  Biso   1.000  C
  C742     1.0000 0.10087  0.43348  0.55847  Biso   1.000  C
  C743     1.0000 0.85578  0.13768  0.51843  Biso   1.000  C
  C744     1.0000 0.12026  0.41036  0.70196  Biso   1.000  C
  C745     1.0000 0.91487  0.19417  0.42959  Biso   1.000  C
  H424     1.0000 0.97999  0.43699  0.27509  Biso   1.000  H
  H425     1.0000 0.98190  0.39641  0.27210  Biso   1.000  H
  H426     1.0000 0.00591  0.41970  0.24920  Biso   1.000  H
  C746     1.0000 0.12093  0.44470  0.58660  Biso   1.000  C
  C747     1.0000 0.86963  0.14427  0.49246  Biso   1.000  C
  C748     1.0000 0.12711  0.42416  0.67597  Biso   1.000  C
  N27      1.0000 0.90079  0.18432  0.45935  Biso   1.000  N
  C749     1.0000 0.91446  0.17271  0.40161  Biso   1.000  C
  C750     1.0000 0.14483  0.47034  0.58316  Biso   1.000  C
  N28      1.0000 0.11510  0.42953  0.61724  Biso   1.000  N
  C751     1.0000 0.88554  0.15321  0.46144  Biso   1.000  C
  C752     1.0000 0.13409  0.43997  0.64442  Biso   1.000  C
  H427     1.0000 0.90160  0.19891  0.47841  Biso   1.000  H
  C753     1.0000 0.89916  0.14117  0.40410  Biso   1.000  C
  H428     1.0000 0.92459  0.17971  0.38110  Biso   1.000  H
  H429     1.0000 0.14819  0.48091  0.56189  Biso   1.000  H
  C754     1.0000 0.16390  0.48055  0.61061  Biso   1.000  C
  H430     1.0000 0.09829  0.41230  0.61961  Biso   1.000  H
  C755     1.0000 0.88467  0.13111  0.43376  Biso   1.000  C
  C756     1.0000 0.15866  0.46515  0.64120  Biso   1.000  C
  H431     1.0000 0.89870  0.12640  0.38519  Biso   1.000  H
  H432     1.0000 0.18050  0.49799  0.60830  Biso   1.000  H
  H433     1.0000 0.87421  0.10939  0.43560  Biso   1.000  H
  H434     1.0000 0.17179  0.47179  0.66011  Biso   1.000  H
  C757     1.0000 0.31370  0.53419  0.29585  Biso   1.000  C
  C758     1.0000 0.28241  0.54208  0.30980  Biso   1.000  C
  C759     1.0000 0.32599  0.55344  0.26941  Biso   1.000  C
  H435     1.0000 0.32660  0.51571  0.30440  Biso   1.000  H
  C760     1.0000 0.26871  0.52324  0.33776  Biso   1.000  C
  C761     1.0000 0.26349  0.56904  0.29804  Biso   1.000  C
  C762     1.0000 0.30723  0.57986  0.25681  Biso   1.000  C
  H436     1.0000 0.34761  0.54829  0.25990  Biso   1.000  H
  C763     1.0000 0.25583  0.50950  0.36131  Biso   1.000  C
  C764     1.0000 0.27584  0.58793  0.27132  Biso   1.000  C
  H437     1.0000 0.24231  0.57459  0.30809  Biso   1.000  H
  H438     1.0000 0.31550  0.59269  0.23831  Biso   1.000  H
  C765     1.0000 0.24050  0.49417  0.38869  Biso   1.000  C
  C766     1.0000 0.25535  0.61487  0.25820  Biso   1.000  C
  C767     1.0000 0.22676  0.48129  0.41224  Biso   1.000  C
  C768     1.0000 0.23778  0.63613  0.24578  Biso   1.000  C
  C769     1.0000 0.20792  0.46759  0.44020  Biso   1.000  C
  C770     1.0000 0.21596  0.66087  0.23049  Biso   1.000  C
  C771     1.0000 0.21581  0.43630  0.45415  Biso   1.000  C
  C772     1.0000 0.18096  0.48651  0.45196  Biso   1.000  C
  C773     1.0000 0.22439  0.67556  0.19967  Biso   1.000  C
  C774     1.0000 0.18582  0.67024  0.24595  Biso   1.000  C
  C775     1.0000 0.19656  0.42401  0.48059  Biso   1.000  C
  H439     1.0000 0.23429  0.42340  0.44560  Biso   1.000  H
  C776     1.0000 0.16207  0.47416  0.47868  Biso   1.000  C
  H440     1.0000 0.17541  0.50769  0.44191  Biso   1.000  H
  C777     1.0000 0.20206  0.69786  0.18396  Biso   1.000  C
  H441     1.0000 0.24560  0.67029  0.18929  Biso   1.000  H
  H442     1.0000 0.17999  0.66090  0.26719  Biso   1.000  H
  C778     1.0000 0.16418  0.69318  0.23049  Biso   1.000  C
  C779     1.0000 0.17014  0.44277  0.49319  Biso   1.000  C
  H443     1.0000 0.20171  0.40239  0.49010  Biso   1.000  H
  C780     1.0000 0.13513  0.49465  0.49180  Biso   1.000  C
  C781     1.0000 0.17151  0.70652  0.19867  Biso   1.000  C
  H444     1.0000 0.20789  0.70731  0.16269  Biso   1.000  H
  H445     1.0000 0.14389  0.70000  0.24170  Biso   1.000  H
  H446     1.0000 0.15731  0.43450  0.51169  Biso   1.000  H
  C782     1.0000 0.11387  0.51222  0.50422  Biso   1.000  C
  C783     1.0000 0.14692  0.73312  0.18351  Biso   1.000  C
  C784     1.0000 0.08913  0.53404  0.51951  Biso   1.000  C
  C785     1.0000 0.15573  0.74300  0.14701  Biso   1.000  C
  C786     1.0000 0.15115  0.76344  0.20799  Biso   1.000  C
  C787     1.0000 0.10995  0.72006  0.18215  Biso   1.000  C
  C788     1.0000 0.07444  0.52561  0.55033  Biso   1.000  C
  C789     1.0000 0.07976  0.56418  0.50405  Biso   1.000  C
  C790     1.0000 0.15761  0.77655  0.13620  Biso   1.000  C
  C791     1.0000 0.15794  0.71792  0.12262  Biso   1.000  C
  C792     1.0000 0.18287  0.77948  0.20960  Biso   1.000  C
  C793     1.0000 0.12668  0.77258  0.23140  Biso   1.000  C
  C794     1.0000 0.10056  0.68676  0.18876  Biso   1.000  C
  C795     1.0000 0.08445  0.74254  0.17169  Biso   1.000  C
  C796     1.0000 0.05214  0.54794  0.56604  Biso   1.000  C
  H447     1.0000 0.07971  0.50440  0.56071  Biso   1.000  H
  H448     1.0000 0.08910  0.57001  0.48281  Biso   1.000  H
  C797     1.0000 0.05682  0.58582  0.51951  Biso   1.000  C
  C798     1.0000 0.16176  0.78432  0.10236  Biso   1.000  C
  H449     1.0000 0.15601  0.79450  0.15221  Biso   1.000  H
  H450     1.0000 0.15639  0.69470  0.12921  Biso   1.000  H
  C799     1.0000 0.16235  0.72576  0.08884  Biso   1.000  C
  H451     1.0000 0.19990  0.77370  0.19359  Biso   1.000  H
  C800     1.0000 0.18999  0.80334  0.23376  Biso   1.000  C
  C801     1.0000 0.13386  0.79638  0.25626  Biso   1.000  C
  H452     1.0000 0.10471  0.76250  0.23039  Biso   1.000  H
  H453     1.0000 0.11759  0.67070  0.19460  Biso   1.000  H
  C802     1.0000 0.06680  0.67637  0.18700  Biso   1.000  C
  C803     1.0000 0.05115  0.73246  0.16958  Biso   1.000  C
  H454     1.0000 0.09030  0.76530  0.16599  Biso   1.000  H
  C804     1.0000 0.04348  0.57849  0.55133  Biso   1.000  C
  H455     1.0000 0.04269  0.54211  0.58731  Biso   1.000  H
  H456     1.0000 0.05000  0.60611  0.50830  Biso   1.000  H
  C805     1.0000 0.16385  0.75916  0.07901  Biso   1.000  C
  H457     1.0000 0.16311  0.80741  0.09550  Biso   1.000  H
  H458     1.0000 0.16431  0.70810  0.07270  Biso   1.000  H
  H459     1.0000 0.21151  0.81441  0.23391  Biso   1.000  H
  C806     1.0000 0.16584  0.81153  0.25822  Biso   1.000  C
  H460     1.0000 0.11680  0.80239  0.27210  Biso   1.000  H
  H461     1.0000 0.06090  0.65349  0.19211  Biso   1.000  H
  C807     1.0000 0.04160  0.69934  0.17778  Biso   1.000  C
  H462     1.0000 0.03429  0.74829  0.16239  Biso   1.000  H
  C808     1.0000 0.01688  0.60308  0.56649  Biso   1.000  C
  O15      1.0000 0.16683  0.77019  0.04618  Biso   1.000  O
  C809     1.0000 0.17472  0.83360  0.28532  Biso   1.000  C
  C810     1.0000 0.00662  0.68867  0.17695  Biso   1.000  C
  C811     1.0000 0.00700  0.59427  0.60299  Biso   1.000  C
  C812     1.0000 0.02994  0.64005  0.56785  Biso   1.000  C
  C813     1.0000 0.98656  0.59885  0.54201  Biso   1.000  C
  C814     1.0000 0.16752  0.74516  0.02129  Biso   1.000  C
  C815     1.0000 0.18348  0.85087  0.30847  Biso   1.000  C
  C816     1.0000 0.97793  0.67859  0.17745  Biso   1.000  C
  C817     1.0000 0.03208  0.59206  0.62738  Biso   1.000  C
  C818     1.0000 0.97345  0.59239  0.61380  Biso   1.000  C
  C819     1.0000 0.06324  0.64944  0.56124  Biso   1.000  C
  C820     1.0000 0.00746  0.66555  0.57831  Biso   1.000  C
  C821     1.0000 0.97052  0.56713  0.54040  Biso   1.000  C
  C822     1.0000 0.97742  0.62332  0.51860  Biso   1.000  C
  H463     1.0000 0.18699  0.72999  0.02509  Biso   1.000  H
  H464     1.0000 0.14641  0.73190  0.02210  Biso   1.000  H
  H465     1.0000 0.16970  0.75591  0.99920  Biso   1.000  H
  C823     1.0000 0.19470  0.87093  0.33660  Biso   1.000  C
  C824     1.0000 0.94417  0.66487  0.17959  Biso   1.000  C
  H466     1.0000 0.05530  0.59361  0.62079  Biso   1.000  H
  C825     1.0000 0.02424  0.58765  0.66116  Biso   1.000  C
  C826     1.0000 0.96568  0.58824  0.64764  Biso   1.000  C
  H467     1.0000 0.95550  0.59399  0.59779  Biso   1.000  H
  H468     1.0000 0.07930  0.63241  0.55540  Biso   1.000  H
  C827     1.0000 0.07363  0.68320  0.56300  Biso   1.000  C
  C828     1.0000 0.01754  0.69885  0.58042  Biso   1.000  C
  H469     1.0000 0.98470  0.65970  0.58401  Biso   1.000  H
  H470     1.0000 0.97630  0.55010  0.55641  Biso   1.000  H
  C829     1.0000 0.94666  0.56001  0.51624  Biso   1.000  C
  C830     1.0000 0.95362  0.61614  0.49374  Biso   1.000  C
  H471     1.0000 0.98750  0.64529  0.51961  Biso   1.000  H
  C831     1.0000 0.22034  0.89483  0.33316  Biso   1.000  C
  N29      1.0000 0.17953  0.86510  0.36724  Biso   1.000  N
  C832     1.0000 0.92271  0.66446  0.15161  Biso   1.000  C
  N30      1.0000 0.93432  0.65079  0.20935  Biso   1.000  N
  H472     1.0000 0.04190  0.58569  0.67730  Biso   1.000  H
  C833     1.0000 0.99084  0.58615  0.67099  Biso   1.000  C
  H473     1.0000 0.94259  0.58689  0.65450  Biso   1.000  H
  H474     1.0000 0.09651  0.68910  0.55789  Biso   1.000  H
  C834     1.0000 0.05066  0.70840  0.57222  Biso   1.000  C
  H475     1.0000 0.00171  0.71571  0.58761  Biso   1.000  H
  H476     1.0000 0.93559  0.53849  0.51609  Biso   1.000  H
  C835     1.0000 0.93847  0.58416  0.49178  Biso   1.000  C
  H477     1.0000 0.94761  0.63320  0.47790  Biso   1.000  H
  H478     1.0000 0.23091  0.89819  0.31189  Biso   1.000  H
  C836     1.0000 0.23055  0.91390  0.36061  Biso   1.000  C
  C837     1.0000 0.18997  0.88409  0.39442  Biso   1.000  C
  H479     1.0000 0.16230  0.84829  0.36961  Biso   1.000  H
  H480     1.0000 0.92971  0.67459  0.13110  Biso   1.000  H
  C838     1.0000 0.89117  0.64916  0.15410  Biso   1.000  C
  C839     1.0000 0.90321  0.63554  0.21144  Biso   1.000  C
  H481     1.0000 0.94891  0.65160  0.22841  Biso   1.000  H
  O16      1.0000 0.97981  0.58317  0.70382  Biso   1.000  O
  C840     1.0000 0.06133  0.74338  0.57305  Biso   1.000  C
  C841     1.0000 0.91640  0.57528  0.46468  Biso   1.000  C
  C842     1.0000 0.21515  0.90866  0.39120  Biso   1.000  C
  H482     1.0000 0.24799  0.93050  0.35830  Biso   1.000  H
  C843     1.0000 0.17416  0.87711  0.42597  Biso   1.000  C
  C844     1.0000 0.88111  0.63467  0.18376  Biso   1.000  C
  H483     1.0000 0.87640  0.64870  0.13519  Biso   1.000  H
  C845     1.0000 0.89427  0.61963  0.24246  Biso   1.000  C
  C846     1.0000 0.00484  0.58248  0.72871  Biso   1.000  C
  C847     1.0000 0.07141  0.77207  0.57255  Biso   1.000  C
  C848     1.0000 0.89913  0.56652  0.44153  Biso   1.000  C
  H484     1.0000 0.22179  0.92179  0.41011  Biso   1.000  H
  C849     1.0000 0.16036  0.87026  0.45196  Biso   1.000  C
  H485     1.0000 0.85939  0.62421  0.18560  Biso   1.000  H
  C850     1.0000 0.88768  0.60578  0.26843  Biso   1.000  C
  H486     1.0000 0.02001  0.56301  0.72491  Biso   1.000  H
  H487     1.0000 0.01810  0.60359  0.72790  Biso   1.000  H
  H488     1.0000 0.99409  0.58030  0.75080  Biso   1.000  H
  C851     1.0000 0.08513  0.80583  0.57041  Biso   1.000  C
  C852     1.0000 0.87907  0.55530  0.41340  Biso   1.000  C
  C853     1.0000 0.14422  0.86232  0.48157  Biso   1.000  C
  C854     1.0000 0.87974  0.58964  0.29804  Biso   1.000  C
  C855     1.0000 0.08554  0.82729  0.59839  Biso   1.000  C
  N31      1.0000 0.09921  0.81568  0.54065  Biso   1.000  N
  C856     1.0000 0.85517  0.52966  0.41684  Biso   1.000  C
  N32      1.0000 0.88490  0.57047  0.38276  Biso   1.000  N
  C857     1.0000 0.13037  0.85573  0.50754  Biso   1.000  C
  C858     1.0000 0.87289  0.57584  0.32403  Biso   1.000  C
  H489     1.0000 0.07541  0.82029  0.61890  Biso   1.000  H
  C859     1.0000 0.10084  0.85883  0.59590  Biso   1.000  C
  C860     1.0000 0.11446  0.84679  0.53856  Biso   1.000  C
  H490     1.0000 0.09840  0.80109  0.52159  Biso   1.000  H
  H491     1.0000 0.85181  0.51909  0.43811  Biso   1.000  H
  C861     1.0000 0.83610  0.51945  0.38939  Biso   1.000  C
  C862     1.0000 0.86591  0.56003  0.35558  Biso   1.000  C
  H492     1.0000 0.90171  0.58770  0.38039  Biso   1.000  H
  H493     1.0000 0.10130  0.87360  0.61481  Biso   1.000  H
  C863     1.0000 0.11533  0.86889  0.56624  Biso   1.000  C
  H494     1.0000 0.81950  0.50201  0.39170  Biso   1.000  H
  C864     1.0000 0.84134  0.53485  0.35880  Biso   1.000  C
  H495     1.0000 0.12579  0.89061  0.56440  Biso   1.000  H
  H496     1.0000 0.82821  0.52821  0.33989  Biso   1.000  H
  O17      1.0000 0.66683  0.27019  0.54618  Biso   1.000  O
  C865     1.0000 0.66385  0.25916  0.57901  Biso   1.000  C
  C866     1.0000 0.66752  0.24516  0.52129  Biso   1.000  C
  C867     1.0000 0.66176  0.28432  0.60236  Biso   1.000  C
  C868     1.0000 0.66235  0.22576  0.58884  Biso   1.000  C
  H497     1.0000 0.66970  0.25591  0.49920  Biso   1.000  H
  H498     1.0000 0.68699  0.22999  0.52509  Biso   1.000  H
  H499     1.0000 0.64641  0.23190  0.52210  Biso   1.000  H
  C869     1.0000 0.65761  0.27655  0.63620  Biso   1.000  C
  H500     1.0000 0.66311  0.30741  0.59550  Biso   1.000  H
  C870     1.0000 0.65794  0.21792  0.62262  Biso   1.000  C
  H501     1.0000 0.66431  0.20810  0.57270  Biso   1.000  H
  C871     1.0000 0.65573  0.24300  0.64701  Biso   1.000  C
  H502     1.0000 0.65601  0.29450  0.65221  Biso   1.000  H
  H503     1.0000 0.65639  0.19470  0.62921  Biso   1.000  H
  C872     1.0000 0.64692  0.23312  0.68351  Biso   1.000  C
  C873     1.0000 0.60995  0.22006  0.68215  Biso   1.000  C
  C874     1.0000 0.65115  0.26344  0.70799  Biso   1.000  C
  C875     1.0000 0.67151  0.20652  0.69867  Biso   1.000  C
  C876     1.0000 0.60056  0.18676  0.68876  Biso   1.000  C
  C877     1.0000 0.58445  0.24254  0.67169  Biso   1.000  C
  C878     1.0000 0.68287  0.27948  0.70960  Biso   1.000  C
  C879     1.0000 0.62668  0.27258  0.73140  Biso   1.000  C
  C880     1.0000 0.70206  0.19786  0.68396  Biso   1.000  C
  C881     1.0000 0.66418  0.19318  0.73049  Biso   1.000  C
  C882     1.0000 0.56680  0.17637  0.68700  Biso   1.000  C
  H504     1.0000 0.61759  0.17070  0.69460  Biso   1.000  H
  C883     1.0000 0.55115  0.23246  0.66958  Biso   1.000  C
  H505     1.0000 0.59030  0.26530  0.66599  Biso   1.000  H
  H506     1.0000 0.69990  0.27370  0.69359  Biso   1.000  H
  C884     1.0000 0.68999  0.30334  0.73376  Biso   1.000  C
  C885     1.0000 0.63386  0.29638  0.75626  Biso   1.000  C
  H507     1.0000 0.60471  0.26250  0.73039  Biso   1.000  H
  H508     1.0000 0.70789  0.20731  0.66269  Biso   1.000  H
  C886     1.0000 0.72439  0.17556  0.69967  Biso   1.000  C
  C887     1.0000 0.68582  0.17024  0.74595  Biso   1.000  C
  H509     1.0000 0.64389  0.20000  0.74170  Biso   1.000  H
  C888     1.0000 0.54160  0.19934  0.67778  Biso   1.000  C
  H510     1.0000 0.56090  0.15349  0.69211  Biso   1.000  H
  H511     1.0000 0.53429  0.24829  0.66239  Biso   1.000  H
  H512     1.0000 0.71151  0.31441  0.73391  Biso   1.000  H
  C889     1.0000 0.66584  0.31153  0.75822  Biso   1.000  C
  H513     1.0000 0.61680  0.30239  0.77210  Biso   1.000  H
  H514     1.0000 0.74560  0.17029  0.68929  Biso   1.000  H
  C890     1.0000 0.71596  0.16087  0.73049  Biso   1.000  C
  H515     1.0000 0.67999  0.16090  0.76719  Biso   1.000  H
  C891     1.0000 0.50662  0.18867  0.67695  Biso   1.000  C
  C892     1.0000 0.67472  0.33360  0.78532  Biso   1.000  C
  C893     1.0000 0.73778  0.13613  0.74578  Biso   1.000  C
  C894     1.0000 0.47793  0.17859  0.67745  Biso   1.000  C
  C895     1.0000 0.68348  0.35087  0.80847  Biso   1.000  C
  C896     1.0000 0.75535  0.11487  0.75820  Biso   1.000  C
  C897     1.0000 0.44417  0.16487  0.67959  Biso   1.000  C
  C898     1.0000 0.69470  0.37093  0.83660  Biso   1.000  C
  C899     1.0000 0.77584  0.08793  0.77132  Biso   1.000  C
  C900     1.0000 0.42271  0.16446  0.65161  Biso   1.000  C
  N33      1.0000 0.43432  0.15079  0.70935  Biso   1.000  N
  C901     1.0000 0.72034  0.39483  0.83316  Biso   1.000  C
  N34      1.0000 0.67953  0.36510  0.86724  Biso   1.000  N
  C902     1.0000 0.80723  0.07986  0.75681  Biso   1.000  C
  C903     1.0000 0.76349  0.06904  0.79804  Biso   1.000  C
  C904     1.0000 0.39117  0.14916  0.65410  Biso   1.000  C
  H516     1.0000 0.42971  0.17459  0.63110  Biso   1.000  H
  C905     1.0000 0.40321  0.13554  0.71144  Biso   1.000  C
  H517     1.0000 0.44891  0.15160  0.72841  Biso   1.000  H
  H518     1.0000 0.73091  0.39819  0.81189  Biso   1.000  H
  C906     1.0000 0.73055  0.41390  0.86061  Biso   1.000  C
  C907     1.0000 0.68997  0.38409  0.89442  Biso   1.000  C
  H519     1.0000 0.66230  0.34829  0.86961  Biso   1.000  H
  H520     1.0000 0.81550  0.09269  0.73831  Biso   1.000  H
  C908     1.0000 0.82599  0.05344  0.76941  Biso   1.000  C
  C909     1.0000 0.78241  0.04208  0.80980  Biso   1.000  C
  H521     1.0000 0.74231  0.07459  0.80809  Biso   1.000  H
  H522     1.0000 0.37640  0.14870  0.63519  Biso   1.000  H
  C910     1.0000 0.38111  0.13467  0.68376  Biso   1.000  C
  C911     1.0000 0.39427  0.11963  0.74246  Biso   1.000  C
  H523     1.0000 0.74799  0.43050  0.85830  Biso   1.000  H
  C912     1.0000 0.71515  0.40866  0.89120  Biso   1.000  C
  C913     1.0000 0.67416  0.37711  0.92597  Biso   1.000  C
  H524     1.0000 0.84761  0.04829  0.75990  Biso   1.000  H
  C914     1.0000 0.81370  0.03419  0.79585  Biso   1.000  C
  C915     1.0000 0.76871  0.02324  0.83776  Biso   1.000  C
  H525     1.0000 0.35939  0.12421  0.68560  Biso   1.000  H
  C916     1.0000 0.38768  0.10578  0.76843  Biso   1.000  C
  H526     1.0000 0.72179  0.42179  0.91011  Biso   1.000  H
  C917     1.0000 0.66036  0.37026  0.95196  Biso   1.000  C
  H527     1.0000 0.82660  0.01571  0.80440  Biso   1.000  H
  C918     1.0000 0.75583  0.00950  0.86131  Biso   1.000  C
  C919     1.0000 0.37974  0.08964  0.79804  Biso   1.000  C
  C920     1.0000 0.64422  0.36232  0.98157  Biso   1.000  C
  C921     1.0000 0.74050  0.99417  0.88869  Biso   1.000  C
  C922     1.0000 0.37289  0.07584  0.82403  Biso   1.000  C
  C923     1.0000 0.63037  0.35573  0.00754  Biso   1.000  C
  C924     1.0000 0.72676  0.98129  0.91224  Biso   1.000  C
  C925     1.0000 0.36591  0.06003  0.85558  Biso   1.000  C
  C926     1.0000 0.61446  0.34679  0.03856  Biso   1.000  C
  C927     1.0000 0.70792  0.96759  0.94020  Biso   1.000  C
  C928     1.0000 0.34134  0.03485  0.85880  Biso   1.000  C
  N35      1.0000 0.38490  0.07047  0.88276  Biso   1.000  N
  C929     1.0000 0.61533  0.36889  0.06624  Biso   1.000  C
  N36      1.0000 0.59921  0.31568  0.04065  Biso   1.000  N
  C930     1.0000 0.71581  0.93630  0.95415  Biso   1.000  C
  C931     1.0000 0.68096  0.98651  0.95196  Biso   1.000  C
  C932     1.0000 0.33610  0.01945  0.88939  Biso   1.000  C
  H528     1.0000 0.32821  0.02821  0.83989  Biso   1.000  H
  C933     1.0000 0.37907  0.05530  0.91340  Biso   1.000  C
  H529     1.0000 0.40171  0.08770  0.88039  Biso   1.000  H
  C934     1.0000 0.60084  0.35883  0.09590  Biso   1.000  C
  H530     1.0000 0.62579  0.39061  0.06440  Biso   1.000  H
  C935     1.0000 0.58513  0.30583  0.07041  Biso   1.000  C
  H531     1.0000 0.59840  0.30109  0.02159  Biso   1.000  H
  C936     1.0000 0.69656  0.92401  0.98059  Biso   1.000  C
  H532     1.0000 0.73429  0.92340  0.94560  Biso   1.000  H
  C937     1.0000 0.66207  0.97416  0.97868  Biso   1.000  C
  H533     1.0000 0.67541  0.00769  0.94191  Biso   1.000  H
  C938     1.0000 0.35517  0.02966  0.91684  Biso   1.000  C
  H534     1.0000 0.31950  0.00201  0.89170  Biso   1.000  H
  C939     1.0000 0.39913  0.06652  0.94153  Biso   1.000  C
  C940     1.0000 0.58554  0.32729  0.09839  Biso   1.000  C
  H535     1.0000 0.60130  0.37360  0.11481  Biso   1.000  H
  C941     1.0000 0.57141  0.27207  0.07255  Biso   1.000  C
  C942     1.0000 0.67014  0.94277  0.99319  Biso   1.000  C
  H536     1.0000 0.70171  0.90239  0.99010  Biso   1.000  H
  C943     1.0000 0.63513  0.99465  0.99180  Biso   1.000  C
  H537     1.0000 0.35181  0.01909  0.93811  Biso   1.000  H
  C944     1.0000 0.41640  0.07528  0.96468  Biso   1.000  C
  H538     1.0000 0.57541  0.32029  0.11890  Biso   1.000  H
  C945     1.0000 0.56133  0.24338  0.07305  Biso   1.000  C
  H539     1.0000 0.65731  0.93450  0.01169  Biso   1.000  H
  C946     1.0000 0.61387  0.01222  0.00422  Biso   1.000  C
  C947     1.0000 0.43847  0.08416  0.99178  Biso   1.000  C
  C948     1.0000 0.55066  0.20840  0.07222  Biso   1.000  C
  C949     1.0000 0.58913  0.03404  0.01951  Biso   1.000  C
  C950     1.0000 0.45362  0.11614  0.99374  Biso   1.000  C
  C951     1.0000 0.44666  0.06001  0.01624  Biso   1.000  C
  C952     1.0000 0.57363  0.18320  0.06300  Biso   1.000  C
  C953     1.0000 0.51754  0.19885  0.08042  Biso   1.000  C
  C954     1.0000 0.57444  0.02561  0.05033  Biso   1.000  C
  C955     1.0000 0.57976  0.06418  0.00405  Biso   1.000  C
  H540     1.0000 0.44761  0.13320  0.97790  Biso   1.000  H
  C956     1.0000 0.47742  0.12332  0.01860  Biso   1.000  C
  C957     1.0000 0.47052  0.06713  0.04040  Biso   1.000  C
  H541     1.0000 0.43559  0.03849  0.01609  Biso   1.000  H
  C958     1.0000 0.56324  0.14944  0.06124  Biso   1.000  C
  H542     1.0000 0.59651  0.18910  0.05789  Biso   1.000  H
  C959     1.0000 0.50746  0.16555  0.07831  Biso   1.000  C
  H543     1.0000 0.50171  0.21571  0.08761  Biso   1.000  H
  C960     1.0000 0.55214  0.04794  0.06604  Biso   1.000  C
  H544     1.0000 0.57971  0.00440  0.06071  Biso   1.000  H
  C961     1.0000 0.55682  0.08582  0.01951  Biso   1.000  C
  H545     1.0000 0.58910  0.07001  0.98281  Biso   1.000  H
  C962     1.0000 0.48656  0.09885  0.04201  Biso   1.000  C
  H546     1.0000 0.48750  0.14529  0.01961  Biso   1.000  H
  H547     1.0000 0.47630  0.05010  0.05641  Biso   1.000  H
  C963     1.0000 0.52994  0.14005  0.06785  Biso   1.000  C
  H548     1.0000 0.57930  0.13241  0.05540  Biso   1.000  H
  H549     1.0000 0.48470  0.15970  0.08401  Biso   1.000  H
  C964     1.0000 0.54348  0.07849  0.05133  Biso   1.000  C
  H550     1.0000 0.54269  0.04211  0.08731  Biso   1.000  H
  H551     1.0000 0.55000  0.10611  0.00830  Biso   1.000  H
  C965     1.0000 0.51688  0.10308  0.06649  Biso   1.000  C
  C966     1.0000 0.50700  0.09427  0.10299  Biso   1.000  C
  C967     1.0000 0.47345  0.09239  0.11380  Biso   1.000  C
  C968     1.0000 0.53208  0.09206  0.12738  Biso   1.000  C
  C969     1.0000 0.46568  0.08824  0.14764  Biso   1.000  C
  H552     1.0000 0.45550  0.09399  0.09779  Biso   1.000  H
  H553     1.0000 0.55530  0.09361  0.12079  Biso   1.000  H
  C970     1.0000 0.52424  0.08765  0.16116  Biso   1.000  C
  C971     1.0000 0.49084  0.08615  0.17099  Biso   1.000  C
  H554     1.0000 0.44259  0.08689  0.15450  Biso   1.000  H
  H555     1.0000 0.54190  0.08569  0.17730  Biso   1.000  H
  O18      1.0000 0.47981  0.08317  0.20382  Biso   1.000  O
  C972     1.0000 0.50484  0.08248  0.22871  Biso   1.000  C
  H556     1.0000 0.49409  0.08030  0.25080  Biso   1.000  H
  H557     1.0000 0.52001  0.06301  0.22491  Biso   1.000  H
  H558     1.0000 0.51810  0.10359  0.22790  Biso   1.000  H
  O19      1.0000 0.33317  0.72981  0.45382  Biso   1.000  O
  C973     1.0000 0.33615  0.74084  0.42099  Biso   1.000  C
  C974     1.0000 0.33248  0.75484  0.47871  Biso   1.000  C
  C975     1.0000 0.33824  0.71568  0.39764  Biso   1.000  C
  C976     1.0000 0.33765  0.77424  0.41116  Biso   1.000  C
  H559     1.0000 0.33030  0.74409  0.50080  Biso   1.000  H
  H560     1.0000 0.31301  0.77001  0.47491  Biso   1.000  H
  H561     1.0000 0.35359  0.76810  0.47790  Biso   1.000  H
  C977     1.0000 0.34239  0.72345  0.36380  Biso   1.000  C
  H562     1.0000 0.33689  0.69259  0.40450  Biso   1.000  H
  C978     1.0000 0.34206  0.78208  0.37738  Biso   1.000  C
  H563     1.0000 0.33569  0.79190  0.42730  Biso   1.000  H
  C979     1.0000 0.34427  0.75700  0.35299  Biso   1.000  C
  H564     1.0000 0.34399  0.70550  0.34779  Biso   1.000  H
  H565     1.0000 0.34361  0.80530  0.37079  Biso   1.000  H
  C980     1.0000 0.35308  0.76688  0.31649  Biso   1.000  C
  C981     1.0000 0.34885  0.73656  0.29201  Biso   1.000  C
  C982     1.0000 0.32849  0.79348  0.30133  Biso   1.000  C
  C983     1.0000 0.39005  0.77994  0.31785  Biso   1.000  C
  C984     1.0000 0.31713  0.72052  0.29040  Biso   1.000  C
  C985     1.0000 0.37332  0.72742  0.26860  Biso   1.000  C
  C986     1.0000 0.29794  0.80214  0.31604  Biso   1.000  C
  C987     1.0000 0.33582  0.80682  0.26951  Biso   1.000  C
  C988     1.0000 0.39944  0.81324  0.31124  Biso   1.000  C
  C989     1.0000 0.41555  0.75746  0.32831  Biso   1.000  C
  C990     1.0000 0.31001  0.69666  0.26624  Biso   1.000  C
  H566     1.0000 0.30010  0.72630  0.30641  Biso   1.000  H
  C991     1.0000 0.36614  0.70362  0.24374  Biso   1.000  C
  H567     1.0000 0.39529  0.73750  0.26961  Biso   1.000  H
  H568     1.0000 0.29211  0.79269  0.33731  Biso   1.000  H
  C992     1.0000 0.27561  0.82444  0.30033  Biso   1.000  C
  C993     1.0000 0.31418  0.82976  0.25405  Biso   1.000  C
  H569     1.0000 0.35611  0.80000  0.25830  Biso   1.000  H
  H570     1.0000 0.38241  0.82930  0.30540  Biso   1.000  H
  C994     1.0000 0.43320  0.82363  0.31300  Biso   1.000  C
  C995     1.0000 0.44885  0.76754  0.33042  Biso   1.000  C
  H571     1.0000 0.40970  0.73470  0.33401  Biso   1.000  H
  C996     1.0000 0.33416  0.68847  0.24178  Biso   1.000  C
  H572     1.0000 0.28849  0.68559  0.26609  Biso   1.000  H
  H573     1.0000 0.38320  0.69761  0.22790  Biso   1.000  H
  H574     1.0000 0.25440  0.82971  0.31071  Biso   1.000  H
  C997     1.0000 0.28404  0.83913  0.26951  Biso   1.000  C
  H575     1.0000 0.32001  0.83910  0.23281  Biso   1.000  H
  H576     1.0000 0.43910  0.84651  0.30789  Biso   1.000  H
  C998     1.0000 0.45840  0.80066  0.32222  Biso   1.000  C
  H577     1.0000 0.46571  0.75171  0.33761  Biso   1.000  H
  C999     1.0000 0.32528  0.66640  0.21468  Biso   1.000  C
  C1000    1.0000 0.26222  0.86387  0.25422  Biso   1.000  C
  C1001    1.0000 0.49338  0.81133  0.32305  Biso   1.000  C
  C1002    1.0000 0.31652  0.64913  0.19153  Biso   1.000  C
  C1003    1.0000 0.24465  0.88513  0.24180  Biso   1.000  C
  C1004    1.0000 0.52207  0.82141  0.32255  Biso   1.000  C
  C1005    1.0000 0.30530  0.62907  0.16340  Biso   1.000  C
  C1006    1.0000 0.22416  0.91207  0.22868  Biso   1.000  C
  C1007    1.0000 0.55583  0.83513  0.32041  Biso   1.000  C
  C1008    1.0000 0.27966  0.60517  0.16684  Biso   1.000  C
  N37      1.0000 0.32047  0.63490  0.13276  Biso   1.000  N
  C1009    1.0000 0.19277  0.92014  0.24319  Biso   1.000  C
  C1010    1.0000 0.23651  0.93096  0.20196  Biso   1.000  C
  C1011    1.0000 0.57729  0.83554  0.34839  Biso   1.000  C
  N38      1.0000 0.56568  0.84921  0.29065  Biso   1.000  N
  C1012    1.0000 0.26945  0.58610  0.13939  Biso   1.000  C
  H578     1.0000 0.26909  0.60181  0.18811  Biso   1.000  H
  C1013    1.0000 0.31003  0.61591  0.10558  Biso   1.000  C
  H579     1.0000 0.33770  0.65171  0.13039  Biso   1.000  H
  H580     1.0000 0.18450  0.90731  0.26169  Biso   1.000  H
  C1014    1.0000 0.17401  0.94656  0.23059  Biso   1.000  C
  C1015    1.0000 0.21759  0.95792  0.19020  Biso   1.000  C
  H581     1.0000 0.25769  0.92541  0.19191  Biso   1.000  H
  H582     1.0000 0.57029  0.82541  0.36890  Biso   1.000  H
  C1016    1.0000 0.60883  0.85084  0.34590  Biso   1.000  C
  C1017    1.0000 0.59679  0.86446  0.28856  Biso   1.000  C
  H583     1.0000 0.55109  0.84840  0.27159  Biso   1.000  H
  H584     1.0000 0.25201  0.56950  0.14170  Biso   1.000  H
  C1018    1.0000 0.28485  0.59134  0.10880  Biso   1.000  C
  C1019    1.0000 0.32584  0.62289  0.07403  Biso   1.000  C
  H585     1.0000 0.15239  0.95171  0.24010  Biso   1.000  H
  C1020    1.0000 0.18630  0.96581  0.20415  Biso   1.000  C
  C1021    1.0000 0.23129  0.97676  0.16224  Biso   1.000  C
  H586     1.0000 0.62360  0.85130  0.36481  Biso   1.000  H
  C1022    1.0000 0.61889  0.86533  0.31624  Biso   1.000  C
  C1023    1.0000 0.60573  0.88037  0.25754  Biso   1.000  C
  H587     1.0000 0.27821  0.57821  0.08989  Biso   1.000  H
  C1024    1.0000 0.33964  0.62974  0.04804  Biso   1.000  C
  H588     1.0000 0.17340  0.98429  0.19560  Biso   1.000  H
  C1025    1.0000 0.24417  0.99050  0.13869  Biso   1.000  C
  H589     1.0000 0.64061  0.87579  0.31440  Biso   1.000  H
  C1026    1.0000 0.61232  0.89422  0.23157  Biso   1.000  C
  C1027    1.0000 0.35578  0.63768  0.01843  Biso   1.000  C
  C1028    1.0000 0.25950  0.00583  0.11131  Biso   1.000  C
  C1029    1.0000 0.62026  0.91036  0.20196  Biso   1.000  C
  C1030    1.0000 0.36963  0.64427  0.99246  Biso   1.000  C
  C1031    1.0000 0.27324  0.01871  0.08776  Biso   1.000  C
  C1032    1.0000 0.62711  0.92416  0.17597  Biso   1.000  C
  C1033    1.0000 0.38554  0.65321  0.96144  Biso   1.000  C
  C1034    1.0000 0.29208  0.03241  0.05980  Biso   1.000  C
  C1035    1.0000 0.63409  0.93997  0.14442  Biso   1.000  C
  C1036    1.0000 0.38467  0.63111  0.93376  Biso   1.000  C
  N39      1.0000 0.40079  0.68432  0.95935  Biso   1.000  N
  C1037    1.0000 0.28419  0.06370  0.04585  Biso   1.000  C
  C1038    1.0000 0.31904  0.01349  0.04804  Biso   1.000  C
  C1039    1.0000 0.65866  0.96515  0.14120  Biso   1.000  C
  N40      1.0000 0.61510  0.92953  0.11724  Biso   1.000  N
  C1040    1.0000 0.39916  0.64117  0.90410  Biso   1.000  C
  H590     1.0000 0.37421  0.60939  0.93560  Biso   1.000  H
  C1041    1.0000 0.41487  0.69417  0.92959  Biso   1.000  C
  H591     1.0000 0.40160  0.69891  0.97841  Biso   1.000  H
  C1042    1.0000 0.30344  0.07599  0.01941  Biso   1.000  C
  H592     1.0000 0.26571  0.07660  0.05440  Biso   1.000  H
  C1043    1.0000 0.33793  0.02584  0.02132  Biso   1.000  C
  H593     1.0000 0.32459  0.99231  0.05809  Biso   1.000  H
  C1044    1.0000 0.66390  0.98055  0.11061  Biso   1.000  C
  H594     1.0000 0.67179  0.97179  0.16011  Biso   1.000  H
  C1045    1.0000 0.62093  0.94470  0.08660  Biso   1.000  C
  H595     1.0000 0.59829  0.91230  0.11961  Biso   1.000  H
  C1046    1.0000 0.41446  0.67271  0.90161  Biso   1.000  C
  H596     1.0000 0.39870  0.62640  0.88519  Biso   1.000  H
  C1047    1.0000 0.42859  0.72793  0.92745  Biso   1.000  C
  C1048    1.0000 0.32986  0.05723  0.00681  Biso   1.000  C
  H597     1.0000 0.29829  0.09761  0.00990  Biso   1.000  H
  C1049    1.0000 0.36487  0.00535  0.00820  Biso   1.000  C
  C1050    1.0000 0.64483  0.97034  0.08316  Biso   1.000  C
  H598     1.0000 0.68050  0.99799  0.10830  Biso   1.000  H
  C1051    1.0000 0.60087  0.93348  0.05847  Biso   1.000  C
  H599     1.0000 0.42459  0.67971  0.88110  Biso   1.000  H
  C1052    1.0000 0.43867  0.75662  0.92695  Biso   1.000  C
  H600     1.0000 0.34269  0.06550  0.98831  Biso   1.000  H
  C1053    1.0000 0.38613  0.98778  0.99578  Biso   1.000  C
  H601     1.0000 0.64819  0.98091  0.06189  Biso   1.000  H
  C1054    1.0000 0.58360  0.92472  0.03532  Biso   1.000  C
  C1055    1.0000 0.44934  0.79160  0.92778  Biso   1.000  C
  C1056    1.0000 0.41087  0.96596  0.98049  Biso   1.000  C
  C1057    1.0000 0.56153  0.91584  0.00822  Biso   1.000  C
  C1058    1.0000 0.42637  0.81680  0.93700  Biso   1.000  C
  C1059    1.0000 0.48246  0.80115  0.91958  Biso   1.000  C
  C1060    1.0000 0.42556  0.97439  0.94967  Biso   1.000  C
  C1061    1.0000 0.42024  0.93582  0.99595  Biso   1.000  C
  C1062    1.0000 0.55334  0.93999  0.98376  Biso   1.000  C
  C1063    1.0000 0.54638  0.88386  0.00626  Biso   1.000  C
  C1064    1.0000 0.43676  0.85056  0.93876  Biso   1.000  C
  H602     1.0000 0.40349  0.81090  0.94211  Biso   1.000  H
  H603     1.0000 0.49829  0.78429  0.91239  Biso   1.000  H
  C1065    1.0000 0.49254  0.83445  0.92169  Biso   1.000  C
  C1066    1.0000 0.44786  0.95206  0.93396  Biso   1.000  C
  H604     1.0000 0.42029  0.99560  0.93929  Biso   1.000  H
  C1067    1.0000 0.44318  0.91418  0.98049  Biso   1.000  C
  H605     1.0000 0.41090  0.92999  0.01719  Biso   1.000  H
  C1068    1.0000 0.52948  0.93287  0.95960  Biso   1.000  C
  H606     1.0000 0.56441  0.96151  0.98391  Biso   1.000  H
  C1069    1.0000 0.52258  0.87668  0.98140  Biso   1.000  C
  H607     1.0000 0.55239  0.86680  0.02210  Biso   1.000  H
  C1070    1.0000 0.47006  0.85995  0.93215  Biso   1.000  C
  H608     1.0000 0.42070  0.86759  0.94460  Biso   1.000  H
  H609     1.0000 0.51530  0.84030  0.91599  Biso   1.000  H
  C1071    1.0000 0.45652  0.92151  0.94867  Biso   1.000  C
  H610     1.0000 0.45731  0.95789  0.91269  Biso   1.000  H
  H611     1.0000 0.45000  0.89389  0.99170  Biso   1.000  H
  C1072    1.0000 0.51344  0.90115  0.95799  Biso   1.000  C
  H612     1.0000 0.52370  0.94990  0.94359  Biso   1.000  H
  H613     1.0000 0.51250  0.85471  0.98039  Biso   1.000  H
  C1073    1.0000 0.48312  0.89692  0.93351  Biso   1.000  C
  C1074    1.0000 0.49300  0.90573  0.89701  Biso   1.000  C
  C1075    1.0000 0.52655  0.90761  0.88620  Biso   1.000  C
  C1076    1.0000 0.46792  0.90794  0.87262  Biso   1.000  C
  C1077    1.0000 0.53432  0.91176  0.85236  Biso   1.000  C
  H614     1.0000 0.54450  0.90601  0.90221  Biso   1.000  H
  H615     1.0000 0.44470  0.90639  0.87921  Biso   1.000  H
  C1078    1.0000 0.47576  0.91235  0.83884  Biso   1.000  C
  C1079    1.0000 0.50916  0.91385  0.82901  Biso   1.000  C
  H616     1.0000 0.55741  0.91311  0.84550  Biso   1.000  H
  H617     1.0000 0.45810  0.91431  0.82270  Biso   1.000  H
  O20      1.0000 0.52019  0.91683  0.79618  Biso   1.000  O
  C1080    1.0000 0.49516  0.91752  0.77129  Biso   1.000  C
  H618     1.0000 0.50591  0.91970  0.74920  Biso   1.000  H
  H619     1.0000 0.47999  0.93699  0.77509  Biso   1.000  H
  H620     1.0000 0.48190  0.89641  0.77210  Biso   1.000  H
  C1081    1.0000 0.76945  0.58610  0.36061  Biso   1.000  C
  C1082    1.0000 0.77966  0.60517  0.33316  Biso   1.000  C
  H621     1.0000 0.75201  0.56950  0.35830  Biso   1.000  H
  C1083    1.0000 0.78485  0.59134  0.39120  Biso   1.000  C
  C1084    1.0000 0.80530  0.62907  0.33660  Biso   1.000  C
  H622     1.0000 0.76909  0.60181  0.31189  Biso   1.000  H
  H623     1.0000 0.77821  0.57821  0.41011  Biso   1.000  H
  C1085    1.0000 0.81003  0.61591  0.39442  Biso   1.000  C
  C1086    1.0000 0.81652  0.64913  0.30847  Biso   1.000  C
  N41      1.0000 0.82047  0.63490  0.36724  Biso   1.000  N
  C1087    1.0000 0.82584  0.62289  0.42597  Biso   1.000  C
  C1088    1.0000 0.82528  0.66640  0.28532  Biso   1.000  C
  H624     1.0000 0.83770  0.65171  0.36961  Biso   1.000  H
  C1089    1.0000 0.83964  0.62974  0.45196  Biso   1.000  C
  C1090    1.0000 0.83416  0.68847  0.25822  Biso   1.000  C
  C1091    1.0000 0.85578  0.63768  0.48157  Biso   1.000  C
  C1092    1.0000 0.81001  0.69666  0.23376  Biso   1.000  C
  C1093    1.0000 0.86614  0.70362  0.25626  Biso   1.000  C
  C1094    1.0000 0.86963  0.64427  0.50754  Biso   1.000  C
  C1095    1.0000 0.81713  0.72052  0.20960  Biso   1.000  C
  H625     1.0000 0.78849  0.68559  0.23391  Biso   1.000  H
  H626     1.0000 0.88320  0.69761  0.27210  Biso   1.000  H
  C1096    1.0000 0.87332  0.72742  0.23140  Biso   1.000  C
  C1097    1.0000 0.88554  0.65321  0.53856  Biso   1.000  C
  C1098    1.0000 0.84885  0.73656  0.20799  Biso   1.000  C
  H627     1.0000 0.80010  0.72630  0.19359  Biso   1.000  H
  H628     1.0000 0.89529  0.73750  0.23039  Biso   1.000  H
  C1099    1.0000 0.88467  0.63111  0.56624  Biso   1.000  C
  N42      1.0000 0.90079  0.68432  0.54065  Biso   1.000  N
  C1100    1.0000 0.85308  0.76688  0.18351  Biso   1.000  C
  C1101    1.0000 0.89916  0.64117  0.59590  Biso   1.000  C
  H629     1.0000 0.87421  0.60939  0.56440  Biso   1.000  H
  C1102    1.0000 0.91487  0.69417  0.57041  Biso   1.000  C
  H630     1.0000 0.90160  0.69891  0.52159  Biso   1.000  H
  C1103    1.0000 0.84427  0.75700  0.14701  Biso   1.000  C
  C1104    1.0000 0.82849  0.79348  0.19867  Biso   1.000  C
  C1105    1.0000 0.89005  0.77994  0.18215  Biso   1.000  C
  C1106    1.0000 0.91446  0.67271  0.59839  Biso   1.000  C
  H631     1.0000 0.89870  0.62640  0.61481  Biso   1.000  H
  C1107    1.0000 0.92859  0.72793  0.57255  Biso   1.000  C
  C1108    1.0000 0.84239  0.72345  0.13620  Biso   1.000  C
  C1109    1.0000 0.84206  0.78208  0.12262  Biso   1.000  C
  C1110    1.0000 0.79794  0.80214  0.18396  Biso   1.000  C
  C1111    1.0000 0.83582  0.80682  0.23049  Biso   1.000  C
  C1112    1.0000 0.89944  0.81324  0.18876  Biso   1.000  C
  C1113    1.0000 0.91555  0.75746  0.17169  Biso   1.000  C
  H632     1.0000 0.92459  0.67971  0.61890  Biso   1.000  H
  C1114    1.0000 0.93867  0.75662  0.57305  Biso   1.000  C
  C1115    1.0000 0.83824  0.71568  0.10236  Biso   1.000  C
  H633     1.0000 0.84399  0.70550  0.15221  Biso   1.000  H
  H634     1.0000 0.84361  0.80530  0.12921  Biso   1.000  H
  C1116    1.0000 0.83765  0.77424  0.08884  Biso   1.000  C
  H635     1.0000 0.79211  0.79269  0.16269  Biso   1.000  H
  C1117    1.0000 0.77561  0.82444  0.19967  Biso   1.000  C
  C1118    1.0000 0.81418  0.82976  0.24595  Biso   1.000  C
  H636     1.0000 0.85611  0.80000  0.24170  Biso   1.000  H
  H637     1.0000 0.88241  0.82930  0.19460  Biso   1.000  H
  C1119    1.0000 0.93320  0.82363  0.18700  Biso   1.000  C
  C1120    1.0000 0.94885  0.76754  0.16958  Biso   1.000  C
  H638     1.0000 0.90970  0.73470  0.16599  Biso   1.000  H
  C1121    1.0000 0.94934  0.79160  0.57222  Biso   1.000  C
  C1122    1.0000 0.83615  0.74084  0.07901  Biso   1.000  C
  H639     1.0000 0.83689  0.69259  0.09550  Biso   1.000  H
  H640     1.0000 0.83569  0.79190  0.07270  Biso   1.000  H
  H641     1.0000 0.75440  0.82971  0.18929  Biso   1.000  H
  C1123    1.0000 0.78404  0.83913  0.23049  Biso   1.000  C
  H642     1.0000 0.82001  0.83910  0.26719  Biso   1.000  H
  H643     1.0000 0.93910  0.84651  0.19211  Biso   1.000  H
  C1124    1.0000 0.95840  0.80066  0.17778  Biso   1.000  C
  H644     1.0000 0.96571  0.75171  0.16239  Biso   1.000  H
  C1125    1.0000 0.92637  0.81680  0.56300  Biso   1.000  C
  C1126    1.0000 0.98246  0.80115  0.58042  Biso   1.000  C
  O21      1.0000 0.83317  0.72981  0.04618  Biso   1.000  O
  C1127    1.0000 0.76222  0.86387  0.24578  Biso   1.000  C
  C1128    1.0000 0.99338  0.81133  0.17695  Biso   1.000  C
  C1129    1.0000 0.93676  0.85056  0.56124  Biso   1.000  C
  H645     1.0000 0.90349  0.81090  0.55789  Biso   1.000  H
  H646     1.0000 0.99829  0.78429  0.58761  Biso   1.000  H
  C1130    1.0000 0.99254  0.83445  0.57831  Biso   1.000  C
  C1131    1.0000 0.83248  0.75484  0.02129  Biso   1.000  C
  C1132    1.0000 0.74465  0.88513  0.25820  Biso   1.000  C
  C1133    1.0000 0.02207  0.82141  0.17745  Biso   1.000  C
  C1134    1.0000 0.97006  0.85995  0.56785  Biso   1.000  C
  H647     1.0000 0.92070  0.86759  0.55540  Biso   1.000  H
  H648     1.0000 0.01530  0.84030  0.58401  Biso   1.000  H
  H649     1.0000 0.81301  0.77001  0.02509  Biso   1.000  H
  H650     1.0000 0.85359  0.76810  0.02210  Biso   1.000  H
  H651     1.0000 0.83030  0.74409  0.99920  Biso   1.000  H
  C1135    1.0000 0.72416  0.91207  0.27132  Biso   1.000  C
  C1136    1.0000 0.05583  0.83513  0.17959  Biso   1.000  C
  C1137    1.0000 0.98312  0.89692  0.56649  Biso   1.000  C
  C1138    1.0000 0.69277  0.92014  0.25681  Biso   1.000  C
  C1139    1.0000 0.73651  0.93096  0.29804  Biso   1.000  C
  C1140    1.0000 0.07729  0.83554  0.15161  Biso   1.000  C
  N43      1.0000 0.06568  0.84921  0.20935  Biso   1.000  N
  C1141    1.0000 0.99300  0.90573  0.60299  Biso   1.000  C
  C1142    1.0000 0.95652  0.92151  0.55133  Biso   1.000  C
  C1143    1.0000 0.01344  0.90115  0.54201  Biso   1.000  C
  H652     1.0000 0.68450  0.90731  0.23831  Biso   1.000  H
  C1144    1.0000 0.67401  0.94656  0.26941  Biso   1.000  C
  C1145    1.0000 0.71759  0.95792  0.30980  Biso   1.000  C
  H653     1.0000 0.75769  0.92541  0.30809  Biso   1.000  H
  H654     1.0000 0.07029  0.82541  0.13110  Biso   1.000  H
  C1146    1.0000 0.10883  0.85084  0.15410  Biso   1.000  C
  C1147    1.0000 0.09679  0.86446  0.21144  Biso   1.000  C
  H655     1.0000 0.05109  0.84840  0.22841  Biso   1.000  H
  C1148    1.0000 0.96792  0.90794  0.62738  Biso   1.000  C
  C1149    1.0000 0.02655  0.90761  0.61380  Biso   1.000  C
  C1150    1.0000 0.94786  0.95206  0.56604  Biso   1.000  C
  C1151    1.0000 0.94318  0.91418  0.51951  Biso   1.000  C
  C1152    1.0000 0.02948  0.93287  0.54040  Biso   1.000  C
  C1153    1.0000 0.02258  0.87668  0.51860  Biso   1.000  C
  H656     1.0000 0.65239  0.95171  0.25990  Biso   1.000  H
  C1154    1.0000 0.68630  0.96581  0.29585  Biso   1.000  C
  C1155    1.0000 0.73129  0.97676  0.33776  Biso   1.000  C
  H657     1.0000 0.12360  0.85130  0.13519  Biso   1.000  H
  C1156    1.0000 0.11889  0.86533  0.18376  Biso   1.000  C
  C1157    1.0000 0.10573  0.88037  0.24246  Biso   1.000  C
  H658     1.0000 0.94470  0.90639  0.62079  Biso   1.000  H
  C1158    1.0000 0.97576  0.91235  0.66116  Biso   1.000  C
  C1159    1.0000 0.03432  0.91176  0.64764  Biso   1.000  C
  H659     1.0000 0.04450  0.90601  0.59779  Biso   1.000  H
  H660     1.0000 0.95731  0.95789  0.58731  Biso   1.000  H
  C1160    1.0000 0.92556  0.97439  0.55033  Biso   1.000  C
  C1161    1.0000 0.92024  0.93582  0.50405  Biso   1.000  C
  H661     1.0000 0.95000  0.89389  0.50830  Biso   1.000  H
  H662     1.0000 0.02370  0.94990  0.55641  Biso   1.000  H
  C1162    1.0000 0.05334  0.93999  0.51624  Biso   1.000  C
  C1163    1.0000 0.04638  0.88386  0.49374  Biso   1.000  C
  H663     1.0000 0.01250  0.85471  0.51961  Biso   1.000  H
  H664     1.0000 0.67340  0.98429  0.30440  Biso   1.000  H
  C1164    1.0000 0.74417  0.99050  0.36131  Biso   1.000  C
  H665     1.0000 0.14061  0.87579  0.18560  Biso   1.000  H
  C1165    1.0000 0.11232  0.89422  0.26843  Biso   1.000  C
  H666     1.0000 0.95810  0.91431  0.67730  Biso   1.000  H
  C1166    1.0000 0.00916  0.91385  0.67099  Biso   1.000  C
  H667     1.0000 0.05741  0.91311  0.65450  Biso   1.000  H
  H668     1.0000 0.92029  0.99560  0.56071  Biso   1.000  H
  C1167    1.0000 0.91087  0.96596  0.51951  Biso   1.000  C
  H669     1.0000 0.91090  0.92999  0.48281  Biso   1.000  H
  H670     1.0000 0.06441  0.96151  0.51609  Biso   1.000  H
  C1168    1.0000 0.06153  0.91584  0.49178  Biso   1.000  C
  H671     1.0000 0.05239  0.86680  0.47790  Biso   1.000  H
  C1169    1.0000 0.75950  0.00583  0.38869  Biso   1.000  C
  C1170    1.0000 0.12026  0.91036  0.29804  Biso   1.000  C
  O22      1.0000 0.02019  0.91683  0.70382  Biso   1.000  O
  C1171    1.0000 0.88613  0.98778  0.50422  Biso   1.000  C
  C1172    1.0000 0.08360  0.92472  0.46468  Biso   1.000  C
  C1173    1.0000 0.77324  0.01871  0.41224  Biso   1.000  C
  C1174    1.0000 0.12711  0.92416  0.32403  Biso   1.000  C
  C1175    1.0000 0.99516  0.91752  0.72871  Biso   1.000  C
  C1176    1.0000 0.86487  0.00535  0.49180  Biso   1.000  C
  C1177    1.0000 0.10087  0.93348  0.44153  Biso   1.000  C
  C1178    1.0000 0.79208  0.03241  0.44020  Biso   1.000  C
  C1179    1.0000 0.13409  0.93997  0.35558  Biso   1.000  C
  H672     1.0000 0.97999  0.93699  0.72491  Biso   1.000  H
  H673     1.0000 0.98190  0.89641  0.72790  Biso   1.000  H
  H674     1.0000 0.00591  0.91970  0.75080  Biso   1.000  H
  C1180    1.0000 0.83793  0.02584  0.47868  Biso   1.000  C
  C1181    1.0000 0.12093  0.94470  0.41340  Biso   1.000  C
  C1182    1.0000 0.78419  0.06370  0.45415  Biso   1.000  C
  C1183    1.0000 0.81904  0.01349  0.45196  Biso   1.000  C
  C1184    1.0000 0.15866  0.96515  0.35880  Biso   1.000  C
  N44      1.0000 0.11510  0.92953  0.38276  Biso   1.000  N
  C1185    1.0000 0.82986  0.05723  0.49319  Biso   1.000  C
  C1186    1.0000 0.14483  0.97034  0.41684  Biso   1.000  C
  C1187    1.0000 0.80344  0.07599  0.48059  Biso   1.000  C
  H675     1.0000 0.76571  0.07660  0.44560  Biso   1.000  H
  H676     1.0000 0.82459  0.99231  0.44191  Biso   1.000  H
  C1188    1.0000 0.16390  0.98055  0.38939  Biso   1.000  C
  H677     1.0000 0.17179  0.97179  0.33989  Biso   1.000  H
  H678     1.0000 0.09829  0.91230  0.38039  Biso   1.000  H
  H679     1.0000 0.84269  0.06550  0.51169  Biso   1.000  H
  H680     1.0000 0.14819  0.98091  0.43811  Biso   1.000  H
  H681     1.0000 0.79829  0.09761  0.49010  Biso   1.000  H
  H682     1.0000 0.18050  0.99799  0.39170  Biso   1.000  H
  C1189    1.0000 0.23055  0.41390  0.63939  Biso   1.000  C
  C1190    1.0000 0.21515  0.40866  0.60880  Biso   1.000  C
  C1191    1.0000 0.22034  0.39483  0.66684  Biso   1.000  C
  H683     1.0000 0.24799  0.43050  0.64170  Biso   1.000  H
  C1192    1.0000 0.18997  0.38409  0.60558  Biso   1.000  C
  H684     1.0000 0.22179  0.42179  0.58989  Biso   1.000  H
  C1193    1.0000 0.19470  0.37093  0.66340  Biso   1.000  C
  H685     1.0000 0.23091  0.39819  0.68811  Biso   1.000  H
  C1194    1.0000 0.17416  0.37711  0.57403  Biso   1.000  C
  N45      1.0000 0.17953  0.36510  0.63276  Biso   1.000  N
  C1195    1.0000 0.18348  0.35087  0.69153  Biso   1.000  C
  C1196    1.0000 0.16036  0.37026  0.54804  Biso   1.000  C
  H686     1.0000 0.16230  0.34829  0.63039  Biso   1.000  H
  C1197    1.0000 0.17472  0.33360  0.71468  Biso   1.000  C
  C1198    1.0000 0.14422  0.36232  0.51843  Biso   1.000  C
  C1199    1.0000 0.16584  0.31153  0.74178  Biso   1.000  C
  C1200    1.0000 0.13037  0.35573  0.49246  Biso   1.000  C
  C1201    1.0000 0.18999  0.30334  0.76624  Biso   1.000  C
  C1202    1.0000 0.13386  0.29638  0.74374  Biso   1.000  C
  C1203    1.0000 0.11446  0.34679  0.46144  Biso   1.000  C
  C1204    1.0000 0.18287  0.27948  0.79040  Biso   1.000  C
  H687     1.0000 0.21151  0.31441  0.76609  Biso   1.000  H
  H688     1.0000 0.11680  0.30239  0.72790  Biso   1.000  H
  C1205    1.0000 0.12668  0.27258  0.76860  Biso   1.000  C
  N46      1.0000 0.09921  0.31568  0.45935  Biso   1.000  N
  C1206    1.0000 0.11533  0.36889  0.43376  Biso   1.000  C
  C1207    1.0000 0.15115  0.26344  0.79201  Biso   1.000  C
  H689     1.0000 0.19990  0.27370  0.80641  Biso   1.000  H
  H690     1.0000 0.10471  0.26250  0.76961  Biso   1.000  H
  C1208    1.0000 0.08513  0.30583  0.42959  Biso   1.000  C
  H691     1.0000 0.09840  0.30109  0.47841  Biso   1.000  H
  C1209    1.0000 0.10084  0.35883  0.40410  Biso   1.000  C
  H692     1.0000 0.12579  0.39061  0.43560  Biso   1.000  H
  C1210    1.0000 0.14692  0.23312  0.81649  Biso   1.000  C
  C1211    1.0000 0.08554  0.32729  0.40161  Biso   1.000  C
  C1212    1.0000 0.07141  0.27207  0.42745  Biso   1.000  C
  H693     1.0000 0.10130  0.37360  0.38519  Biso   1.000  H
  C1213    1.0000 0.15573  0.24300  0.85299  Biso   1.000  C
  C1214    1.0000 0.17151  0.20652  0.80133  Biso   1.000  C
  C1215    1.0000 0.10995  0.22006  0.81785  Biso   1.000  C
  H694     1.0000 0.07541  0.32029  0.38110  Biso   1.000  H
  C1216    1.0000 0.06133  0.24338  0.42695  Biso   1.000  C
  C1217    1.0000 0.15761  0.27655  0.86380  Biso   1.000  C
  C1218    1.0000 0.15794  0.21792  0.87738  Biso   1.000  C
  C1219    1.0000 0.20206  0.19786  0.81604  Biso   1.000  C
  C1220    1.0000 0.16418  0.19318  0.76951  Biso   1.000  C
  C1221    1.0000 0.10056  0.18676  0.81124  Biso   1.000  C
  C1222    1.0000 0.08445  0.24254  0.82831  Biso   1.000  C
  C1223    1.0000 0.05066  0.20840  0.42778  Biso   1.000  C
  C1224    1.0000 0.16176  0.28432  0.89764  Biso   1.000  C
  H695     1.0000 0.15601  0.29450  0.84779  Biso   1.000  H
  H696     1.0000 0.15639  0.19470  0.87079  Biso   1.000  H
  C1225    1.0000 0.16235  0.22576  0.91116  Biso   1.000  C
  H697     1.0000 0.20789  0.20731  0.83731  Biso   1.000  H
  C1226    1.0000 0.22439  0.17556  0.80033  Biso   1.000  C
  C1227    1.0000 0.18582  0.17024  0.75405  Biso   1.000  C
  H698     1.0000 0.14389  0.20000  0.75830  Biso   1.000  H
  H699     1.0000 0.11759  0.17070  0.80540  Biso   1.000  H
  C1228    1.0000 0.06680  0.17637  0.81300  Biso   1.000  C
  C1229    1.0000 0.05115  0.23246  0.83042  Biso   1.000  C
  H700     1.0000 0.09030  0.26530  0.83401  Biso   1.000  H
  C1230    1.0000 0.07363  0.18320  0.43700  Biso   1.000  C
  C1231    1.0000 0.01754  0.19885  0.41958  Biso   1.000  C
  C1232    1.0000 0.16385  0.25916  0.92099  Biso   1.000  C
  H701     1.0000 0.16311  0.30741  0.90450  Biso   1.000  H
  H702     1.0000 0.16431  0.20810  0.92730  Biso   1.000  H
  H703     1.0000 0.24560  0.17029  0.81071  Biso   1.000  H
  C1233    1.0000 0.21596  0.16087  0.76951  Biso   1.000  C
  H704     1.0000 0.17999  0.16090  0.73281  Biso   1.000  H
  H705     1.0000 0.06090  0.15349  0.80789  Biso   1.000  H
  C1234    1.0000 0.04160  0.19934  0.82222  Biso   1.000  C
  H706     1.0000 0.03429  0.24829  0.83761  Biso   1.000  H
  C1235    1.0000 0.06324  0.14944  0.43876  Biso   1.000  C
  H707     1.0000 0.09651  0.18910  0.44211  Biso   1.000  H
  H708     1.0000 0.00171  0.21571  0.41239  Biso   1.000  H
  C1236    1.0000 0.00746  0.16555  0.42169  Biso   1.000  C
  O23      1.0000 0.16683  0.27019  0.95382  Biso   1.000  O
  C1237    1.0000 0.23778  0.13613  0.75422  Biso   1.000  C
  C1238    1.0000 0.00662  0.18867  0.82305  Biso   1.000  C
  C1239    1.0000 0.02994  0.14005  0.43215  Biso   1.000  C
  H709     1.0000 0.07930  0.13241  0.44460  Biso   1.000  H
  H710     1.0000 0.98470  0.15970  0.41599  Biso   1.000  H
  C1240    1.0000 0.16752  0.24516  0.97871  Biso   1.000  C
  C1241    1.0000 0.25535  0.11487  0.74180  Biso   1.000  C
  C1242    1.0000 0.97793  0.17859  0.82255  Biso   1.000  C
  C1243    1.0000 0.01688  0.10308  0.43351  Biso   1.000  C
  H711     1.0000 0.18699  0.22999  0.97491  Biso   1.000  H
  H712     1.0000 0.14641  0.23190  0.97790  Biso   1.000  H
  H713     1.0000 0.16970  0.25591  0.00080  Biso   1.000  H
  C1244    1.0000 0.27584  0.08793  0.72868  Biso   1.000  C
  C1245    1.0000 0.94417  0.16487  0.82041  Biso   1.000  C
  C1246    1.0000 0.00700  0.09427  0.39701  Biso   1.000  C
  C1247    1.0000 0.04348  0.07849  0.44867  Biso   1.000  C
  C1248    1.0000 0.98656  0.09885  0.45799  Biso   1.000  C
  C1249    1.0000 0.26349  0.06904  0.70196  Biso   1.000  C
  C1250    1.0000 0.30723  0.07986  0.74319  Biso   1.000  C
  N47      1.0000 0.93432  0.15079  0.79065  Biso   1.000  N
  C1251    1.0000 0.92271  0.16446  0.84839  Biso   1.000  C
  C1252    1.0000 0.03208  0.09206  0.37262  Biso   1.000  C
  C1253    1.0000 0.97345  0.09239  0.38620  Biso   1.000  C
  C1254    1.0000 0.05214  0.04794  0.43396  Biso   1.000  C
  C1255    1.0000 0.05682  0.08582  0.48049  Biso   1.000  C
  C1256    1.0000 0.97052  0.06713  0.45960  Biso   1.000  C
  C1257    1.0000 0.97742  0.12332  0.48140  Biso   1.000  C
  C1258    1.0000 0.28241  0.04208  0.69020  Biso   1.000  C
  H714     1.0000 0.24231  0.07459  0.69191  Biso   1.000  H
  C1259    1.0000 0.32599  0.05344  0.73059  Biso   1.000  C
  H715     1.0000 0.31550  0.09269  0.76169  Biso   1.000  H
  C1260    1.0000 0.90321  0.13554  0.78856  Biso   1.000  C
  H716     1.0000 0.94891  0.15160  0.77159  Biso   1.000  H
  C1261    1.0000 0.89117  0.14916  0.84590  Biso   1.000  C
  H717     1.0000 0.92971  0.17459  0.86890  Biso   1.000  H
  H718     1.0000 0.05530  0.09361  0.37921  Biso   1.000  H
  C1262    1.0000 0.02424  0.08765  0.33884  Biso   1.000  C
  C1263    1.0000 0.96568  0.08824  0.35236  Biso   1.000  C
  H719     1.0000 0.95550  0.09399  0.40221  Biso   1.000  H
  H720     1.0000 0.04269  0.04211  0.41269  Biso   1.000  H
  C1264    1.0000 0.07444  0.02561  0.44967  Biso   1.000  C
  C1265    1.0000 0.07976  0.06418  0.49595  Biso   1.000  C
  H721     1.0000 0.05000  0.10611  0.49170  Biso   1.000  H
  H722     1.0000 0.97630  0.05010  0.44359  Biso   1.000  H
  C1266    1.0000 0.94666  0.06001  0.48376  Biso   1.000  C
  C1267    1.0000 0.95362  0.11614  0.50626  Biso   1.000  C
  H723     1.0000 0.98750  0.14529  0.48039  Biso   1.000  H
  C1268    1.0000 0.26871  0.02324  0.66224  Biso   1.000  C
  C1269    1.0000 0.31370  0.03419  0.70415  Biso   1.000  C
  H724     1.0000 0.34761  0.04829  0.74010  Biso   1.000  H
  C1270    1.0000 0.89427  0.11963  0.75754  Biso   1.000  C
  C1271    1.0000 0.88111  0.13467  0.81624  Biso   1.000  C
  H725     1.0000 0.87640  0.14870  0.86481  Biso   1.000  H
  H726     1.0000 0.04190  0.08569  0.32270  Biso   1.000  H
  C1272    1.0000 0.99084  0.08615  0.32901  Biso   1.000  C
  H727     1.0000 0.94259  0.08689  0.34550  Biso   1.000  H
  H728     1.0000 0.07971  0.00440  0.43929  Biso   1.000  H
  C1273    1.0000 0.08913  0.03404  0.48049  Biso   1.000  C
  H729     1.0000 0.08910  0.07001  0.51719  Biso   1.000  H
  H730     1.0000 0.93559  0.03849  0.48391  Biso   1.000  H
  C1274    1.0000 0.93847  0.08416  0.50822  Biso   1.000  C
  H731     1.0000 0.94761  0.13320  0.52210  Biso   1.000  H
  C1275    1.0000 0.25583  0.00950  0.63869  Biso   1.000  C
  H732     1.0000 0.32660  0.01571  0.69560  Biso   1.000  H
  C1276    1.0000 0.88768  0.10578  0.73157  Biso   1.000  C
  H733     1.0000 0.85939  0.12421  0.81440  Biso   1.000  H
  O24      1.0000 0.97981  0.08317  0.29618  Biso   1.000  O
  C1277    1.0000 0.11387  0.01222  0.49578  Biso   1.000  C
  C1278    1.0000 0.91640  0.07528  0.53532  Biso   1.000  C
  C1279    1.0000 0.24050  0.99417  0.61131  Biso   1.000  C
  C1280    1.0000 0.87974  0.08964  0.70196  Biso   1.000  C
  C1281    1.0000 0.00484  0.08248  0.27129  Biso   1.000  C
  C1282    1.0000 0.13513  0.99465  0.50820  Biso   1.000  C
  C1283    1.0000 0.89913  0.06652  0.55847  Biso   1.000  C
  C1284    1.0000 0.22676  0.98129  0.58776  Biso   1.000  C
  C1285    1.0000 0.87289  0.07584  0.67597  Biso   1.000  C
  H734     1.0000 0.02001  0.06301  0.27509  Biso   1.000  H
  H735     1.0000 0.01810  0.10359  0.27210  Biso   1.000  H
  H736     1.0000 0.99409  0.08030  0.24920  Biso   1.000  H
  C1286    1.0000 0.16207  0.97416  0.52132  Biso   1.000  C
  C1287    1.0000 0.87907  0.05530  0.58660  Biso   1.000  C
  C1288    1.0000 0.20792  0.96759  0.55980  Biso   1.000  C
  C1289    1.0000 0.86591  0.06003  0.64442  Biso   1.000  C
  C1290    1.0000 0.17014  0.94277  0.50681  Biso   1.000  C
  C1291    1.0000 0.18096  0.98651  0.54804  Biso   1.000  C
  C1292    1.0000 0.85517  0.02966  0.58316  Biso   1.000  C
  N48      1.0000 0.88490  0.07047  0.61724  Biso   1.000  N
  C1293    1.0000 0.21581  0.93630  0.54585  Biso   1.000  C
  C1294    1.0000 0.84134  0.03485  0.64120  Biso   1.000  C
  H737     1.0000 0.15731  0.93450  0.48831  Biso   1.000  H
  C1295    1.0000 0.19656  0.92401  0.51941  Biso   1.000  C
  H738     1.0000 0.17541  0.00769  0.55809  Biso   1.000  H
  H739     1.0000 0.85181  0.01909  0.56189  Biso   1.000  H
  C1296    1.0000 0.83610  0.01945  0.61061  Biso   1.000  C
  H740     1.0000 0.90171  0.08770  0.61961  Biso   1.000  H
  H741     1.0000 0.23429  0.92340  0.55440  Biso   1.000  H
  H742     1.0000 0.82821  0.02821  0.66011  Biso   1.000  H
  H743     1.0000 0.20171  0.90239  0.50990  Biso   1.000  H
  H744     1.0000 0.81950  0.00201  0.60830  Biso   1.000  H
  C1297    1.0000 0.67401  0.55344  0.76941  Biso   1.000  C
  C1298    1.0000 0.69277  0.57986  0.75681  Biso   1.000  C
  H745     1.0000 0.65239  0.54829  0.75990  Biso   1.000  H
  C1299    1.0000 0.68630  0.53419  0.79585  Biso   1.000  C
  C1300    1.0000 0.72416  0.58793  0.77132  Biso   1.000  C
  H746     1.0000 0.68450  0.59269  0.73831  Biso   1.000  H
  H747     1.0000 0.67340  0.51571  0.80440  Biso   1.000  H
  C1301    1.0000 0.71759  0.54208  0.80980  Biso   1.000  C
  C1302    1.0000 0.74465  0.61487  0.75820  Biso   1.000  C
  C1303    1.0000 0.73651  0.56904  0.79804  Biso   1.000  C
  C1304    1.0000 0.73129  0.52324  0.83776  Biso   1.000  C
  C1305    1.0000 0.76222  0.63613  0.74578  Biso   1.000  C
  H748     1.0000 0.75769  0.57459  0.80809  Biso   1.000  H
  C1306    1.0000 0.74417  0.50950  0.86131  Biso   1.000  C
  C1307    1.0000 0.78404  0.66087  0.73049  Biso   1.000  C
  C1308    1.0000 0.75950  0.49417  0.88869  Biso   1.000  C
  C1309    1.0000 0.77561  0.67556  0.69967  Biso   1.000  C
  C1310    1.0000 0.81418  0.67024  0.74595  Biso   1.000  C
  C1311    1.0000 0.77324  0.48129  0.91224  Biso   1.000  C
  C1312    1.0000 0.79794  0.69786  0.68396  Biso   1.000  C
  H749     1.0000 0.75440  0.67029  0.68929  Biso   1.000  H
  H750     1.0000 0.82001  0.66090  0.76719  Biso   1.000  H
  C1313    1.0000 0.83582  0.69318  0.73049  Biso   1.000  C
  C1314    1.0000 0.79208  0.46759  0.94020  Biso   1.000  C
  C1315    1.0000 0.82849  0.70652  0.69867  Biso   1.000  C
  H751     1.0000 0.79211  0.70731  0.66269  Biso   1.000  H
  H752     1.0000 0.85611  0.70000  0.74170  Biso   1.000  H
  C1316    1.0000 0.78419  0.43630  0.95415  Biso   1.000  C
  C1317    1.0000 0.81904  0.48651  0.95196  Biso   1.000  C
  C1318    1.0000 0.85308  0.73312  0.68351  Biso   1.000  C
  C1319    1.0000 0.80344  0.42401  0.98059  Biso   1.000  C
  H753     1.0000 0.76571  0.42340  0.94560  Biso   1.000  H
  C1320    1.0000 0.83793  0.47416  0.97868  Biso   1.000  C
  H754     1.0000 0.82459  0.50769  0.94191  Biso   1.000  H
  C1321    1.0000 0.84427  0.74300  0.64701  Biso   1.000  C
  C1322    1.0000 0.84885  0.76344  0.70799  Biso   1.000  C
  C1323    1.0000 0.89005  0.72006  0.68215  Biso   1.000  C
  C1324    1.0000 0.82986  0.44277  0.99319  Biso   1.000  C
  H755     1.0000 0.79829  0.40239  0.99010  Biso   1.000  H
  C1325    1.0000 0.86487  0.49465  0.99180  Biso   1.000  C
  C1326    1.0000 0.84239  0.77655  0.63620  Biso   1.000  C
  C1327    1.0000 0.84206  0.71792  0.62262  Biso   1.000  C
  C1328    1.0000 0.81713  0.77948  0.70960  Biso   1.000  C
  C1329    1.0000 0.87332  0.77258  0.73140  Biso   1.000  C
  C1330    1.0000 0.89944  0.68676  0.68876  Biso   1.000  C
  C1331    1.0000 0.91555  0.74254  0.67169  Biso   1.000  C
  H756     1.0000 0.84269  0.43450  0.01169  Biso   1.000  H
  C1332    1.0000 0.88613  0.51222  0.00422  Biso   1.000  C
  C1333    1.0000 0.83824  0.78432  0.60236  Biso   1.000  C
  H757     1.0000 0.84399  0.79450  0.65221  Biso   1.000  H
  H758     1.0000 0.84361  0.69470  0.62921  Biso   1.000  H
  C1334    1.0000 0.83765  0.72576  0.58884  Biso   1.000  C
  H759     1.0000 0.80010  0.77370  0.69359  Biso   1.000  H
  C1335    1.0000 0.81001  0.80334  0.73376  Biso   1.000  C
  C1336    1.0000 0.86614  0.79638  0.75626  Biso   1.000  C
  H760     1.0000 0.89529  0.76250  0.73039  Biso   1.000  H
  H761     1.0000 0.88241  0.67070  0.69460  Biso   1.000  H
  C1337    1.0000 0.93320  0.67637  0.68700  Biso   1.000  C
  C1338    1.0000 0.94885  0.73246  0.66958  Biso   1.000  C
  H762     1.0000 0.90970  0.76530  0.66599  Biso   1.000  H
  C1339    1.0000 0.91087  0.53404  0.01951  Biso   1.000  C
  C1340    1.0000 0.83615  0.75916  0.57901  Biso   1.000  C
  H763     1.0000 0.83689  0.80741  0.59550  Biso   1.000  H
  H764     1.0000 0.83569  0.70810  0.57270  Biso   1.000  H
  H765     1.0000 0.78849  0.81441  0.73391  Biso   1.000  H
  C1341    1.0000 0.83416  0.81153  0.75822  Biso   1.000  C
  H766     1.0000 0.88320  0.80239  0.77210  Biso   1.000  H
  H767     1.0000 0.93910  0.65349  0.69211  Biso   1.000  H
  C1342    1.0000 0.95840  0.69934  0.67778  Biso   1.000  C
  H768     1.0000 0.96571  0.74829  0.66239  Biso   1.000  H
  C1343    1.0000 0.92556  0.52561  0.05033  Biso   1.000  C
  C1344    1.0000 0.92024  0.56418  0.00405  Biso   1.000  C
  O25      1.0000 0.83317  0.77019  0.54618  Biso   1.000  O
  C1345    1.0000 0.82528  0.83360  0.78532  Biso   1.000  C
  C1346    1.0000 0.99338  0.68867  0.67695  Biso   1.000  C
  C1347    1.0000 0.94786  0.54794  0.06604  Biso   1.000  C
  H769     1.0000 0.92029  0.50440  0.06071  Biso   1.000  H
  H770     1.0000 0.91090  0.57001  0.98281  Biso   1.000  H
  C1348    1.0000 0.94318  0.58582  0.01951  Biso   1.000  C
  C1349    1.0000 0.83248  0.74516  0.52129  Biso   1.000  C
  C1350    1.0000 0.81652  0.85087  0.80847  Biso   1.000  C
  C1351    1.0000 0.02207  0.67859  0.67745  Biso   1.000  C
  C1352    1.0000 0.95652  0.57849  0.05133  Biso   1.000  C
  H771     1.0000 0.95731  0.54211  0.08731  Biso   1.000  H
  H772     1.0000 0.95000  0.60611  0.00830  Biso   1.000  H
  H773     1.0000 0.83030  0.75591  0.49920  Biso   1.000  H
  H774     1.0000 0.81301  0.72999  0.52509  Biso   1.000  H
  H775     1.0000 0.85359  0.73190  0.52210  Biso   1.000  H
  C1353    1.0000 0.80530  0.87093  0.83660  Biso   1.000  C
  C1354    1.0000 0.05583  0.66487  0.67959  Biso   1.000  C
  C1355    1.0000 0.98312  0.60308  0.06649  Biso   1.000  C
  C1356    1.0000 0.77966  0.89483  0.83316  Biso   1.000  C
  N49      1.0000 0.82047  0.86510  0.86724  Biso   1.000  N
  C1357    1.0000 0.07729  0.66446  0.65161  Biso   1.000  C
  N50      1.0000 0.06568  0.65079  0.70935  Biso   1.000  N
  C1358    1.0000 0.99300  0.59427  0.10299  Biso   1.000  C
  C1359    1.0000 0.97006  0.64005  0.06785  Biso   1.000  C
  C1360    1.0000 0.01344  0.59885  0.04201  Biso   1.000  C
  H776     1.0000 0.76909  0.89819  0.81189  Biso   1.000  H
  C1361    1.0000 0.76945  0.91390  0.86061  Biso   1.000  C
  C1362    1.0000 0.81003  0.88409  0.89442  Biso   1.000  C
  H777     1.0000 0.83770  0.84829  0.86961  Biso   1.000  H
  H778     1.0000 0.07029  0.67459  0.63110  Biso   1.000  H
  C1363    1.0000 0.10883  0.64916  0.65410  Biso   1.000  C
  C1364    1.0000 0.09679  0.63554  0.71144  Biso   1.000  C
  H779     1.0000 0.05109  0.65160  0.72841  Biso   1.000  H
  C1365    1.0000 0.96792  0.59206  0.12738  Biso   1.000  C
  C1366    1.0000 0.02655  0.59239  0.11380  Biso   1.000  C
  C1367    1.0000 0.93676  0.64944  0.06124  Biso   1.000  C
  C1368    1.0000 0.99254  0.66555  0.07831  Biso   1.000  C
  C1369    1.0000 0.02948  0.56713  0.04040  Biso   1.000  C
  C1370    1.0000 0.02258  0.62332  0.01860  Biso   1.000  C
  H780     1.0000 0.75201  0.93050  0.85830  Biso   1.000  H
  C1371    1.0000 0.78485  0.90866  0.89120  Biso   1.000  C
  C1372    1.0000 0.82584  0.87711  0.92597  Biso   1.000  C
  H781     1.0000 0.12360  0.64870  0.63519  Biso   1.000  H
  C1373    1.0000 0.11889  0.63467  0.68376  Biso   1.000  C
  C1374    1.0000 0.10573  0.61963  0.74246  Biso   1.000  C
  H782     1.0000 0.94470  0.59361  0.12079  Biso   1.000  H
  C1375    1.0000 0.97576  0.58765  0.16116  Biso   1.000  C
  C1376    1.0000 0.03432  0.58824  0.14764  Biso   1.000  C
  H783     1.0000 0.04450  0.59399  0.09779  Biso   1.000  H
  H784     1.0000 0.92070  0.63241  0.05540  Biso   1.000  H
  C1377    1.0000 0.92637  0.68320  0.06300  Biso   1.000  C
  C1378    1.0000 0.98246  0.69885  0.08042  Biso   1.000  C
  H785     1.0000 0.01530  0.65970  0.08401  Biso   1.000  H
  H786     1.0000 0.02370  0.55010  0.05641  Biso   1.000  H
  C1379    1.0000 0.05334  0.56001  0.01624  Biso   1.000  C
  C1380    1.0000 0.04638  0.61614  0.99374  Biso   1.000  C
  H787     1.0000 0.01250  0.64529  0.01961  Biso   1.000  H
  H788     1.0000 0.77821  0.92179  0.91011  Biso   1.000  H
  C1381    1.0000 0.83964  0.87026  0.95196  Biso   1.000  C
  H789     1.0000 0.14061  0.62421  0.68560  Biso   1.000  H
  C1382    1.0000 0.11232  0.60578  0.76843  Biso   1.000  C
  H790     1.0000 0.95810  0.58569  0.17730  Biso   1.000  H
  C1383    1.0000 0.00916  0.58615  0.17099  Biso   1.000  C
  H791     1.0000 0.05741  0.58689  0.15450  Biso   1.000  H
  H792     1.0000 0.90349  0.68910  0.05789  Biso   1.000  H
  C1384    1.0000 0.94934  0.70840  0.07222  Biso   1.000  C
  H793     1.0000 0.99829  0.71571  0.08761  Biso   1.000  H
  C1385    1.0000 0.06153  0.58416  0.99178  Biso   1.000  C
  H794     1.0000 0.06441  0.53849  0.01609  Biso   1.000  H
  H795     1.0000 0.05239  0.63320  0.97790  Biso   1.000  H
  C1386    1.0000 0.85578  0.86232  0.98157  Biso   1.000  C
  C1387    1.0000 0.12026  0.58964  0.79804  Biso   1.000  C
  O26      1.0000 0.02019  0.58317  0.20382  Biso   1.000  O
  C1388    1.0000 0.93867  0.74338  0.07305  Biso   1.000  C
  C1389    1.0000 0.08360  0.57528  0.96468  Biso   1.000  C
  C1390    1.0000 0.86963  0.85573  0.00754  Biso   1.000  C
  C1391    1.0000 0.12711  0.57584  0.82403  Biso   1.000  C
  C1392    1.0000 0.99516  0.58248  0.22871  Biso   1.000  C
  C1393    1.0000 0.92859  0.77207  0.07255  Biso   1.000  C
  C1394    1.0000 0.10087  0.56652  0.94153  Biso   1.000  C
  C1395    1.0000 0.88554  0.84679  0.03856  Biso   1.000  C
  C1396    1.0000 0.13409  0.56003  0.85558  Biso   1.000  C
  H796     1.0000 0.97999  0.56301  0.22491  Biso   1.000  H
  H797     1.0000 0.98190  0.60359  0.22790  Biso   1.000  H
  H798     1.0000 0.00591  0.58030  0.25080  Biso   1.000  H
  C1397    1.0000 0.91487  0.80583  0.07041  Biso   1.000  C
  C1398    1.0000 0.12093  0.55530  0.91340  Biso   1.000  C
  C1399    1.0000 0.88467  0.86889  0.06624  Biso   1.000  C
  N51      1.0000 0.90079  0.81568  0.04065  Biso   1.000  N
  C1400    1.0000 0.15866  0.53485  0.85880  Biso   1.000  C
  N52      1.0000 0.11510  0.57047  0.88276  Biso   1.000  N
  C1401    1.0000 0.91446  0.82729  0.09839  Biso   1.000  C
  C1402    1.0000 0.14483  0.52966  0.91684  Biso   1.000  C
  C1403    1.0000 0.89916  0.85883  0.09590  Biso   1.000  C
  H799     1.0000 0.87421  0.89061  0.06440  Biso   1.000  H
  H800     1.0000 0.90160  0.80109  0.02159  Biso   1.000  H
  C1404    1.0000 0.16390  0.51945  0.88939  Biso   1.000  C
  H801     1.0000 0.17179  0.52821  0.83989  Biso   1.000  H
  H802     1.0000 0.09829  0.58770  0.88039  Biso   1.000  H
  H803     1.0000 0.92459  0.82029  0.11890  Biso   1.000  H
  H804     1.0000 0.14819  0.51909  0.93811  Biso   1.000  H
  H805     1.0000 0.89870  0.87360  0.11481  Biso   1.000  H
  H806     1.0000 0.18050  0.50201  0.89170  Biso   1.000  H
  C1405    1.0000 0.32599  0.44656  0.23059  Biso   1.000  C
  C1406    1.0000 0.30723  0.42014  0.24319  Biso   1.000  C
  H807     1.0000 0.34761  0.45171  0.24010  Biso   1.000  H
  C1407    1.0000 0.31370  0.46581  0.20415  Biso   1.000  C
  C1408    1.0000 0.27584  0.41207  0.22868  Biso   1.000  C
  H808     1.0000 0.31550  0.40731  0.26169  Biso   1.000  H
  C1409    1.0000 0.28241  0.45792  0.19020  Biso   1.000  C
  H809     1.0000 0.32660  0.48429  0.19560  Biso   1.000  H
  C1410    1.0000 0.25535  0.38513  0.24180  Biso   1.000  C
  C1411    1.0000 0.26349  0.43096  0.20196  Biso   1.000  C
  C1412    1.0000 0.26871  0.47676  0.16224  Biso   1.000  C
  C1413    1.0000 0.23778  0.36387  0.25422  Biso   1.000  C
  H810     1.0000 0.24231  0.42541  0.19191  Biso   1.000  H
  C1414    1.0000 0.25583  0.49050  0.13869  Biso   1.000  C
  C1415    1.0000 0.21596  0.33913  0.26951  Biso   1.000  C
  C1416    1.0000 0.24050  0.50583  0.11131  Biso   1.000  C
  C1417    1.0000 0.22439  0.32444  0.30033  Biso   1.000  C
  C1418    1.0000 0.18582  0.32976  0.25405  Biso   1.000  C
  C1419    1.0000 0.22676  0.51871  0.08776  Biso   1.000  C
  C1420    1.0000 0.20206  0.30214  0.31604  Biso   1.000  C
  H811     1.0000 0.24560  0.32971  0.31071  Biso   1.000  H
  C1421    1.0000 0.16418  0.30682  0.26951  Biso   1.000  C
  H812     1.0000 0.17999  0.33910  0.23281  Biso   1.000  H
  C1422    1.0000 0.20792  0.53241  0.05980  Biso   1.000  C
  C1423    1.0000 0.17151  0.29348  0.30133  Biso   1.000  C
  H813     1.0000 0.20789  0.29269  0.33731  Biso   1.000  H
  H814     1.0000 0.14389  0.30000  0.25830  Biso   1.000  H
  C1424    1.0000 0.21581  0.56370  0.04585  Biso   1.000  C
  C1425    1.0000 0.18096  0.51349  0.04804  Biso   1.000  C
  C1426    1.0000 0.14692  0.26688  0.31649  Biso   1.000  C
  C1427    1.0000 0.19656  0.57599  0.01941  Biso   1.000  C
  H815     1.0000 0.23429  0.57660  0.05440  Biso   1.000  H
  C1428    1.0000 0.16207  0.52584  0.02132  Biso   1.000  C
  H816     1.0000 0.17541  0.49231  0.05809  Biso   1.000  H
  C1429    1.0000 0.15115  0.23656  0.29201  Biso   1.000  C
  C1430    1.0000 0.15573  0.25700  0.35299  Biso   1.000  C
  C1431    1.0000 0.10995  0.27994  0.31785  Biso   1.000  C
  C1432    1.0000 0.17014  0.55723  0.00681  Biso   1.000  C
  H817     1.0000 0.20171  0.59761  0.00990  Biso   1.000  H
  C1433    1.0000 0.13513  0.50535  0.00820  Biso   1.000  C
  C1434    1.0000 0.18287  0.22052  0.29040  Biso   1.000  C
  C1435    1.0000 0.12668  0.22742  0.26860  Biso   1.000  C
  C1436    1.0000 0.15761  0.22345  0.36380  Biso   1.000  C
  C1437    1.0000 0.15794  0.28208  0.37738  Biso   1.000  C
  C1438    1.0000 0.10056  0.31324  0.31124  Biso   1.000  C
  C1439    1.0000 0.08445  0.25746  0.32831  Biso   1.000  C
  H818     1.0000 0.15731  0.56550  0.98831  Biso   1.000  H
  C1440    1.0000 0.11387  0.48778  0.99578  Biso   1.000  C
  C1441    1.0000 0.18999  0.19666  0.26624  Biso   1.000  C
  H819     1.0000 0.19990  0.22630  0.30641  Biso   1.000  H
  C1442    1.0000 0.13386  0.20362  0.24374  Biso   1.000  C
  H820     1.0000 0.10471  0.23750  0.26961  Biso   1.000  H
  C1443    1.0000 0.16176  0.21568  0.39764  Biso   1.000  C
  H821     1.0000 0.15601  0.20550  0.34779  Biso   1.000  H
  H822     1.0000 0.15639  0.30530  0.37079  Biso   1.000  H
  C1444    1.0000 0.16235  0.27424  0.41116  Biso   1.000  C
  H823     1.0000 0.11759  0.32930  0.30540  Biso   1.000  H
  C1445    1.0000 0.06680  0.32363  0.31300  Biso   1.000  C
  C1446    1.0000 0.05115  0.26754  0.33042  Biso   1.000  C
  H824     1.0000 0.09030  0.23470  0.33401  Biso   1.000  H
  C1447    1.0000 0.08913  0.46596  0.98049  Biso   1.000  C
  H825     1.0000 0.21151  0.18559  0.26609  Biso   1.000  H
  C1448    1.0000 0.16584  0.18847  0.24178  Biso   1.000  C
  H826     1.0000 0.11680  0.19761  0.22790  Biso   1.000  H
  C1449    1.0000 0.16385  0.24084  0.42099  Biso   1.000  C
  H827     1.0000 0.16311  0.19259  0.40450  Biso   1.000  H
  H828     1.0000 0.16431  0.29190  0.42730  Biso   1.000  H
  H829     1.0000 0.06090  0.34651  0.30789  Biso   1.000  H
  C1450    1.0000 0.04160  0.30066  0.32222  Biso   1.000  C
  H830     1.0000 0.03429  0.25171  0.33761  Biso   1.000  H
  C1451    1.0000 0.07444  0.47439  0.94967  Biso   1.000  C
  C1452    1.0000 0.07976  0.43582  0.99595  Biso   1.000  C
  C1453    1.0000 0.17472  0.16640  0.21468  Biso   1.000  C
  O27      1.0000 0.16683  0.22981  0.45382  Biso   1.000  O
  C1454    1.0000 0.00662  0.31133  0.32305  Biso   1.000  C
  C1455    1.0000 0.05214  0.45206  0.93396  Biso   1.000  C
  H831     1.0000 0.07971  0.49560  0.93929  Biso   1.000  H
  C1456    1.0000 0.05682  0.41418  0.98049  Biso   1.000  C
  H832     1.0000 0.08910  0.42999  0.01719  Biso   1.000  H
  C1457    1.0000 0.18348  0.14913  0.19153  Biso   1.000  C
  C1458    1.0000 0.16752  0.25484  0.47871  Biso   1.000  C
  C1459    1.0000 0.97793  0.32141  0.32255  Biso   1.000  C
  C1460    1.0000 0.04348  0.42151  0.94867  Biso   1.000  C
  H833     1.0000 0.04269  0.45789  0.91269  Biso   1.000  H
  H834     1.0000 0.05000  0.39389  0.99170  Biso   1.000  H
  C1461    1.0000 0.19470  0.12907  0.16340  Biso   1.000  C
  H835     1.0000 0.16970  0.24409  0.50080  Biso   1.000  H
  H836     1.0000 0.18699  0.27001  0.47491  Biso   1.000  H
  H837     1.0000 0.14641  0.26810  0.47790  Biso   1.000  H
  C1462    1.0000 0.94417  0.33513  0.32041  Biso   1.000  C
  C1463    1.0000 0.01688  0.39692  0.93351  Biso   1.000  C
  C1464    1.0000 0.22034  0.10517  0.16684  Biso   1.000  C
  N53      1.0000 0.17953  0.13490  0.13276  Biso   1.000  N
  C1465    1.0000 0.92271  0.33554  0.34839  Biso   1.000  C
  N54      1.0000 0.93432  0.34921  0.29065  Biso   1.000  N
  C1466    1.0000 0.02994  0.35995  0.93215  Biso   1.000  C
  C1467    1.0000 0.98656  0.40115  0.95799  Biso   1.000  C
  C1468    1.0000 0.00700  0.40573  0.89701  Biso   1.000  C
  H838     1.0000 0.23091  0.10181  0.18811  Biso   1.000  H
  C1469    1.0000 0.23055  0.08610  0.13939  Biso   1.000  C
  C1470    1.0000 0.18997  0.11591  0.10558  Biso   1.000  C
  H839     1.0000 0.16230  0.15171  0.13039  Biso   1.000  H
  H840     1.0000 0.92971  0.32541  0.36890  Biso   1.000  H
  C1471    1.0000 0.89117  0.35084  0.34590  Biso   1.000  C
  C1472    1.0000 0.90321  0.36446  0.28856  Biso   1.000  C
  H841     1.0000 0.94891  0.34840  0.27159  Biso   1.000  H
  C1473    1.0000 0.06324  0.35056  0.93876  Biso   1.000  C
  C1474    1.0000 0.00746  0.33445  0.92169  Biso   1.000  C
  C1475    1.0000 0.97052  0.43287  0.95960  Biso   1.000  C
  C1476    1.0000 0.97742  0.37668  0.98140  Biso   1.000  C
  C1477    1.0000 0.97345  0.40761  0.88620  Biso   1.000  C
  C1478    1.0000 0.03208  0.40794  0.87262  Biso   1.000  C
  H842     1.0000 0.24799  0.06950  0.14170  Biso   1.000  H
  C1479    1.0000 0.21515  0.09134  0.10880  Biso   1.000  C
  C1480    1.0000 0.17416  0.12289  0.07403  Biso   1.000  C
  H843     1.0000 0.87640  0.35130  0.36481  Biso   1.000  H
  C1481    1.0000 0.88111  0.36533  0.31624  Biso   1.000  C
  C1482    1.0000 0.89427  0.38037  0.25754  Biso   1.000  C
  C1483    1.0000 0.07363  0.31680  0.93700  Biso   1.000  C
  H844     1.0000 0.07930  0.36759  0.94460  Biso   1.000  H
  C1484    1.0000 0.01754  0.30115  0.91958  Biso   1.000  C
  H845     1.0000 0.98470  0.34030  0.91599  Biso   1.000  H
  C1485    1.0000 0.94666  0.43999  0.98376  Biso   1.000  C
  H846     1.0000 0.97630  0.44990  0.94359  Biso   1.000  H
  C1486    1.0000 0.95362  0.38386  0.00626  Biso   1.000  C
  H847     1.0000 0.98750  0.35471  0.98039  Biso   1.000  H
  C1487    1.0000 0.96568  0.41176  0.85236  Biso   1.000  C
  H848     1.0000 0.95550  0.40601  0.90221  Biso   1.000  H
  H849     1.0000 0.05530  0.40639  0.87921  Biso   1.000  H
  C1488    1.0000 0.02424  0.41235  0.83884  Biso   1.000  C
  H850     1.0000 0.22179  0.07821  0.08989  Biso   1.000  H
  C1489    1.0000 0.16036  0.12974  0.04804  Biso   1.000  C
  H851     1.0000 0.85939  0.37579  0.31440  Biso   1.000  H
  C1490    1.0000 0.88768  0.39422  0.23157  Biso   1.000  C
  C1491    1.0000 0.05066  0.29160  0.92778  Biso   1.000  C
  H852     1.0000 0.09651  0.31090  0.94211  Biso   1.000  H
  H853     1.0000 0.00171  0.28429  0.91239  Biso   1.000  H
  C1492    1.0000 0.93847  0.41584  0.00822  Biso   1.000  C
  H854     1.0000 0.93559  0.46151  0.98391  Biso   1.000  H
  H855     1.0000 0.94761  0.36680  0.02210  Biso   1.000  H
  C1493    1.0000 0.99084  0.41385  0.82901  Biso   1.000  C
  H856     1.0000 0.94259  0.41311  0.84550  Biso   1.000  H
  H857     1.0000 0.04190  0.41431  0.82270  Biso   1.000  H
  C1494    1.0000 0.14422  0.13768  0.01843  Biso   1.000  C
  C1495    1.0000 0.87974  0.41036  0.20196  Biso   1.000  C
  C1496    1.0000 0.06133  0.25662  0.92695  Biso   1.000  C
  C1497    1.0000 0.91640  0.42472  0.03532  Biso   1.000  C
  O28      1.0000 0.97981  0.41683  0.79618  Biso   1.000  O
  C1498    1.0000 0.13037  0.14427  0.99246  Biso   1.000  C
  C1499    1.0000 0.87289  0.42416  0.17597  Biso   1.000  C
  C1500    1.0000 0.07141  0.22793  0.92745  Biso   1.000  C
  C1501    1.0000 0.89913  0.43348  0.05847  Biso   1.000  C
  C1502    1.0000 0.00484  0.41752  0.77129  Biso   1.000  C
  C1503    1.0000 0.11446  0.15321  0.96144  Biso   1.000  C
  C1504    1.0000 0.86591  0.43997  0.14442  Biso   1.000  C
  C1505    1.0000 0.08513  0.19417  0.92959  Biso   1.000  C
  C1506    1.0000 0.87907  0.44470  0.08660  Biso   1.000  C
  H858     1.0000 0.99409  0.41970  0.74920  Biso   1.000  H
  H859     1.0000 0.02001  0.43699  0.77509  Biso   1.000  H
  H860     1.0000 0.01810  0.39641  0.77210  Biso   1.000  H
  C1507    1.0000 0.11533  0.13111  0.93376  Biso   1.000  C
  N55      1.0000 0.09921  0.18432  0.95935  Biso   1.000  N
  C1508    1.0000 0.84134  0.46515  0.14120  Biso   1.000  C
  N56      1.0000 0.88490  0.42953  0.11724  Biso   1.000  N
  C1509    1.0000 0.08554  0.17271  0.90161  Biso   1.000  C
  C1510    1.0000 0.85517  0.47034  0.08316  Biso   1.000  C
  C1511    1.0000 0.10084  0.14117  0.90410  Biso   1.000  C
  H861     1.0000 0.12579  0.10939  0.93560  Biso   1.000  H
  H862     1.0000 0.09840  0.19891  0.97841  Biso   1.000  H
  C1512    1.0000 0.83610  0.48055  0.11061  Biso   1.000  C
  H863     1.0000 0.82821  0.47179  0.16011  Biso   1.000  H
  H864     1.0000 0.90171  0.41230  0.11961  Biso   1.000  H
  H865     1.0000 0.07541  0.17971  0.88110  Biso   1.000  H
  H866     1.0000 0.85181  0.48091  0.06189  Biso   1.000  H
  H867     1.0000 0.10130  0.12640  0.88519  Biso   1.000  H
  H868     1.0000 0.81950  0.49799  0.10830  Biso   1.000  H
  O29      1.0000 0.83317  0.27019  0.45382  Biso   1.000  O
  C1513    1.0000 0.83615  0.25916  0.42099  Biso   1.000  C
  C1514    1.0000 0.83248  0.24516  0.47871  Biso   1.000  C
  C1515    1.0000 0.83824  0.28432  0.39764  Biso   1.000  C
  C1516    1.0000 0.83765  0.22576  0.41116  Biso   1.000  C
  H869     1.0000 0.83030  0.25591  0.50080  Biso   1.000  H
  H870     1.0000 0.81301  0.22999  0.47491  Biso   1.000  H
  H871     1.0000 0.85359  0.23190  0.47790  Biso   1.000  H
  C1517    1.0000 0.84239  0.27655  0.36380  Biso   1.000  C
  H872     1.0000 0.83689  0.30741  0.40450  Biso   1.000  H
  C1518    1.0000 0.84206  0.21792  0.37738  Biso   1.000  C
  H873     1.0000 0.83569  0.20810  0.42730  Biso   1.000  H
  C1519    1.0000 0.84427  0.24300  0.35299  Biso   1.000  C
  H874     1.0000 0.84399  0.29450  0.34779  Biso   1.000  H
  H875     1.0000 0.84361  0.19470  0.37079  Biso   1.000  H
  C1520    1.0000 0.85308  0.23312  0.31649  Biso   1.000  C
  C1521    1.0000 0.82849  0.20652  0.30133  Biso   1.000  C
  C1522    1.0000 0.84885  0.26344  0.29201  Biso   1.000  C
  C1523    1.0000 0.89005  0.22006  0.31785  Biso   1.000  C
  C1524    1.0000 0.79794  0.19786  0.31604  Biso   1.000  C
  C1525    1.0000 0.83582  0.19318  0.26951  Biso   1.000  C
  C1526    1.0000 0.81713  0.27948  0.29040  Biso   1.000  C
  C1527    1.0000 0.87332  0.27258  0.26860  Biso   1.000  C
  C1528    1.0000 0.89944  0.18676  0.31124  Biso   1.000  C
  C1529    1.0000 0.91555  0.24254  0.32831  Biso   1.000  C
  C1530    1.0000 0.77561  0.17556  0.30033  Biso   1.000  C
  H876     1.0000 0.79211  0.20731  0.33731  Biso   1.000  H
  C1531    1.0000 0.81418  0.17024  0.25405  Biso   1.000  C
  H877     1.0000 0.85611  0.20000  0.25830  Biso   1.000  H
  H878     1.0000 0.80010  0.27370  0.30641  Biso   1.000  H
  C1532    1.0000 0.81001  0.30334  0.26624  Biso   1.000  C
  C1533    1.0000 0.86614  0.29638  0.24374  Biso   1.000  C
  H879     1.0000 0.89529  0.26250  0.26961  Biso   1.000  H
  H880     1.0000 0.88241  0.17070  0.30540  Biso   1.000  H
  C1534    1.0000 0.93320  0.17637  0.31300  Biso   1.000  C
  C1535    1.0000 0.94885  0.23246  0.33042  Biso   1.000  C
  H881     1.0000 0.90970  0.26530  0.33401  Biso   1.000  H
  C1536    1.0000 0.78404  0.16087  0.26951  Biso   1.000  C
  H882     1.0000 0.75440  0.17029  0.31071  Biso   1.000  H
  H883     1.0000 0.82001  0.16090  0.23281  Biso   1.000  H
  H884     1.0000 0.78849  0.31441  0.26609  Biso   1.000  H
  C1537    1.0000 0.83416  0.31153  0.24178  Biso   1.000  C
  H885     1.0000 0.88320  0.30239  0.22790  Biso   1.000  H
  H886     1.0000 0.93910  0.15349  0.30789  Biso   1.000  H
  C1538    1.0000 0.95840  0.19934  0.32222  Biso   1.000  C
  H887     1.0000 0.96571  0.24829  0.33761  Biso   1.000  H
  C1539    1.0000 0.76222  0.13613  0.25422  Biso   1.000  C
  C1540    1.0000 0.82528  0.33360  0.21468  Biso   1.000  C
  C1541    1.0000 0.99338  0.18867  0.32305  Biso   1.000  C
  C1542    1.0000 0.74465  0.11487  0.24180  Biso   1.000  C
  C1543    1.0000 0.81652  0.35087  0.19153  Biso   1.000  C
  C1544    1.0000 0.02207  0.17859  0.32255  Biso   1.000  C
  C1545    1.0000 0.72416  0.08793  0.22868  Biso   1.000  C
  C1546    1.0000 0.80530  0.37093  0.16340  Biso   1.000  C
  C1547    1.0000 0.05583  0.16487  0.32041  Biso   1.000  C
  C1548    1.0000 0.69277  0.07986  0.24319  Biso   1.000  C
  C1549    1.0000 0.73651  0.06904  0.20196  Biso   1.000  C
  C1550    1.0000 0.77966  0.39483  0.16684  Biso   1.000  C
  N57      1.0000 0.82047  0.36510  0.13276  Biso   1.000  N
  C1551    1.0000 0.07729  0.16446  0.34839  Biso   1.000  C
  N58      1.0000 0.06568  0.15079  0.29065  Biso   1.000  N
  C1552    1.0000 0.67401  0.05344  0.23059  Biso   1.000  C
  H888     1.0000 0.68450  0.09269  0.26169  Biso   1.000  H
  C1553    1.0000 0.71759  0.04208  0.19020  Biso   1.000  C
  H889     1.0000 0.75769  0.07459  0.19191  Biso   1.000  H
  H890     1.0000 0.76909  0.39819  0.18811  Biso   1.000  H
  C1554    1.0000 0.76945  0.41390  0.13939  Biso   1.000  C
  C1555    1.0000 0.81003  0.38409  0.10558  Biso   1.000  C
  H891     1.0000 0.83770  0.34829  0.13039  Biso   1.000  H
  H892     1.0000 0.07029  0.17459  0.36890  Biso   1.000  H
  C1556    1.0000 0.10883  0.14916  0.34590  Biso   1.000  C
  C1557    1.0000 0.09679  0.13554  0.28856  Biso   1.000  C
  H893     1.0000 0.05109  0.15160  0.27159  Biso   1.000  H
  H894     1.0000 0.65239  0.04829  0.24010  Biso   1.000  H
  C1558    1.0000 0.68630  0.03419  0.20415  Biso   1.000  C
  C1559    1.0000 0.73129  0.02324  0.16224  Biso   1.000  C
  H895     1.0000 0.75201  0.43050  0.14170  Biso   1.000  H
  C1560    1.0000 0.78485  0.40866  0.10880  Biso   1.000  C
  C1561    1.0000 0.82584  0.37711  0.07403  Biso   1.000  C
  H896     1.0000 0.12360  0.14870  0.36481  Biso   1.000  H
  C1562    1.0000 0.11889  0.13467  0.31624  Biso   1.000  C
  C1563    1.0000 0.10573  0.11963  0.25754  Biso   1.000  C
  H897     1.0000 0.67340  0.01571  0.19560  Biso   1.000  H
  C1564    1.0000 0.74417  0.00950  0.13869  Biso   1.000  C
  H898     1.0000 0.77821  0.42179  0.08989  Biso   1.000  H
  C1565    1.0000 0.83964  0.37026  0.04804  Biso   1.000  C
  H899     1.0000 0.14061  0.12421  0.31440  Biso   1.000  H
  C1566    1.0000 0.11232  0.10578  0.23157  Biso   1.000  C
  C1567    1.0000 0.75950  0.99417  0.11131  Biso   1.000  C
  C1568    1.0000 0.85578  0.36232  0.01843  Biso   1.000  C
  C1569    1.0000 0.12026  0.08964  0.20196  Biso   1.000  C
  C1570    1.0000 0.77324  0.98129  0.08776  Biso   1.000  C
  C1571    1.0000 0.86963  0.35573  0.99246  Biso   1.000  C
  C1572    1.0000 0.12711  0.07584  0.17597  Biso   1.000  C
  C1573    1.0000 0.79208  0.96759  0.05980  Biso   1.000  C
  C1574    1.0000 0.88554  0.34679  0.96144  Biso   1.000  C
  C1575    1.0000 0.13409  0.06003  0.14442  Biso   1.000  C
  C1576    1.0000 0.78419  0.93630  0.04585  Biso   1.000  C
  C1577    1.0000 0.81904  0.98651  0.04804  Biso   1.000  C
  C1578    1.0000 0.88467  0.36889  0.93376  Biso   1.000  C
  N59      1.0000 0.90079  0.31568  0.95935  Biso   1.000  N
  C1579    1.0000 0.15866  0.03485  0.14120  Biso   1.000  C
  N60      1.0000 0.11510  0.07047  0.11724  Biso   1.000  N
  C1580    1.0000 0.80344  0.92401  0.01941  Biso   1.000  C
  H900     1.0000 0.76571  0.92340  0.05440  Biso   1.000  H
  H901     1.0000 0.82459  0.00769  0.05809  Biso   1.000  H
  C1581    1.0000 0.83793  0.97416  0.02132  Biso   1.000  C
  C1582    1.0000 0.89916  0.35883  0.90410  Biso   1.000  C
  H902     1.0000 0.87421  0.39061  0.93560  Biso   1.000  H
  C1583    1.0000 0.91487  0.30583  0.92959  Biso   1.000  C
  H903     1.0000 0.90160  0.30109  0.97841  Biso   1.000  H
  C1584    1.0000 0.16390  0.01945  0.11061  Biso   1.000  C
  H904     1.0000 0.17179  0.02821  0.16011  Biso   1.000  H
  C1585    1.0000 0.12093  0.05530  0.08660  Biso   1.000  C
  H905     1.0000 0.09829  0.08770  0.11961  Biso   1.000  H
  C1586    1.0000 0.82986  0.94277  0.00681  Biso   1.000  C
  H906     1.0000 0.79829  0.90239  0.00990  Biso   1.000  H
  C1587    1.0000 0.86487  0.99465  0.00820  Biso   1.000  C
  C1588    1.0000 0.91446  0.32729  0.90161  Biso   1.000  C
  H907     1.0000 0.89870  0.37360  0.88519  Biso   1.000  H
  C1589    1.0000 0.92859  0.27207  0.92745  Biso   1.000  C
  C1590    1.0000 0.14483  0.02966  0.08316  Biso   1.000  C
  H908     1.0000 0.18050  0.00201  0.10830  Biso   1.000  H
  C1591    1.0000 0.10087  0.06652  0.05847  Biso   1.000  C
  H909     1.0000 0.84269  0.93450  0.98831  Biso   1.000  H
  C1592    1.0000 0.88613  0.01222  0.99578  Biso   1.000  C
  H910     1.0000 0.92459  0.32029  0.88110  Biso   1.000  H
  C1593    1.0000 0.93867  0.24338  0.92695  Biso   1.000  C
  H911     1.0000 0.14819  0.01909  0.06189  Biso   1.000  H
  C1594    1.0000 0.08360  0.07528  0.03532  Biso   1.000  C
  C1595    1.0000 0.91087  0.03404  0.98049  Biso   1.000  C
  C1596    1.0000 0.94934  0.20840  0.92778  Biso   1.000  C
  C1597    1.0000 0.06153  0.08416  0.00822  Biso   1.000  C
  C1598    1.0000 0.92556  0.02561  0.94967  Biso   1.000  C
  C1599    1.0000 0.92024  0.06418  0.99595  Biso   1.000  C
  C1600    1.0000 0.92637  0.18320  0.93700  Biso   1.000  C
  C1601    1.0000 0.98246  0.19885  0.91958  Biso   1.000  C
  C1602    1.0000 0.05334  0.06001  0.98376  Biso   1.000  C
  C1603    1.0000 0.04638  0.11614  0.00626  Biso   1.000  C
  C1604    1.0000 0.94786  0.04794  0.93396  Biso   1.000  C
  H912     1.0000 0.92029  0.00440  0.93929  Biso   1.000  H
  H913     1.0000 0.91090  0.07001  0.01719  Biso   1.000  H
  C1605    1.0000 0.94318  0.08582  0.98049  Biso   1.000  C
  C1606    1.0000 0.93676  0.14944  0.93876  Biso   1.000  C
  H914     1.0000 0.90349  0.18910  0.94211  Biso   1.000  H
  C1607    1.0000 0.99254  0.16555  0.92169  Biso   1.000  C
  H915     1.0000 0.99829  0.21571  0.91239  Biso   1.000  H
  C1608    1.0000 0.02948  0.06713  0.95960  Biso   1.000  C
  H916     1.0000 0.06441  0.03849  0.98391  Biso   1.000  H
  C1609    1.0000 0.02258  0.12332  0.98140  Biso   1.000  C
  H917     1.0000 0.05239  0.13320  0.02210  Biso   1.000  H
  C1610    1.0000 0.95652  0.07849  0.94867  Biso   1.000  C
  H918     1.0000 0.95731  0.04211  0.91269  Biso   1.000  H
  H919     1.0000 0.95000  0.10611  0.99170  Biso   1.000  H
  C1611    1.0000 0.97006  0.14005  0.93215  Biso   1.000  C
  H920     1.0000 0.92070  0.13241  0.94460  Biso   1.000  H
  H921     1.0000 0.01530  0.15970  0.91599  Biso   1.000  H
  C1612    1.0000 0.01344  0.09885  0.95799  Biso   1.000  C
  H922     1.0000 0.02370  0.05010  0.94359  Biso   1.000  H
  H923     1.0000 0.01250  0.14529  0.98039  Biso   1.000  H
  C1613    1.0000 0.98312  0.10308  0.93351  Biso   1.000  C
  C1614    1.0000 0.99300  0.09427  0.89701  Biso   1.000  C
  C1615    1.0000 0.96792  0.09206  0.87262  Biso   1.000  C
  C1616    1.0000 0.02655  0.09239  0.88620  Biso   1.000  C
  H924     1.0000 0.94470  0.09361  0.87921  Biso   1.000  H
  C1617    1.0000 0.97576  0.08765  0.83884  Biso   1.000  C
  C1618    1.0000 0.03432  0.08824  0.85236  Biso   1.000  C
  H925     1.0000 0.04450  0.09399  0.90221  Biso   1.000  H
  H926     1.0000 0.95810  0.08569  0.82270  Biso   1.000  H
  C1619    1.0000 0.00916  0.08615  0.82901  Biso   1.000  C
  H927     1.0000 0.05741  0.08689  0.84550  Biso   1.000  H
  O30      1.0000 0.02019  0.08317  0.79618  Biso   1.000  O
  C1620    1.0000 0.99516  0.08248  0.77129  Biso   1.000  C
  H928     1.0000 0.97999  0.06301  0.77509  Biso   1.000  H
  H929     1.0000 0.98190  0.10359  0.77210  Biso   1.000  H
  H930     1.0000 0.00591  0.08030  0.74920  Biso   1.000  H
  O31      1.0000 0.16683  0.72981  0.54618  Biso   1.000  O
  C1621    1.0000 0.16752  0.75484  0.52129  Biso   1.000  C
  C1622    1.0000 0.16385  0.74084  0.57901  Biso   1.000  C
  H931     1.0000 0.16970  0.74409  0.49920  Biso   1.000  H
  H932     1.0000 0.18699  0.77001  0.52509  Biso   1.000  H
  H933     1.0000 0.14641  0.76810  0.52210  Biso   1.000  H
  C1623    1.0000 0.16176  0.71568  0.60236  Biso   1.000  C
  C1624    1.0000 0.16235  0.77424  0.58884  Biso   1.000  C
  H934     1.0000 0.16311  0.69259  0.59550  Biso   1.000  H
  C1625    1.0000 0.15761  0.72345  0.63620  Biso   1.000  C
  C1626    1.0000 0.15794  0.78208  0.62262  Biso   1.000  C
  H935     1.0000 0.16431  0.79190  0.57270  Biso   1.000  H
  H936     1.0000 0.15601  0.70550  0.65221  Biso   1.000  H
  C1627    1.0000 0.15573  0.75700  0.64701  Biso   1.000  C
  H937     1.0000 0.15639  0.80530  0.62921  Biso   1.000  H
  C1628    1.0000 0.14692  0.76688  0.68351  Biso   1.000  C
  C1629    1.0000 0.15115  0.73656  0.70799  Biso   1.000  C
  C1630    1.0000 0.17151  0.79348  0.69867  Biso   1.000  C
  C1631    1.0000 0.10995  0.77994  0.68215  Biso   1.000  C
  C1632    1.0000 0.18287  0.72052  0.70960  Biso   1.000  C
  C1633    1.0000 0.12668  0.72742  0.73140  Biso   1.000  C
  C1634    1.0000 0.20206  0.80214  0.68396  Biso   1.000  C
  C1635    1.0000 0.16418  0.80682  0.73049  Biso   1.000  C
  C1636    1.0000 0.10056  0.81324  0.68876  Biso   1.000  C
  C1637    1.0000 0.08445  0.75746  0.67169  Biso   1.000  C
  H938     1.0000 0.19990  0.72630  0.69359  Biso   1.000  H
  C1638    1.0000 0.18999  0.69666  0.73376  Biso   1.000  C
  C1639    1.0000 0.13386  0.70362  0.75626  Biso   1.000  C
  H939     1.0000 0.10471  0.73750  0.73039  Biso   1.000  H
  H940     1.0000 0.20789  0.79269  0.66269  Biso   1.000  H
  C1640    1.0000 0.22439  0.82444  0.69967  Biso   1.000  C
  C1641    1.0000 0.18582  0.82976  0.74595  Biso   1.000  C
  H941     1.0000 0.14389  0.80000  0.74170  Biso   1.000  H
  H942     1.0000 0.11759  0.82930  0.69460  Biso   1.000  H
  C1642    1.0000 0.06680  0.82363  0.68700  Biso   1.000  C
  C1643    1.0000 0.05115  0.76754  0.66958  Biso   1.000  C
  H943     1.0000 0.09030  0.73470  0.66599  Biso   1.000  H
  H944     1.0000 0.21151  0.68559  0.73391  Biso   1.000  H
  C1644    1.0000 0.16584  0.68847  0.75822  Biso   1.000  C
  H945     1.0000 0.11680  0.69761  0.77210  Biso   1.000  H
  H946     1.0000 0.24560  0.82971  0.68929  Biso   1.000  H
  C1645    1.0000 0.21596  0.83913  0.73049  Biso   1.000  C
  H947     1.0000 0.17999  0.83910  0.76719  Biso   1.000  H
  H948     1.0000 0.06090  0.84651  0.69211  Biso   1.000  H
  C1646    1.0000 0.04160  0.80066  0.67778  Biso   1.000  C
  H949     1.0000 0.03429  0.75171  0.66239  Biso   1.000  H
  C1647    1.0000 0.17472  0.66640  0.78532  Biso   1.000  C
  C1648    1.0000 0.23778  0.86387  0.74578  Biso   1.000  C
  C1649    1.0000 0.00662  0.81133  0.67695  Biso   1.000  C
  C1650    1.0000 0.18348  0.64913  0.80847  Biso   1.000  C
  C1651    1.0000 0.25535  0.88513  0.75820  Biso   1.000  C
  C1652    1.0000 0.97793  0.82141  0.67745  Biso   1.000  C
  C1653    1.0000 0.19470  0.62907  0.83660  Biso   1.000  C
  C1654    1.0000 0.27584  0.91207  0.77132  Biso   1.000  C
  C1655    1.0000 0.94417  0.83513  0.67959  Biso   1.000  C
  C1656    1.0000 0.22034  0.60517  0.83316  Biso   1.000  C
  N61      1.0000 0.17953  0.63490  0.86724  Biso   1.000  N
  C1657    1.0000 0.30723  0.92014  0.75681  Biso   1.000  C
  C1658    1.0000 0.26349  0.93096  0.79804  Biso   1.000  C
  C1659    1.0000 0.92271  0.83554  0.65161  Biso   1.000  C
  N62      1.0000 0.93432  0.84921  0.70935  Biso   1.000  N
  H950     1.0000 0.23091  0.60181  0.81189  Biso   1.000  H
  C1660    1.0000 0.23055  0.58610  0.86061  Biso   1.000  C
  C1661    1.0000 0.18997  0.61591  0.89442  Biso   1.000  C
  H951     1.0000 0.16230  0.65171  0.86961  Biso   1.000  H
  H952     1.0000 0.31550  0.90731  0.73831  Biso   1.000  H
  C1662    1.0000 0.32599  0.94656  0.76941  Biso   1.000  C
  C1663    1.0000 0.28241  0.95792  0.80980  Biso   1.000  C
  H953     1.0000 0.24231  0.92541  0.80809  Biso   1.000  H
  H954     1.0000 0.92971  0.82541  0.63110  Biso   1.000  H
  C1664    1.0000 0.89117  0.85084  0.65410  Biso   1.000  C
  C1665    1.0000 0.90321  0.86446  0.71144  Biso   1.000  C
  H955     1.0000 0.94891  0.84840  0.72841  Biso   1.000  H
  H956     1.0000 0.24799  0.56950  0.85830  Biso   1.000  H
  C1666    1.0000 0.21515  0.59134  0.89120  Biso   1.000  C
  C1667    1.0000 0.17416  0.62289  0.92597  Biso   1.000  C
  H957     1.0000 0.34761  0.95171  0.75990  Biso   1.000  H
  C1668    1.0000 0.31370  0.96581  0.79585  Biso   1.000  C
  C1669    1.0000 0.26871  0.97676  0.83776  Biso   1.000  C
  H958     1.0000 0.87640  0.85130  0.63519  Biso   1.000  H
  C1670    1.0000 0.88111  0.86533  0.68376  Biso   1.000  C
  C1671    1.0000 0.89427  0.88037  0.74246  Biso   1.000  C
  H959     1.0000 0.22179  0.57821  0.91011  Biso   1.000  H
  C1672    1.0000 0.16036  0.62974  0.95196  Biso   1.000  C
  H960     1.0000 0.32660  0.98429  0.80440  Biso   1.000  H
  C1673    1.0000 0.25583  0.99050  0.86131  Biso   1.000  C
  H961     1.0000 0.85939  0.87579  0.68560  Biso   1.000  H
  C1674    1.0000 0.88768  0.89422  0.76843  Biso   1.000  C
  C1675    1.0000 0.14422  0.63768  0.98157  Biso   1.000  C
  C1676    1.0000 0.24050  0.00583  0.88869  Biso   1.000  C
  C1677    1.0000 0.87974  0.91036  0.79804  Biso   1.000  C
  C1678    1.0000 0.13037  0.64427  0.00754  Biso   1.000  C
  C1679    1.0000 0.22676  0.01871  0.91224  Biso   1.000  C
  C1680    1.0000 0.87289  0.92416  0.82403  Biso   1.000  C
  C1681    1.0000 0.11446  0.65321  0.03856  Biso   1.000  C
  C1682    1.0000 0.20792  0.03241  0.94020  Biso   1.000  C
  C1683    1.0000 0.86591  0.93997  0.85558  Biso   1.000  C
  C1684    1.0000 0.11533  0.63111  0.06624  Biso   1.000  C
  N63      1.0000 0.09921  0.68432  0.04065  Biso   1.000  N
  C1685    1.0000 0.21581  0.06370  0.95415  Biso   1.000  C
  C1686    1.0000 0.18096  0.01349  0.95196  Biso   1.000  C
  C1687    1.0000 0.84134  0.96515  0.85880  Biso   1.000  C
  N64      1.0000 0.88490  0.92953  0.88276  Biso   1.000  N
  C1688    1.0000 0.10084  0.64117  0.09590  Biso   1.000  C
  H962     1.0000 0.12579  0.60939  0.06440  Biso   1.000  H
  C1689    1.0000 0.08513  0.69417  0.07041  Biso   1.000  C
  H963     1.0000 0.09840  0.69891  0.02159  Biso   1.000  H
  C1690    1.0000 0.19656  0.07599  0.98059  Biso   1.000  C
  H964     1.0000 0.23429  0.07660  0.94560  Biso   1.000  H
  H965     1.0000 0.17541  0.99231  0.94191  Biso   1.000  H
  C1691    1.0000 0.16207  0.02584  0.97868  Biso   1.000  C
  C1692    1.0000 0.83610  0.98055  0.88939  Biso   1.000  C
  H966     1.0000 0.82821  0.97179  0.83989  Biso   1.000  H
  C1693    1.0000 0.87907  0.94470  0.91340  Biso   1.000  C
  H967     1.0000 0.90171  0.91230  0.88039  Biso   1.000  H
  C1694    1.0000 0.08554  0.67271  0.09839  Biso   1.000  C
  H968     1.0000 0.10130  0.62640  0.11481  Biso   1.000  H
  C1695    1.0000 0.07141  0.72793  0.07255  Biso   1.000  C
  C1696    1.0000 0.17014  0.05723  0.99319  Biso   1.000  C
  H969     1.0000 0.20171  0.09761  0.99010  Biso   1.000  H
  C1697    1.0000 0.13513  0.00535  0.99180  Biso   1.000  C
  C1698    1.0000 0.85517  0.97034  0.91684  Biso   1.000  C
  H970     1.0000 0.81950  0.99799  0.89170  Biso   1.000  H
  C1699    1.0000 0.89913  0.93348  0.94153  Biso   1.000  C
  H971     1.0000 0.07541  0.67971  0.11890  Biso   1.000  H
  C1700    1.0000 0.06133  0.75662  0.07305  Biso   1.000  C
  H972     1.0000 0.15731  0.06550  0.01169  Biso   1.000  H
  C1701    1.0000 0.11387  0.98778  0.00422  Biso   1.000  C
  H973     1.0000 0.85181  0.98091  0.93811  Biso   1.000  H
  C1702    1.0000 0.91640  0.92472  0.96468  Biso   1.000  C
  C1703    1.0000 0.05066  0.79160  0.07222  Biso   1.000  C
  C1704    1.0000 0.08913  0.96596  0.01951  Biso   1.000  C
  C1705    1.0000 0.93847  0.91584  0.99178  Biso   1.000  C
  C1706    1.0000 0.07363  0.81680  0.06300  Biso   1.000  C
  C1707    1.0000 0.01754  0.80115  0.08042  Biso   1.000  C
  C1708    1.0000 0.07444  0.97439  0.05033  Biso   1.000  C
  C1709    1.0000 0.07976  0.93582  0.00405  Biso   1.000  C
  C1710    1.0000 0.95362  0.88386  0.99374  Biso   1.000  C
  C1711    1.0000 0.94666  0.93999  0.01624  Biso   1.000  C
  C1712    1.0000 0.06324  0.85056  0.06124  Biso   1.000  C
  H974     1.0000 0.09651  0.81090  0.05789  Biso   1.000  H
  H975     1.0000 0.00171  0.78429  0.08761  Biso   1.000  H
  C1713    1.0000 0.00746  0.83445  0.07831  Biso   1.000  C
  C1714    1.0000 0.05214  0.95206  0.06604  Biso   1.000  C
  H976     1.0000 0.07971  0.99560  0.06071  Biso   1.000  H
  H977     1.0000 0.08910  0.92999  0.98281  Biso   1.000  H
  C1715    1.0000 0.05682  0.91418  0.01951  Biso   1.000  C
  H978     1.0000 0.94761  0.86680  0.97790  Biso   1.000  H
  C1716    1.0000 0.97742  0.87668  0.01860  Biso   1.000  C
  C1717    1.0000 0.97052  0.93287  0.04040  Biso   1.000  C
  H979     1.0000 0.93559  0.96151  0.01609  Biso   1.000  H
  C1718    1.0000 0.02994  0.85995  0.06785  Biso   1.000  C
  H980     1.0000 0.07930  0.86759  0.05540  Biso   1.000  H
  H981     1.0000 0.98470  0.84030  0.08401  Biso   1.000  H
  C1719    1.0000 0.04348  0.92151  0.05133  Biso   1.000  C
  H982     1.0000 0.04269  0.95789  0.08731  Biso   1.000  H
  H983     1.0000 0.05000  0.89389  0.00830  Biso   1.000  H
  C1720    1.0000 0.98656  0.90115  0.04201  Biso   1.000  C
  H984     1.0000 0.98750  0.85471  0.01961  Biso   1.000  H
  H985     1.0000 0.97630  0.94990  0.05641  Biso   1.000  H
  C1721    1.0000 0.01688  0.89692  0.06649  Biso   1.000  C
  C1722    1.0000 0.00700  0.90573  0.10299  Biso   1.000  C
  C1723    1.0000 0.97345  0.90761  0.11380  Biso   1.000  C
  C1724    1.0000 0.03208  0.90794  0.12738  Biso   1.000  C
  C1725    1.0000 0.96568  0.91176  0.14764  Biso   1.000  C
  H986     1.0000 0.95550  0.90601  0.09779  Biso   1.000  H
  H987     1.0000 0.05530  0.90639  0.12079  Biso   1.000  H
  C1726    1.0000 0.02424  0.91235  0.16116  Biso   1.000  C
  C1727    1.0000 0.99084  0.91385  0.17099  Biso   1.000  C
  H988     1.0000 0.94259  0.91311  0.15450  Biso   1.000  H
  H989     1.0000 0.04190  0.91431  0.17730  Biso   1.000  H
  O32      1.0000 0.97981  0.91683  0.20382  Biso   1.000  O
  C1728    1.0000 0.00484  0.91752  0.22871  Biso   1.000  C
  H990     1.0000 0.99409  0.91970  0.25080  Biso   1.000  H
  H991     1.0000 0.02001  0.93699  0.22491  Biso   1.000  H
  H992     1.0000 0.01810  0.89641  0.22790  Biso   1.000  H
  Ne1      1.0000 0.41307  0.16307  0.37500  Biso   1.000  Ne
  He1      1.0000 0.41041  0.20555  0.39460  Biso   1.000  He
  He2      1.0000 0.45371  0.13785  0.35075  Biso   1.000  He
  He3      1.0000 0.45501  0.15885  0.35530  Biso   1.000  He
  Ar1      1.0000 0.41307  0.16307  0.37500  Biso   1.000  Ar
  Ne2      1.0000 0.08693  0.33693  0.12500  Biso   1.000  Ne
  He4      1.0000 0.04775  0.35235  0.14585  Biso   1.000  He
  He5      1.0000 0.11190  0.29626  0.10084  Biso   1.000  He
  He6      1.0000 0.09036  0.29471  0.10535  Biso   1.000  He
  Ar2      1.0000 0.08693  0.33693  0.12500  Biso   1.000  Ar
  Ne3      1.0000 0.58693  0.33693  0.37500  Biso   1.000  Ne
  He7      1.0000 0.59187  0.29525  0.39475  Biso   1.000  He
  He8      1.0000 0.65475  0.30082  0.41451  Biso   1.000  He
  He9      1.0000 0.54603  0.34413  0.35510  Biso   1.000  He
  Ar3      1.0000 0.58693  0.33693  0.37500  Biso   1.000  Ar
  Ne4      1.0000 0.08693  0.16307  0.62500  Biso   1.000  Ne
  He10     1.0000 0.04539  0.15773  0.64477  Biso   1.000  He
  He11     1.0000 0.05057  0.09771  0.66365  Biso   1.000  He
  He12     1.0000 0.09125  0.20497  0.60529  Biso   1.000  He
  Ar4      1.0000 0.08693  0.16307  0.62500  Biso   1.000  Ar
  Ne5      1.0000 0.08693  0.66307  0.37500  Biso   1.000  Ne
  He13     1.0000 0.09000  0.70541  0.39463  Biso   1.000  He
  He14     1.0000 0.04679  0.63335  0.34911  Biso   1.000  He
  He15     1.0000 0.04297  0.66465  0.35568  Biso   1.000  He
  Ar5      1.0000 0.08693  0.66307  0.37500  Biso   1.000  Ar
  Ne6      1.0000 0.41307  0.33693  0.87500  Biso   1.000  Ne
  He16     1.0000 0.41033  0.29447  0.89461  Biso   1.000  He
  He17     1.0000 0.53272  0.23326  0.86219  Biso   1.000  He
  He18     1.0000 0.45708  0.33532  0.85567  Biso   1.000  He
  Ar6      1.0000 0.41307  0.33693  0.87500  Biso   1.000  Ar
  Ne7      1.0000 0.58693  0.66307  0.12500  Biso   1.000  Ne
  He19     1.0000 0.54539  0.65773  0.14477  Biso   1.000  He
  He20     1.0000 0.55057  0.59771  0.16365  Biso   1.000  He
  He21     1.0000 0.59125  0.70497  0.10529  Biso   1.000  He
  Ar7      1.0000 0.58693  0.66307  0.12500  Biso   1.000  Ar
  Ne8      1.0000 0.41307  0.66307  0.62500  Biso   1.000  Ne
  He22     1.0000 0.45616  0.66205  0.64450  Biso   1.000  He
  He23     1.0000 0.45012  0.60445  0.66127  Biso   1.000  He
  He24     1.0000 0.39793  0.70215  0.60424  Biso   1.000  He
  Ar8      1.0000 0.41307  0.66307  0.62500  Biso   1.000  Ar
  Ne9      1.0000 0.41307  0.83693  0.12500  Biso   1.000  Ne
  He25     1.0000 0.45260  0.84791  0.14513  Biso   1.000  He
  He26     1.0000 0.45021  0.89476  0.16099  Biso   1.000  He
  He27     1.0000 0.25541  0.80944  0.04816  Biso   1.000  He
  Ar9      1.0000 0.41307  0.83693  0.12500  Biso   1.000  Ar
  Ne10     1.0000 0.58693  0.16307  0.87500  Biso   1.000  Ne
  He28     1.0000 0.59000  0.20541  0.89463  Biso   1.000  He
  He29     1.0000 0.54679  0.13335  0.84911  Biso   1.000  He
  He30     1.0000 0.54297  0.16465  0.85568  Biso   1.000  He
  Ar10     1.0000 0.58693  0.16307  0.87500  Biso   1.000  Ar
  Ne11     1.0000 0.91307  0.16307  0.12500  Biso   1.000  Ne
  He31     1.0000 0.95616  0.16205  0.14450  Biso   1.000  He
  He32     1.0000 0.95012  0.10445  0.16127  Biso   1.000  He
  He33     1.0000 0.89793  0.20215  0.10424  Biso   1.000  He
  Ar11     1.0000 0.91307  0.16307  0.12500  Biso   1.000  Ar
  Ne12     1.0000 0.58693  0.83693  0.62500  Biso   1.000  Ne
  He34     1.0000 0.54775  0.85235  0.64585  Biso   1.000  He
  He35     1.0000 0.61190  0.79626  0.60084  Biso   1.000  He
  He36     1.0000 0.59036  0.79471  0.60535  Biso   1.000  He
  Ar12     1.0000 0.58693  0.83693  0.62500  Biso   1.000  Ar
  Ne13     1.0000 0.08693  0.83693  0.87500  Biso   1.000  Ne
  He37     1.0000 0.09187  0.79525  0.89475  Biso   1.000  He
  He38     1.0000 0.15475  0.80082  0.91451  Biso   1.000  He
  He39     1.0000 0.04603  0.84413  0.85510  Biso   1.000  He
  Ar13     1.0000 0.08693  0.83693  0.87500  Biso   1.000  Ar
  Ne14     1.0000 0.91307  0.83693  0.37500  Biso   1.000  Ne
  He40     1.0000 0.91033  0.79447  0.39461  Biso   1.000  He
  He41     1.0000 0.03272  0.73326  0.36219  Biso   1.000  He
  He42     1.0000 0.95708  0.83532  0.35567  Biso   1.000  He
  Ar14     1.0000 0.91307  0.83693  0.37500  Biso   1.000  Ar
  Ne15     1.0000 0.91307  0.33693  0.62500  Biso   1.000  Ne
  He43     1.0000 0.95260  0.34791  0.64513  Biso   1.000  He
  He44     1.0000 0.95021  0.39476  0.66099  Biso   1.000  He
  He45     1.0000 0.75541  0.30944  0.54816  Biso   1.000  He
  Ar15     1.0000 0.91307  0.33693  0.62500  Biso   1.000  Ar
  Ne16     1.0000 0.91307  0.66307  0.87500  Biso   1.000  Ne
  He46     1.0000 0.91041  0.70555  0.89460  Biso   1.000  He
  He47     1.0000 0.95371  0.63785  0.85075  Biso   1.000  He
  He48     1.0000 0.95501  0.65885  0.85530  Biso   1.000  He
  Ar16     1.0000 0.91307  0.66307  0.87500  Biso   1.000  Ar
