data_image0
_cell_length_a       15.32
_cell_length_b       36.839
_cell_length_c       17.429
_cell_angle_alpha    90
_cell_angle_beta     102.97
_cell_angle_gamma    90

_symmetry_space_group_name_H-M    "P 1"
_symmetry_int_tables_number       1

loop_
  _symmetry_equiv_pos_as_xyz
  'x, y, z'

loop_
  _atom_site_label
  _atom_site_occupancy
  _atom_site_fract_x
  _atom_site_fract_y
  _atom_site_fract_z
  _atom_site_thermal_displace_type
  _atom_site_B_iso_or_equiv
  _atom_site_type_symbol
  S1       1.0000 0.58355  0.50384  0.58772  Biso   1.000  S
  C1       1.0000 0.68597  0.50821  0.56729  Biso   1.000  C
  C2       1.0000 0.63166  0.48989  0.68281  Biso   1.000  C
  C3       1.0000 0.70786  0.51820  0.49887  Biso   1.000  C
  C4       1.0000 0.75719  0.49909  0.63299  Biso   1.000  C
  C5       1.0000 0.71967  0.48970  0.69800  Biso   1.000  C
  C6       1.0000 0.56916  0.47870  0.73638  Biso   1.000  C
  C7       1.0000 0.79450  0.51940  0.49051  Biso   1.000  C
  H1       1.0000 0.66120  0.52450  0.45518  Biso   1.000  H
  C8       1.0000 0.84457  0.49990  0.62858  Biso   1.000  C
  C9       1.0000 0.77298  0.48020  0.77919  Biso   1.000  C
  H2       1.0000 0.58638  0.45471  0.75858  Biso   1.000  H
  H3       1.0000 0.57409  0.49640  0.77919  Biso   1.000  H
  H4       1.0000 0.50725  0.47800  0.70559  Biso   1.000  H
  B1       1.0000 0.82255  0.52971  0.41197  Biso   1.000  B
  C10      1.0000 0.86596  0.51011  0.55410  Biso   1.000  C
  H5       1.0000 0.89063  0.49391  0.67297  Biso   1.000  H
  C11      1.0000 0.82376  0.50799  0.83159  Biso   1.000  C
  C12      1.0000 0.77378  0.44909  0.82040  Biso   1.000  C
  C13      1.0000 0.83397  0.50799  0.82299  Biso   1.000  C
  O1       1.0000 0.75692  0.54399  0.34920  Biso   1.000  O
  O2       1.0000 0.90086  0.52401  0.39372  Biso   1.000  O
  H6       1.0000 0.92615  0.51041  0.54851  Biso   1.000  H
  C14      1.0000 0.88227  0.48690  0.89842  Biso   1.000  C
  F1       1.0000 0.87056  0.52960  0.79350  Biso   1.000  F
  F2       1.0000 0.76894  0.53240  0.85490  Biso   1.000  F
  C15      1.0000 0.85498  0.48899  0.90301  Biso   1.000  C
  F3       1.0000 0.91494  0.50601  0.80598  Biso   1.000  F
  F4       1.0000 0.78895  0.52200  0.87598  Biso   1.000  F
  C16      1.0000 0.73108  0.41269  0.78767  Biso   1.000  C
  C17      1.0000 0.82847  0.45229  0.90118  Biso   1.000  C
  C18      1.0000 0.84899  0.44800  0.89000  Biso   1.000  C
  C19      1.0000 0.80230  0.55129  0.28638  Biso   1.000  C
  C20      1.0000 0.88879  0.53031  0.31117  Biso   1.000  C
  F5       1.0000 0.96158  0.48060  0.87899  Biso   1.000  F
  F6       1.0000 0.90306  0.50531  0.96707  Biso   1.000  F
  F7       1.0000 0.93798  0.47501  0.90901  Biso   1.000  F
  F8       1.0000 0.79293  0.49700  0.94399  Biso   1.000  F
  C21      1.0000 0.66537  0.39450  0.82329  Biso   1.000  C
  C22      1.0000 0.75529  0.39339  0.72961  Biso   1.000  C
  F9       1.0000 0.88578  0.42479  0.92750  Biso   1.000  F
  F10      1.0000 0.78084  0.45669  0.95670  Biso   1.000  F
  F11      1.0000 0.88997  0.41700  0.87899  Biso   1.000  F
  F12      1.0000 0.81198  0.43299  0.94599  Biso   1.000  F
  C23      1.0000 0.75110  0.53571  0.20601  Biso   1.000  C
  H7       1.0000 0.81412  0.57789  0.28232  Biso   1.000  H
  C24      1.0000 0.87118  0.49450  0.26342  Biso   1.000  C
  H8       1.0000 0.94041  0.54399  0.29910  Biso   1.000  H
  C25      1.0000 0.62126  0.40530  0.88240  Biso   1.000  C
  C26      1.0000 0.64875  0.35929  0.79220  Biso   1.000  C
  S2       1.0000 0.70578  0.35139  0.71849  Biso   1.000  S
  C27      1.0000 0.81825  0.40501  0.68322  Biso   1.000  C
  C28      1.0000 0.79040  0.49901  0.20907  Biso   1.000  C
  C29      1.0000 0.64939  0.53479  0.19677  Biso   1.000  C
  C30      1.0000 0.77020  0.55919  0.13842  Biso   1.000  C
  C31      1.0000 0.91587  0.46339  0.27461  Biso   1.000  C
  C32      1.0000 0.55955  0.38291  0.90477  Biso   1.000  C
  H9       1.0000 0.63427  0.42830  0.90701  Biso   1.000  H
  C33      1.0000 0.58930  0.33611  0.81652  Biso   1.000  C
  H10      1.0000 0.86729  0.41861  0.71678  Biso   1.000  H
  H11      1.0000 0.84250  0.38370  0.66161  Biso   1.000  H
  H12      1.0000 0.78737  0.42059  0.64000  Biso   1.000  H
  C34      1.0000 0.76180  0.46899  0.15638  Biso   1.000  C
  H13      1.0000 0.63278  0.51291  0.22220  Biso   1.000  H
  H14      1.0000 0.63028  0.55631  0.22162  Biso   1.000  H
  H15      1.0000 0.62007  0.53449  0.14072  Biso   1.000  H
  H16      1.0000 0.73457  0.55031  0.08808  Biso   1.000  H
  H17      1.0000 0.75412  0.58449  0.14602  Biso   1.000  H
  H18      1.0000 0.83398  0.55781  0.13819  Biso   1.000  H
  C35      1.0000 0.88810  0.43370  0.22591  Biso   1.000  C
  H19      1.0000 0.96751  0.46141  0.31629  Biso   1.000  H
  C36      1.0000 0.54619  0.34781  0.87522  Biso   1.000  C
  H20      1.0000 0.52599  0.39141  0.94081  Biso   1.000  H
  H21      1.0000 0.57775  0.31271  0.79379  Biso   1.000  H
  C37      1.0000 0.80681  0.43791  0.16651  Biso   1.000  C
  H22      1.0000 0.71061  0.47140  0.11440  Biso   1.000  H
  C38      1.0000 0.92280  0.39640  0.22733  Biso   1.000  C
  B2       1.0000 0.48338  0.32080  0.90660  Biso   1.000  B
  C39      1.0000 0.78587  0.40210  0.12411  Biso   1.000  C
  C40      1.0000 0.84718  0.37531  0.17710  Biso   1.000  C
  C41      1.0000 0.95579  0.38000  0.31029  Biso   1.000  C
  C42      1.0000 0.00121  0.39800  0.18087  Biso   1.000  C
  O3       1.0000 0.41638  0.33209  0.94098  Biso   1.000  O
  O4       1.0000 0.49079  0.28459  0.89830  Biso   1.000  O
  O5       1.0000 0.69649  0.39029  0.12199  Biso   1.000  O
  H23      1.0000 0.79832  0.40300  0.07012  Biso   1.000  H
  O6       1.0000 0.78720  0.35929  0.22109  Biso   1.000  O
  H24      1.0000 0.87033  0.35650  0.14531  Biso   1.000  H
  H25      1.0000 0.93597  0.39540  0.34897  Biso   1.000  H
  H26      1.0000 0.93096  0.35560  0.31170  Biso   1.000  H
  H27      1.0000 0.02141  0.37881  0.32289  Biso   1.000  H
  H28      1.0000 0.97531  0.39979  0.12417  Biso   1.000  H
  H29      1.0000 0.03912  0.41920  0.19818  Biso   1.000  H
  H30      1.0000 0.03756  0.37591  0.19159  Biso   1.000  H
  C43      1.0000 0.37027  0.29919  0.95570  Biso   1.000  C
  C44      1.0000 0.42765  0.26749  0.93886  Biso   1.000  C
  B3       1.0000 0.70278  0.36649  0.17987  Biso   1.000  B
  C45      1.0000 0.28180  0.29469  0.89170  Biso   1.000  C
  H31      1.0000 0.35995  0.29841  0.01040  Biso   1.000  H
  C46      1.0000 0.36555  0.23969  0.88558  Biso   1.000  C
  H32      1.0000 0.46016  0.25579  0.98897  Biso   1.000  H
  C47      1.0000 0.62148  0.34909  0.20760  Biso   1.000  C
  C48      1.0000 0.21274  0.31871  0.87457  Biso   1.000  C
  C49      1.0000 0.28253  0.26230  0.85420  Biso   1.000  C
  C50      1.0000 0.34484  0.21021  0.94228  Biso   1.000  C
  C51      1.0000 0.40747  0.22199  0.82658  Biso   1.000  C
  C52      1.0000 0.53620  0.34860  0.15738  Biso   1.000  C
  C53      1.0000 0.62826  0.33429  0.28120  Biso   1.000  C
  C54      1.0000 0.13745  0.30981  0.81287  Biso   1.000  C
  H33      1.0000 0.21468  0.34081  0.90289  Biso   1.000  H
  C55      1.0000 0.21804  0.25340  0.79308  Biso   1.000  C
  H34      1.0000 0.29239  0.19610  0.91578  Biso   1.000  H
  H35      1.0000 0.39650  0.19401  0.95771  Biso   1.000  H
  H36      1.0000 0.33246  0.22180  0.98938  Biso   1.000  H
  H37      1.0000 0.41207  0.23950  0.78531  Biso   1.000  H
  H38      1.0000 0.46756  0.21339  0.85231  Biso   1.000  H
  H39      1.0000 0.37076  0.20131  0.80321  Biso   1.000  H
  C56      1.0000 0.46052  0.33451  0.17669  Biso   1.000  C
  H40      1.0000 0.52988  0.35870  0.10627  Biso   1.000  H
  C57      1.0000 0.55451  0.31931  0.30322  Biso   1.000  C
  H41      1.0000 0.68468  0.33440  0.31759  Biso   1.000  H
  C58      1.0000 0.05167  0.32970  0.78649  Biso   1.000  C
  C59      1.0000 0.14067  0.27821  0.77100  Biso   1.000  C
  H42      1.0000 0.22139  0.23179  0.76429  Biso   1.000  H
  C60      1.0000 0.47006  0.31790  0.24958  Biso   1.000  C
  H43      1.0000 0.40370  0.33611  0.14131  Biso   1.000  H
  S3       1.0000 0.55319  0.29974  0.39289  Biso   1.000  S
  C61      1.0000 0.02058  0.31380  0.70412  Biso   1.000  C
  C62      1.0000 0.06357  0.37099  0.78478  Biso   1.000  C
  C63      1.0000 0.99223  0.31939  0.83748  Biso   1.000  C
  C64      1.0000 0.05977  0.27389  0.70471  Biso   1.000  C
  C65      1.0000 0.40550  0.30031  0.28691  Biso   1.000  C
  C66      1.0000 0.43940  0.28880  0.36139  Biso   1.000  C
  O7       1.0000 0.05129  0.33180  0.64312  Biso   1.000  O
  H44      1.0000 0.95369  0.31279  0.69011  Biso   1.000  H
  H45      1.0000 0.07584  0.38049  0.83871  Biso   1.000  H
  H46      1.0000 0.11388  0.37680  0.76070  Biso   1.000  H
  H47      1.0000 0.00864  0.38210  0.75399  Biso   1.000  H
  H48      1.0000 0.00777  0.33329  0.88658  Biso   1.000  H
  H49      1.0000 0.93007  0.32441  0.81081  Biso   1.000  H
  H50      1.0000 0.99915  0.29341  0.84949  Biso   1.000  H
  O8       1.0000 0.08429  0.27129  0.62999  Biso   1.000  O
  H51      1.0000 0.01757  0.25451  0.71377  Biso   1.000  H
  C67      1.0000 0.31429  0.29330  0.24540  Biso   1.000  C
  C68      1.0000 0.39451  0.27031  0.41538  Biso   1.000  C
  B4       1.0000 0.08710  0.30530  0.60291  Biso   1.000  B
  C69      1.0000 0.29446  0.26499  0.18358  Biso   1.000  C
  C70      1.0000 0.28202  0.27381  0.17039  Biso   1.000  C
  C71      1.0000 0.23621  0.30650  0.26018  Biso   1.000  C
  H52      1.0000 0.36348  0.24881  0.38948  Biso   1.000  H
  H53      1.0000 0.43878  0.26290  0.46248  Biso   1.000  H
  H54      1.0000 0.35089  0.28671  0.43040  Biso   1.000  H
  C72      1.0000 0.11959  0.31301  0.52331  Biso   1.000  C
  C73      1.0000 0.19642  0.27129  0.14449  Biso   1.000  C
  F13      1.0000 0.34552  0.26621  0.12971  Biso   1.000  F
  F14      1.0000 0.31137  0.23101  0.21349  Biso   1.000  F
  C74      1.0000 0.18600  0.26149  0.16297  Biso   1.000  C
  F15      1.0000 0.29601  0.28730  0.10198  Biso   1.000  F
  F16      1.0000 0.31197  0.23969  0.18900  Biso   1.000  F
  C75      1.0000 0.15831  0.28910  0.20790  Biso   1.000  C
  C76      1.0000 0.15899  0.29670  0.19600  Biso   1.000  C
  C77      1.0000 0.22518  0.33201  0.32359  Biso   1.000  C
  C78      1.0000 0.13329  0.28399  0.47932  Biso   1.000  C
  C79      1.0000 0.14147  0.34789  0.50370  Biso   1.000  C
  F17      1.0000 0.19530  0.29420  0.08308  Biso   1.000  F
  F18      1.0000 0.15466  0.24140  0.11028  Biso   1.000  F
  F19      1.0000 0.14298  0.25899  0.08602  Biso   1.000  F
  F20      1.0000 0.17300  0.23510  0.21202  Biso   1.000  F
  F21      1.0000 0.10121  0.31391  0.16910  Biso   1.000  F
  F22      1.0000 0.11489  0.26369  0.24110  Biso   1.000  F
  F23      1.0000 0.12698  0.32341  0.14401  Biso   1.000  F
  F24      1.0000 0.08099  0.29260  0.21903  Biso   1.000  F
  C80      1.0000 0.18617  0.32189  0.39012  Biso   1.000  C
  C81      1.0000 0.24282  0.36850  0.32312  Biso   1.000  C
  C82      1.0000 0.16508  0.28701  0.40879  Biso   1.000  C
  H55      1.0000 0.12097  0.26051  0.49652  Biso   1.000  H
  C83      1.0000 0.17675  0.35150  0.43558  Biso   1.000  C
  H56      1.0000 0.13331  0.36831  0.53461  Biso   1.000  H
  C84      1.0000 0.28370  0.38891  0.26542  Biso   1.000  C
  S4       1.0000 0.21551  0.39116  0.40049  Biso   1.000  S
  H57      1.0000 0.17126  0.26659  0.37699  Biso   1.000  H
  H58      1.0000 0.30738  0.37159  0.23239  Biso   1.000  H
  H59      1.0000 0.23795  0.40411  0.23198  Biso   1.000  H
  H60      1.0000 0.33250  0.40419  0.29398  Biso   1.000  H
  S5       1.0000 0.41638  0.49616  0.41232  Biso   1.000  S
  C85      1.0000 0.36826  0.51011  0.31717  Biso   1.000  C
  C86      1.0000 0.31401  0.49179  0.43269  Biso   1.000  C
  C87      1.0000 0.28031  0.51030  0.30198  Biso   1.000  C
  C88      1.0000 0.43082  0.52130  0.26360  Biso   1.000  C
  C89      1.0000 0.24279  0.50091  0.36698  Biso   1.000  C
  C90      1.0000 0.29205  0.48180  0.50111  Biso   1.000  C
  C91      1.0000 0.22700  0.51980  0.22079  Biso   1.000  C
  H61      1.0000 0.41360  0.54529  0.24140  Biso   1.000  H
  H62      1.0000 0.42589  0.50360  0.22079  Biso   1.000  H
  H63      1.0000 0.49266  0.52200  0.29439  Biso   1.000  H
  C92      1.0000 0.15541  0.50010  0.37140  Biso   1.000  C
  C93      1.0000 0.20548  0.48060  0.50947  Biso   1.000  C
  H64      1.0000 0.33878  0.47550  0.54480  Biso   1.000  H
  C94      1.0000 0.17622  0.49201  0.16839  Biso   1.000  C
  C95      1.0000 0.22621  0.55091  0.17958  Biso   1.000  C
  C96      1.0000 0.16601  0.49201  0.17699  Biso   1.000  C
  C97      1.0000 0.13395  0.48989  0.44588  Biso   1.000  C
  H65      1.0000 0.10928  0.50609  0.32701  Biso   1.000  H
  B5       1.0000 0.17736  0.47029  0.58801  Biso   1.000  B
  C98      1.0000 0.11772  0.51310  0.10162  Biso   1.000  C
  F25      1.0000 0.12942  0.47040  0.20648  Biso   1.000  F
  F26      1.0000 0.23097  0.46760  0.14507  Biso   1.000  F
  C99      1.0000 0.14500  0.51101  0.09697  Biso   1.000  C
  F27      1.0000 0.08498  0.49399  0.19400  Biso   1.000  F
  F28      1.0000 0.21097  0.47800  0.12400  Biso   1.000  F
  C100     1.0000 0.17151  0.54771  0.09880  Biso   1.000  C
  C101     1.0000 0.15099  0.55200  0.10998  Biso   1.000  C
  C102     1.0000 0.26890  0.58731  0.21231  Biso   1.000  C
  H66      1.0000 0.07376  0.48959  0.45147  Biso   1.000  H
  O9       1.0000 0.24306  0.45601  0.65078  Biso   1.000  O
  O10      1.0000 0.09907  0.47599  0.60632  Biso   1.000  O
  F29      1.0000 0.03840  0.51940  0.12099  Biso   1.000  F
  F30      1.0000 0.09692  0.49469  0.03291  Biso   1.000  F
  F31      1.0000 0.06201  0.52499  0.09102  Biso   1.000  F
  F32      1.0000 0.20699  0.50300  0.05599  Biso   1.000  F
  F33      1.0000 0.11420  0.57521  0.07248  Biso   1.000  F
  F34      1.0000 0.21908  0.54331  0.04328  Biso   1.000  F
  F35      1.0000 0.11001  0.58300  0.12099  Biso   1.000  F
  F36      1.0000 0.18800  0.56701  0.05399  Biso   1.000  F
  C103     1.0000 0.33461  0.60550  0.17669  Biso   1.000  C
  C104     1.0000 0.24470  0.60661  0.27043  Biso   1.000  C
  C105     1.0000 0.19768  0.44871  0.71360  Biso   1.000  C
  C106     1.0000 0.11119  0.46969  0.68881  Biso   1.000  C
  C107     1.0000 0.37872  0.59470  0.11758  Biso   1.000  C
  C108     1.0000 0.35116  0.64071  0.20778  Biso   1.000  C
  C109     1.0000 0.18168  0.59499  0.31682  Biso   1.000  C
  S6       1.0000 0.29420  0.64861  0.28149  Biso   1.000  S
  C110     1.0000 0.24888  0.46429  0.79397  Biso   1.000  C
  H67      1.0000 0.18587  0.42211  0.71772  Biso   1.000  H
  H68      1.0000 0.05958  0.45601  0.70088  Biso   1.000  H
  C111     1.0000 0.12875  0.50550  0.73662  Biso   1.000  C
  H69      1.0000 0.36572  0.57170  0.09303  Biso   1.000  H
  C112     1.0000 0.44037  0.61709  0.09521  Biso   1.000  C
  C113     1.0000 0.41070  0.66389  0.18352  Biso   1.000  C
  H70      1.0000 0.13269  0.58139  0.28320  Biso   1.000  H
  H71      1.0000 0.15748  0.61630  0.33837  Biso   1.000  H
  H72      1.0000 0.21261  0.57941  0.35998  Biso   1.000  H
  C114     1.0000 0.20959  0.50099  0.79090  Biso   1.000  C
  C115     1.0000 0.35059  0.46521  0.80321  Biso   1.000  C
  C116     1.0000 0.22979  0.44081  0.86162  Biso   1.000  C
  C117     1.0000 0.08404  0.53661  0.72537  Biso   1.000  C
  H73      1.0000 0.47399  0.60859  0.05917  Biso   1.000  H
  C118     1.0000 0.45380  0.65219  0.12482  Biso   1.000  C
  H74      1.0000 0.42217  0.68729  0.20619  Biso   1.000  H
  C119     1.0000 0.23818  0.53101  0.84360  Biso   1.000  C
  H75      1.0000 0.36713  0.48709  0.77777  Biso   1.000  H
  H76      1.0000 0.36965  0.44369  0.77842  Biso   1.000  H
  H77      1.0000 0.37986  0.46551  0.85932  Biso   1.000  H
  H78      1.0000 0.26535  0.44969  0.91190  Biso   1.000  H
  H79      1.0000 0.24587  0.41551  0.85402  Biso   1.000  H
  H80      1.0000 0.16594  0.44219  0.86179  Biso   1.000  H
  H81      1.0000 0.03247  0.53859  0.68369  Biso   1.000  H
  C120     1.0000 0.11188  0.56630  0.77407  Biso   1.000  C
  B6       1.0000 0.51660  0.67920  0.09338  Biso   1.000  B
  C121     1.0000 0.19317  0.56209  0.83347  Biso   1.000  C
  H82      1.0000 0.28937  0.52860  0.88558  Biso   1.000  H
  C122     1.0000 0.07720  0.60360  0.77271  Biso   1.000  C
  O11      1.0000 0.58360  0.66791  0.05900  Biso   1.000  O
  O12      1.0000 0.50919  0.71541  0.10168  Biso   1.000  O
  C123     1.0000 0.21405  0.59790  0.87587  Biso   1.000  C
  C124     1.0000 0.15274  0.62469  0.82288  Biso   1.000  C
  C125     1.0000 0.04419  0.62000  0.68969  Biso   1.000  C
  C126     1.0000 0.99877  0.60200  0.81911  Biso   1.000  C
  C127     1.0000 0.62971  0.70081  0.04428  Biso   1.000  C
  C128     1.0000 0.57233  0.73251  0.06112  Biso   1.000  C
  H83      1.0000 0.20167  0.59700  0.92992  Biso   1.000  H
  O13      1.0000 0.30349  0.60971  0.87798  Biso   1.000  O
  H84      1.0000 0.12965  0.64350  0.85467  Biso   1.000  H
  O14      1.0000 0.21278  0.64071  0.77889  Biso   1.000  O
  H85      1.0000 0.06401  0.60460  0.65101  Biso   1.000  H
  H86      1.0000 0.06896  0.64440  0.68828  Biso   1.000  H
  H87      1.0000 0.97857  0.62119  0.67709  Biso   1.000  H
  H88      1.0000 0.02467  0.60021  0.87581  Biso   1.000  H
  H89      1.0000 0.96087  0.58080  0.80180  Biso   1.000  H
  H90      1.0000 0.96235  0.62409  0.80839  Biso   1.000  H
  C129     1.0000 0.71818  0.70531  0.10828  Biso   1.000  C
  H91      1.0000 0.63996  0.70159  0.98958  Biso   1.000  H
  C130     1.0000 0.63437  0.76031  0.11440  Biso   1.000  C
  H92      1.0000 0.53982  0.74421  0.01101  Biso   1.000  H
  B7       1.0000 0.29720  0.63351  0.82011  Biso   1.000  B
  C131     1.0000 0.78718  0.68129  0.12541  Biso   1.000  C
  C132     1.0000 0.71738  0.73770  0.14578  Biso   1.000  C
  C133     1.0000 0.65507  0.78979  0.05770  Biso   1.000  C
  C134     1.0000 0.59251  0.77801  0.17339  Biso   1.000  C
  C135     1.0000 0.37843  0.65091  0.79238  Biso   1.000  C
  H93      1.0000 0.78530  0.65919  0.09709  Biso   1.000  H
  C136     1.0000 0.86246  0.69019  0.18711  Biso   1.000  C
  C137     1.0000 0.78188  0.74660  0.20690  Biso   1.000  C
  H94      1.0000 0.70759  0.80390  0.08420  Biso   1.000  H
  H95      1.0000 0.60348  0.80599  0.04227  Biso   1.000  H
  H96      1.0000 0.66752  0.77820  0.01060  Biso   1.000  H
  H97      1.0000 0.58792  0.76050  0.21473  Biso   1.000  H
  H98      1.0000 0.53243  0.78661  0.14772  Biso   1.000  H
  H99      1.0000 0.62916  0.79869  0.19677  Biso   1.000  H
  C138     1.0000 0.46378  0.65140  0.84260  Biso   1.000  C
  C139     1.0000 0.37165  0.66571  0.71878  Biso   1.000  C
  C140     1.0000 0.94831  0.67030  0.21349  Biso   1.000  C
  C141     1.0000 0.85931  0.72179  0.22898  Biso   1.000  C
  H100     1.0000 0.77859  0.76821  0.23569  Biso   1.000  H
  C142     1.0000 0.53946  0.66549  0.82329  Biso   1.000  C
  H101     1.0000 0.47004  0.64130  0.89371  Biso   1.000  H
  H102     1.0000 0.31530  0.66560  0.68239  Biso   1.000  H
  C143     1.0000 0.44548  0.68069  0.69682  Biso   1.000  C
  C144     1.0000 0.97941  0.68620  0.29592  Biso   1.000  C
  C145     1.0000 0.93641  0.62901  0.21520  Biso   1.000  C
  C146     1.0000 0.00768  0.68061  0.16250  Biso   1.000  C
  C147     1.0000 0.94021  0.72611  0.29527  Biso   1.000  C
  C148     1.0000 0.52986  0.68210  0.75040  Biso   1.000  C
  H103     1.0000 0.59628  0.66389  0.85867  Biso   1.000  H
  S7       1.0000 0.44679  0.70026  0.60709  Biso   1.000  S
  O15      1.0000 0.94871  0.66820  0.35692  Biso   1.000  O
  H104     1.0000 0.04629  0.68721  0.30987  Biso   1.000  H
  H105     1.0000 0.92409  0.61951  0.16133  Biso   1.000  H
  H106     1.0000 0.88610  0.62320  0.23928  Biso   1.000  H
  H107     1.0000 0.99127  0.61790  0.24599  Biso   1.000  H
  H108     1.0000 0.99221  0.66671  0.11340  Biso   1.000  H
  H109     1.0000 0.06991  0.67559  0.18917  Biso   1.000  H
  H110     1.0000 0.00076  0.70659  0.15049  Biso   1.000  H
  H111     1.0000 0.98241  0.74549  0.28620  Biso   1.000  H
  O16      1.0000 0.91569  0.72871  0.36999  Biso   1.000  O
  C149     1.0000 0.59448  0.69969  0.71307  Biso   1.000  C
  C150     1.0000 0.56058  0.71120  0.63859  Biso   1.000  C
  B8       1.0000 0.91288  0.69470  0.39707  Biso   1.000  B
  C151     1.0000 0.68569  0.70670  0.75458  Biso   1.000  C
  C152     1.0000 0.60547  0.72969  0.58460  Biso   1.000  C
  C153     1.0000 0.88039  0.68699  0.47667  Biso   1.000  C
  C154     1.0000 0.76377  0.69350  0.73980  Biso   1.000  C
  C155     1.0000 0.70546  0.73501  0.81640  Biso   1.000  C
  C156     1.0000 0.71796  0.72619  0.82959  Biso   1.000  C
  H112     1.0000 0.63650  0.75119  0.61050  Biso   1.000  H
  H113     1.0000 0.56120  0.73710  0.53749  Biso   1.000  H
  H114     1.0000 0.64909  0.71329  0.56958  Biso   1.000  H
  C157     1.0000 0.86671  0.71601  0.52071  Biso   1.000  C
  C158     1.0000 0.85851  0.65211  0.49628  Biso   1.000  C
  C159     1.0000 0.77480  0.66799  0.67639  Biso   1.000  C
  C160     1.0000 0.84167  0.71090  0.79208  Biso   1.000  C
  C161     1.0000 0.84099  0.70330  0.80398  Biso   1.000  C
  C162     1.0000 0.80356  0.72871  0.85549  Biso   1.000  C
  F37      1.0000 0.65446  0.73379  0.87027  Biso   1.000  F
  F38      1.0000 0.68855  0.76899  0.78649  Biso   1.000  F
  C163     1.0000 0.81398  0.73851  0.83701  Biso   1.000  C
  F39      1.0000 0.70397  0.71270  0.89800  Biso   1.000  F
  F40      1.0000 0.68795  0.76031  0.81098  Biso   1.000  F
  H115     1.0000 0.87896  0.73949  0.50352  Biso   1.000  H
  C164     1.0000 0.83490  0.71299  0.59119  Biso   1.000  C
  C165     1.0000 0.82316  0.64850  0.56440  Biso   1.000  C
  H116     1.0000 0.86667  0.63169  0.46537  Biso   1.000  H
  C166     1.0000 0.81376  0.67811  0.60991  Biso   1.000  C
  C167     1.0000 0.75718  0.63150  0.67692  Biso   1.000  C
  F41      1.0000 0.89877  0.68609  0.83088  Biso   1.000  F
  F42      1.0000 0.88509  0.73631  0.75888  Biso   1.000  F
  F43      1.0000 0.87293  0.67659  0.85596  Biso   1.000  F
  F44      1.0000 0.91900  0.70740  0.78101  Biso   1.000  F
  F45      1.0000 0.80468  0.70580  0.91690  Biso   1.000  F
  F46      1.0000 0.84526  0.75860  0.88970  Biso   1.000  F
  F47      1.0000 0.85695  0.74101  0.91402  Biso   1.000  F
  F48      1.0000 0.82699  0.76490  0.78802  Biso   1.000  F
  H117     1.0000 0.82865  0.73341  0.62299  Biso   1.000  H
  S8       1.0000 0.78447  0.60884  0.59949  Biso   1.000  S
  C168     1.0000 0.71630  0.61109  0.73462  Biso   1.000  C
  H118     1.0000 0.69254  0.62841  0.76759  Biso   1.000  H
  H119     1.0000 0.76196  0.59589  0.76800  Biso   1.000  H
  H120     1.0000 0.66748  0.59581  0.70600  Biso   1.000  H
  C169     1.0000 0.09250  0.72201  0.67338  Biso   1.000  C
  C170     1.0000 0.13436  0.73971  0.61439  Biso   1.000  C
  H121     1.0000 0.08785  0.73949  0.71472  Biso   1.000  H
  H122     1.0000 0.03236  0.71340  0.64771  Biso   1.000  H
  H123     1.0000 0.12916  0.70129  0.69682  Biso   1.000  H
  C171     1.0000 0.07225  0.76750  0.56110  Biso   1.000  C
  C172     1.0000 0.21737  0.76229  0.64577  Biso   1.000  C
  C173     1.0000 0.15506  0.71020  0.55769  Biso   1.000  C
  O17      1.0000 0.00918  0.78460  0.60167  Biso   1.000  O
  C174     1.0000 0.12965  0.79921  0.54432  Biso   1.000  C
  H124     1.0000 0.03981  0.75580  0.51100  Biso   1.000  H
  C175     1.0000 0.21817  0.79470  0.60827  Biso   1.000  C
  C176     1.0000 0.28187  0.75341  0.70689  Biso   1.000  C
  H125     1.0000 0.20759  0.69611  0.58418  Biso   1.000  H
  H126     1.0000 0.10349  0.69399  0.54232  Biso   1.000  H
  H127     1.0000 0.16745  0.72179  0.51059  Biso   1.000  H
  B9       1.0000 0.01659  0.82079  0.59337  Biso   1.000  B
  O18      1.0000 0.08359  0.83211  0.55899  Biso   1.000  O
  H128     1.0000 0.13995  0.79839  0.48957  Biso   1.000  H
  C177     1.0000 0.28717  0.81870  0.62540  Biso   1.000  C
  C178     1.0000 0.35924  0.77820  0.72897  Biso   1.000  C
  H129     1.0000 0.27858  0.73181  0.73568  Biso   1.000  H
  C179     1.0000 0.95379  0.84780  0.62481  Biso   1.000  C
  H130     1.0000 0.28529  0.84079  0.59708  Biso   1.000  H
  C180     1.0000 0.36245  0.80979  0.68710  Biso   1.000  C
  C181     1.0000 0.44015  0.77391  0.79532  Biso   1.000  C
  C182     1.0000 0.91069  0.83610  0.68351  Biso   1.000  C
  C183     1.0000 0.94036  0.88290  0.59520  Biso   1.000  C
  C184     1.0000 0.44824  0.82969  0.71348  Biso   1.000  C
  C185     1.0000 0.47940  0.81381  0.79591  Biso   1.000  C
  H131     1.0000 0.48234  0.75450  0.78619  Biso   1.000  H
  O19      1.0000 0.41568  0.77130  0.86998  Biso   1.000  O
  H132     1.0000 0.92216  0.81270  0.70618  Biso   1.000  H
  C186     1.0000 0.85115  0.85931  0.70777  Biso   1.000  C
  C187     1.0000 0.87864  0.90529  0.61757  Biso   1.000  C
  H133     1.0000 0.97399  0.89139  0.55922  Biso   1.000  H
  C188     1.0000 0.50767  0.81940  0.66249  Biso   1.000  C
  C189     1.0000 0.43640  0.87101  0.71519  Biso   1.000  C
  H134     1.0000 0.54629  0.81281  0.80992  Biso   1.000  H
  O20      1.0000 0.44870  0.83181  0.85691  Biso   1.000  O
  B10      1.0000 0.41288  0.80529  0.89712  Biso   1.000  B
  C190     1.0000 0.83460  0.89449  0.67668  Biso   1.000  C
  S9       1.0000 0.79419  0.85141  0.78148  Biso   1.000  S
  H135     1.0000 0.86565  0.92831  0.59302  Biso   1.000  H
  H136     1.0000 0.49220  0.83330  0.61339  Biso   1.000  H
  H137     1.0000 0.56985  0.82440  0.68922  Biso   1.000  H
  H138     1.0000 0.50075  0.79340  0.65048  Biso   1.000  H
  H139     1.0000 0.42408  0.88051  0.66131  Biso   1.000  H
  H140     1.0000 0.38609  0.87679  0.73927  Biso   1.000  H
  H141     1.0000 0.49126  0.88211  0.74598  Biso   1.000  H
  C191     1.0000 0.38038  0.81300  0.97666  Biso   1.000  C
  C192     1.0000 0.76889  0.91270  0.71230  Biso   1.000  C
  C193     1.0000 0.74469  0.89340  0.77042  Biso   1.000  C
  C194     1.0000 0.35843  0.84791  0.99627  Biso   1.000  C
  C195     1.0000 0.36663  0.78401  0.02070  Biso   1.000  C
  C196     1.0000 0.72620  0.94910  0.67957  Biso   1.000  C
  C197     1.0000 0.68167  0.90499  0.81681  Biso   1.000  C
  H142     1.0000 0.36668  0.86829  0.96542  Biso   1.000  H
  C198     1.0000 0.32315  0.85149  0.06439  Biso   1.000  C
  H143     1.0000 0.37895  0.76050  0.00351  Biso   1.000  H
  C199     1.0000 0.33482  0.78699  0.09118  Biso   1.000  C
  C200     1.0000 0.72699  0.98021  0.72078  Biso   1.000  C
  C201     1.0000 0.67150  0.95231  0.59879  Biso   1.000  C
  C202     1.0000 0.65098  0.94799  0.60997  Biso   1.000  C
  H144     1.0000 0.63268  0.91859  0.78319  Biso   1.000  H
  H145     1.0000 0.65749  0.88371  0.83842  Biso   1.000  H
  H146     1.0000 0.71253  0.92060  0.85997  Biso   1.000  H
  C203     1.0000 0.31375  0.82190  0.10990  Biso   1.000  C
  S10      1.0000 0.28446  0.89115  0.09948  Biso   1.000  S
  H147     1.0000 0.32864  0.76661  0.12298  Biso   1.000  H
  C204     1.0000 0.78023  0.98971  0.80197  Biso   1.000  C
  C205     1.0000 0.67615  0.00801  0.66838  Biso   1.000  C
  C206     1.0000 0.66594  0.00801  0.67698  Biso   1.000  C
  C207     1.0000 0.61765  0.98689  0.60161  Biso   1.000  C
  F49      1.0000 0.61419  0.92481  0.57247  Biso   1.000  F
  F50      1.0000 0.71908  0.95670  0.54332  Biso   1.000  F
  C208     1.0000 0.64500  0.98901  0.59702  Biso   1.000  C
  F51      1.0000 0.61000  0.91699  0.62098  Biso   1.000  F
  F52      1.0000 0.68799  0.93301  0.55398  Biso   1.000  F
  F53      1.0000 0.56201  0.97500  0.59101  Biso   1.000  F
  C209     1.0000 0.27472  0.83200  0.17638  Biso   1.000  C
  C210     1.0000 0.25717  0.86851  0.17691  Biso   1.000  C
  C211     1.0000 0.74278  0.99910  0.86697  Biso   1.000  C
  C212     1.0000 0.86825  0.98990  0.81716  Biso   1.000  C
  F54      1.0000 0.62935  0.02959  0.70647  Biso   1.000  F
  F55      1.0000 0.73098  0.03241  0.64512  Biso   1.000  F
  F56      1.0000 0.58497  0.00600  0.69399  Biso   1.000  F
  F57      1.0000 0.71096  0.02199  0.62399  Biso   1.000  F
  F58      1.0000 0.53839  0.98059  0.62098  Biso   1.000  F
  F59      1.0000 0.59691  0.00529  0.53290  Biso   1.000  F
  F60      1.0000 0.70698  0.99699  0.55598  Biso   1.000  F
  C213     1.0000 0.26376  0.80651  0.23979  Biso   1.000  C
  C214     1.0000 0.21629  0.88889  0.23461  Biso   1.000  C
  C215     1.0000 0.65533  0.99989  0.87139  Biso   1.000  C
  C216     1.0000 0.81393  0.00820  0.93268  Biso   1.000  C
  C217     1.0000 0.93074  0.97869  0.76359  Biso   1.000  C
  S11      1.0000 0.91637  0.00383  0.91231  Biso   1.000  S
  C218     1.0000 0.34166  0.78911  0.29207  Biso   1.000  C
  C219     1.0000 0.18561  0.79329  0.25457  Biso   1.000  C
  C220     1.0000 0.34092  0.79671  0.30397  Biso   1.000  C
  H148     1.0000 0.19253  0.87160  0.26758  Biso   1.000  H
  H149     1.0000 0.26195  0.90410  0.26799  Biso   1.000  H
  H150     1.0000 0.16747  0.90420  0.20599  Biso   1.000  H
  H151     1.0000 0.60927  0.99389  0.82700  Biso   1.000  H
  C221     1.0000 0.63395  0.01010  0.94587  Biso   1.000  C
  C222     1.0000 0.79204  0.01819  0.00110  Biso   1.000  C
  H152     1.0000 0.91359  0.95469  0.74139  Biso   1.000  H
  H153     1.0000 0.92588  0.99639  0.72078  Biso   1.000  H
  H154     1.0000 0.99265  0.97801  0.79438  Biso   1.000  H
  F61      1.0000 0.39877  0.81389  0.33087  Biso   1.000  F
  F62      1.0000 0.38501  0.76370  0.25887  Biso   1.000  F
  C223     1.0000 0.30355  0.77130  0.35548  Biso   1.000  C
  C224     1.0000 0.31397  0.76150  0.33700  Biso   1.000  C
  F63      1.0000 0.37294  0.82339  0.35601  Biso   1.000  F
  F64      1.0000 0.41893  0.79261  0.28100  Biso   1.000  F
  C225     1.0000 0.09448  0.80029  0.21312  Biso   1.000  C
  C226     1.0000 0.20545  0.76500  0.31639  Biso   1.000  C
  C227     1.0000 0.21795  0.77380  0.32958  Biso   1.000  C
  H155     1.0000 0.57375  0.01040  0.95146  Biso   1.000  H
  C228     1.0000 0.70548  0.01941  0.00952  Biso   1.000  C
  H156     1.0000 0.83877  0.02451  0.04479  Biso   1.000  H
  F65      1.0000 0.30467  0.79421  0.41689  Biso   1.000  F
  F66      1.0000 0.34525  0.74139  0.38969  Biso   1.000  F
  F67      1.0000 0.35694  0.75901  0.41401  Biso   1.000  F
  F68      1.0000 0.32698  0.73509  0.28801  Biso   1.000  F
  C229     1.0000 0.06057  0.78881  0.13858  Biso   1.000  C
  C230     1.0000 0.02985  0.81791  0.25039  Biso   1.000  C
  F69      1.0000 0.15445  0.76620  0.37026  Biso   1.000  F
  F70      1.0000 0.18854  0.73099  0.28648  Biso   1.000  F
  F71      1.0000 0.20396  0.78729  0.39799  Biso   1.000  F
  F72      1.0000 0.18794  0.73971  0.31097  Biso   1.000  F
  B11      1.0000 0.67735  0.02970  0.08800  Biso   1.000  B
  S12      1.0000 0.94678  0.79975  0.10708  Biso   1.000  S
  C231     1.0000 0.10546  0.77030  0.08459  Biso   1.000  C
  C232     1.0000 0.94547  0.81929  0.19681  Biso   1.000  C
  C233     1.0000 0.03945  0.83450  0.32328  Biso   1.000  C
  O21      1.0000 0.74305  0.04400  0.15077  Biso   1.000  O
  O22      1.0000 0.59906  0.02400  0.10631  Biso   1.000  O
  H157     1.0000 0.13642  0.74880  0.11049  Biso   1.000  H
  H158     1.0000 0.06112  0.76289  0.03748  Biso   1.000  H
  H159     1.0000 0.14908  0.78669  0.06957  Biso   1.000  H
  C234     1.0000 0.87164  0.83431  0.21877  Biso   1.000  C
  C235     1.0000 0.96377  0.84861  0.34259  Biso   1.000  C
  H160     1.0000 0.09627  0.83610  0.35866  Biso   1.000  H
  C236     1.0000 0.69767  0.05130  0.21359  Biso   1.000  C
  C237     1.0000 0.61118  0.03029  0.18880  Biso   1.000  C
  C238     1.0000 0.87842  0.84910  0.29237  Biso   1.000  C
  H161     1.0000 0.81522  0.83439  0.18238  Biso   1.000  H
  H162     1.0000 0.97003  0.85871  0.39370  Biso   1.000  H
  C239     1.0000 0.74888  0.03570  0.29402  Biso   1.000  C
  H163     1.0000 0.68586  0.07791  0.21771  Biso   1.000  H
  C240     1.0000 0.62874  0.99449  0.23661  Biso   1.000  C
  H164     1.0000 0.55957  0.04400  0.20087  Biso   1.000  H
  B12      1.0000 0.79712  0.86650  0.32010  Biso   1.000  B
  C241     1.0000 0.70958  0.99900  0.29089  Biso   1.000  C
  C242     1.0000 0.85058  0.03480  0.30320  Biso   1.000  C
  C243     1.0000 0.72972  0.05920  0.36161  Biso   1.000  C
  C244     1.0000 0.58403  0.96341  0.22536  Biso   1.000  C
  O23      1.0000 0.80342  0.89031  0.37797  Biso   1.000  O
  O24      1.0000 0.71277  0.85931  0.27888  Biso   1.000  O
  C245     1.0000 0.73817  0.96900  0.34359  Biso   1.000  C
  H165     1.0000 0.86712  0.01289  0.27776  Biso   1.000  H
  H166     1.0000 0.86964  0.05630  0.27841  Biso   1.000  H
  H167     1.0000 0.87985  0.03450  0.35931  Biso   1.000  H
  H168     1.0000 0.76534  0.05030  0.41189  Biso   1.000  H
  H169     1.0000 0.74586  0.08450  0.35401  Biso   1.000  H
  H170     1.0000 0.66593  0.05779  0.36178  Biso   1.000  H
  H171     1.0000 0.53246  0.96140  0.18368  Biso   1.000  H
  C246     1.0000 0.61188  0.93371  0.27411  Biso   1.000  C
  C247     1.0000 0.71405  0.90209  0.37591  Biso   1.000  C
  C248     1.0000 0.65273  0.87530  0.32287  Biso   1.000  C
  C249     1.0000 0.69316  0.93789  0.33346  Biso   1.000  C
  H172     1.0000 0.78936  0.97139  0.38557  Biso   1.000  H
  C250     1.0000 0.57712  0.89639  0.27270  Biso   1.000  C
  H173     1.0000 0.70166  0.90301  0.42990  Biso   1.000  H
  H174     1.0000 0.62966  0.85651  0.35472  Biso   1.000  H
  C251     1.0000 0.49876  0.89799  0.31910  Biso   1.000  C
  C252     1.0000 0.54418  0.87999  0.18968  Biso   1.000  C
  H175     1.0000 0.46086  0.91919  0.30179  Biso   1.000  H
  H176     1.0000 0.46234  0.87589  0.30838  Biso   1.000  H
  H177     1.0000 0.52466  0.89981  0.37580  Biso   1.000  H
  H178     1.0000 0.56393  0.89541  0.15100  Biso   1.000  H
  H179     1.0000 0.56895  0.85559  0.18827  Biso   1.000  H
  H180     1.0000 0.47856  0.87880  0.17708  Biso   1.000  H
  C253     1.0000 0.90748  0.27799  0.32659  Biso   1.000  C
  C254     1.0000 0.86556  0.26029  0.38559  Biso   1.000  C
  H181     1.0000 0.91208  0.26051  0.28532  Biso   1.000  H
  H182     1.0000 0.96757  0.28660  0.35232  Biso   1.000  H
  H183     1.0000 0.87077  0.29871  0.30322  Biso   1.000  H
  C255     1.0000 0.92766  0.23250  0.43887  Biso   1.000  C
  C256     1.0000 0.78261  0.23771  0.35421  Biso   1.000  C
  C257     1.0000 0.84485  0.28980  0.44229  Biso   1.000  C
  O25      1.0000 0.99080  0.21540  0.39831  Biso   1.000  O
  C258     1.0000 0.87028  0.20079  0.45571  Biso   1.000  C
  H184     1.0000 0.96017  0.24420  0.48898  Biso   1.000  H
  C259     1.0000 0.78181  0.20530  0.39171  Biso   1.000  C
  C260     1.0000 0.71811  0.24659  0.29309  Biso   1.000  C
  H185     1.0000 0.79240  0.30389  0.41579  Biso   1.000  H
  H186     1.0000 0.89651  0.30601  0.45772  Biso   1.000  H
  H187     1.0000 0.83247  0.27821  0.48939  Biso   1.000  H
  B13      1.0000 0.98339  0.17921  0.40661  Biso   1.000  B
  O26      1.0000 0.91639  0.16789  0.44099  Biso   1.000  O
  H188     1.0000 0.85996  0.20161  0.51041  Biso   1.000  H
  C261     1.0000 0.71281  0.18130  0.37458  Biso   1.000  C
  C262     1.0000 0.64068  0.22180  0.27101  Biso   1.000  C
  H189     1.0000 0.72140  0.26819  0.26430  Biso   1.000  H
  C263     1.0000 0.04619  0.15220  0.37517  Biso   1.000  C
  H190     1.0000 0.71469  0.15921  0.40290  Biso   1.000  H
  C264     1.0000 0.63746  0.19021  0.31288  Biso   1.000  C
  C265     1.0000 0.55978  0.22609  0.20472  Biso   1.000  C
  C266     1.0000 0.08931  0.16390  0.31653  Biso   1.000  C
  C267     1.0000 0.05956  0.11710  0.40478  Biso   1.000  C
  C268     1.0000 0.55168  0.17031  0.28650  Biso   1.000  C
  C269     1.0000 0.52058  0.18619  0.20407  Biso   1.000  C
  H191     1.0000 0.51758  0.24550  0.21379  Biso   1.000  H
  O27      1.0000 0.58430  0.22870  0.13000  Biso   1.000  O
  C270     1.0000 0.14876  0.14069  0.29221  Biso   1.000  C
  H192     1.0000 0.07776  0.18730  0.29380  Biso   1.000  H
  C271     1.0000 0.12127  0.09471  0.38241  Biso   1.000  C
  H193     1.0000 0.02600  0.10861  0.44082  Biso   1.000  H
  C272     1.0000 0.49231  0.18060  0.33749  Biso   1.000  C
  C273     1.0000 0.56358  0.12899  0.28479  Biso   1.000  C
  H194     1.0000 0.45370  0.18719  0.19012  Biso   1.000  H
  O28      1.0000 0.55128  0.16819  0.14307  Biso   1.000  O
  B14      1.0000 0.58711  0.19471  0.10292  Biso   1.000  B
  S13      1.0000 0.20579  0.14859  0.21850  Biso   1.000  S
  C274     1.0000 0.16538  0.10551  0.32330  Biso   1.000  C
  H195     1.0000 0.13428  0.07169  0.40702  Biso   1.000  H
  H196     1.0000 0.50778  0.16670  0.38659  Biso   1.000  H
  H197     1.0000 0.43008  0.17560  0.31082  Biso   1.000  H
  H198     1.0000 0.49916  0.20660  0.34950  Biso   1.000  H
  H199     1.0000 0.57591  0.11949  0.33872  Biso   1.000  H
  H200     1.0000 0.61389  0.12321  0.26071  Biso   1.000  H
  H201     1.0000 0.50872  0.11789  0.25400  Biso   1.000  H
  C275     1.0000 0.61960  0.18700  0.02332  Biso   1.000  C
  C276     1.0000 0.25530  0.10660  0.22962  Biso   1.000  C
  C277     1.0000 0.23109  0.08730  0.28768  Biso   1.000  C
  C278     1.0000 0.63329  0.21599  0.97928  Biso   1.000  C
  C279     1.0000 0.64148  0.15209  0.00371  Biso   1.000  C
  C280     1.0000 0.31833  0.09501  0.18323  Biso   1.000  C
  C281     1.0000 0.27378  0.05090  0.32041  Biso   1.000  C
  H202     1.0000 0.62098  0.23950  0.99653  Biso   1.000  H
  C282     1.0000 0.66509  0.21301  0.90880  Biso   1.000  C
  C283     1.0000 0.67683  0.14851  0.93559  Biso   1.000  C
  H203     1.0000 0.63332  0.13171  0.03462  Biso   1.000  H
  H204     1.0000 0.36730  0.08141  0.21679  Biso   1.000  H
  H205     1.0000 0.34251  0.11629  0.16162  Biso   1.000  H
  H206     1.0000 0.28738  0.07940  0.14001  Biso   1.000  H
  C284     1.0000 0.27299  0.01979  0.27920  Biso   1.000  C
  C285     1.0000 0.32848  0.04769  0.40119  Biso   1.000  C
  C286     1.0000 0.34900  0.05201  0.39001  Biso   1.000  C
  H207     1.0000 0.67134  0.23339  0.87700  Biso   1.000  H
  C287     1.0000 0.68623  0.17810  0.89008  Biso   1.000  C
  S14      1.0000 0.71552  0.10885  0.90050  Biso   1.000  S
  C288     1.0000 0.21968  0.01029  0.19801  Biso   1.000  C
  C289     1.0000 0.32377  0.99199  0.33160  Biso   1.000  C
  C290     1.0000 0.33398  0.99199  0.32300  Biso   1.000  C
  C291     1.0000 0.38228  0.01311  0.39843  Biso   1.000  C
  F73      1.0000 0.38579  0.07519  0.42751  Biso   1.000  F
  F74      1.0000 0.28091  0.04330  0.45671  Biso   1.000  F
  C292     1.0000 0.35499  0.01099  0.40302  Biso   1.000  C
  F75      1.0000 0.38998  0.08301  0.37900  Biso   1.000  F
  F76      1.0000 0.31199  0.06699  0.44600  Biso   1.000  F
  F77      1.0000 0.43799  0.02500  0.40902  Biso   1.000  F
  C293     1.0000 0.72519  0.16800  0.82360  Biso   1.000  C
  C294     1.0000 0.74281  0.13149  0.82307  Biso   1.000  C
  C295     1.0000 0.25720  0.00090  0.13300  Biso   1.000  C
  C296     1.0000 0.13167  0.01010  0.18282  Biso   1.000  C
  F78      1.0000 0.37057  0.97041  0.29351  Biso   1.000  F
  F79      1.0000 0.26902  0.96759  0.35492  Biso   1.000  F
  F80      1.0000 0.41501  0.99400  0.30599  Biso   1.000  F
  F81      1.0000 0.28896  0.97801  0.37599  Biso   1.000  F
  F82      1.0000 0.46159  0.01941  0.37900  Biso   1.000  F
  F83      1.0000 0.40307  0.99471  0.46708  Biso   1.000  F
  F84      1.0000 0.29300  0.00301  0.44400  Biso   1.000  F
  C297     1.0000 0.73622  0.19349  0.76019  Biso   1.000  C
  C298     1.0000 0.78371  0.11111  0.76543  Biso   1.000  C
  C299     1.0000 0.34458  0.00011  0.12859  Biso   1.000  C
  C300     1.0000 0.18598  0.99180  0.06730  Biso   1.000  C
  C301     1.0000 0.06917  0.02131  0.23639  Biso   1.000  C
  S15      1.0000 0.08363  0.99617  0.08773  Biso   1.000  S
  C302     1.0000 0.65832  0.21089  0.70791  Biso   1.000  C
  C303     1.0000 0.81430  0.20671  0.74541  Biso   1.000  C
  C304     1.0000 0.65900  0.20329  0.69601  Biso   1.000  C
  H208     1.0000 0.80739  0.12840  0.73240  Biso   1.000  H
  H209     1.0000 0.73803  0.09590  0.73199  Biso   1.000  H
  H210     1.0000 0.83251  0.09580  0.79399  Biso   1.000  H
  H211     1.0000 0.39071  0.00611  0.17298  Biso   1.000  H
  C305     1.0000 0.36597  0.98990  0.05411  Biso   1.000  C
  C306     1.0000 0.20787  0.98181  0.99888  Biso   1.000  C
  H212     1.0000 0.08639  0.04531  0.25859  Biso   1.000  H
  H213     1.0000 0.07410  0.00361  0.27920  Biso   1.000  H
  H214     1.0000 0.00726  0.02199  0.20560  Biso   1.000  H
  F85      1.0000 0.60122  0.18611  0.66911  Biso   1.000  F
  F86      1.0000 0.61490  0.23630  0.74111  Biso   1.000  F
  C307     1.0000 0.69643  0.22870  0.64450  Biso   1.000  C
  C308     1.0000 0.68601  0.23850  0.66298  Biso   1.000  C
  F87      1.0000 0.62699  0.17661  0.64403  Biso   1.000  F
  F88      1.0000 0.58099  0.20739  0.71898  Biso   1.000  F
  C309     1.0000 0.90551  0.19971  0.78692  Biso   1.000  C
  C310     1.0000 0.79454  0.23500  0.68359  Biso   1.000  C
  C311     1.0000 0.78203  0.22620  0.67040  Biso   1.000  C
  C312     1.0000 0.29451  0.98059  0.99052  Biso   1.000  C
  H215     1.0000 0.42623  0.98960  0.04852  Biso   1.000  H
  H216     1.0000 0.16121  0.97549  0.95519  Biso   1.000  H
  F89      1.0000 0.69531  0.20579  0.58309  Biso   1.000  F
  F90      1.0000 0.65473  0.25861  0.61029  Biso   1.000  F
  F91      1.0000 0.64299  0.24099  0.58603  Biso   1.000  F
  F92      1.0000 0.67301  0.26491  0.71203  Biso   1.000  F
  C313     1.0000 0.93941  0.21119  0.86140  Biso   1.000  C
  C314     1.0000 0.97013  0.18209  0.74959  Biso   1.000  C
  F93      1.0000 0.84553  0.23380  0.62972  Biso   1.000  F
  F94      1.0000 0.81144  0.26901  0.71350  Biso   1.000  F
  F95      1.0000 0.79602  0.21271  0.60199  Biso   1.000  F
  F96      1.0000 0.81204  0.26029  0.68901  Biso   1.000  F
  B15      1.0000 0.32263  0.97030  0.91198  Biso   1.000  B
  C315     1.0000 0.89452  0.22970  0.91539  Biso   1.000  C
  S16      1.0000 0.05320  0.20025  0.89290  Biso   1.000  S
  C316     1.0000 0.96053  0.16550  0.67670  Biso   1.000  C
  C317     1.0000 0.05452  0.18071  0.80323  Biso   1.000  C
  O29      1.0000 0.25693  0.95600  0.84921  Biso   1.000  O
  O30      1.0000 0.40093  0.97600  0.89373  Biso   1.000  O
  H217     1.0000 0.86349  0.25120  0.88949  Biso   1.000  H
  H218     1.0000 0.93879  0.23711  0.96249  Biso   1.000  H
  H219     1.0000 0.85090  0.21331  0.93041  Biso   1.000  H
  C318     1.0000 0.03621  0.15139  0.65739  Biso   1.000  C
  H220     1.0000 0.90371  0.16390  0.64132  Biso   1.000  H
  C319     1.0000 0.12834  0.16569  0.78121  Biso   1.000  C
  C320     1.0000 0.30231  0.94870  0.78639  Biso   1.000  C
  C321     1.0000 0.38880  0.96971  0.81118  Biso   1.000  C
  C322     1.0000 0.12149  0.15090  0.70761  Biso   1.000  C
  H221     1.0000 0.02989  0.14129  0.60628  Biso   1.000  H
  H222     1.0000 0.18469  0.16561  0.81760  Biso   1.000  H
  C323     1.0000 0.25111  0.96430  0.70602  Biso   1.000  C
  H223     1.0000 0.31413  0.92209  0.78233  Biso   1.000  H
  H224     1.0000 0.44042  0.95600  0.79911  Biso   1.000  H
  C324     1.0000 0.37119  0.00551  0.76343  Biso   1.000  C
  B16      1.0000 0.20279  0.13350  0.67988  Biso   1.000  B
  C325     1.0000 0.14940  0.96520  0.69678  Biso   1.000  C
  C326     1.0000 0.27021  0.94080  0.63843  Biso   1.000  C
  C327     1.0000 0.29041  0.00100  0.70909  Biso   1.000  C
  C328     1.0000 0.41588  0.03659  0.77462  Biso   1.000  C
  O31      1.0000 0.19650  0.10969  0.62200  Biso   1.000  O
  O32      1.0000 0.28721  0.14069  0.72110  Biso   1.000  O
  H225     1.0000 0.13279  0.98711  0.72221  Biso   1.000  H
  H226     1.0000 0.13029  0.94370  0.72163  Biso   1.000  H
  H227     1.0000 0.12014  0.96550  0.64073  Biso   1.000  H
  H228     1.0000 0.23464  0.94970  0.58809  Biso   1.000  H
  H229     1.0000 0.25413  0.91550  0.64603  Biso   1.000  H
  H230     1.0000 0.33399  0.94221  0.63820  Biso   1.000  H
  C329     1.0000 0.26181  0.03100  0.65639  Biso   1.000  C
  H231     1.0000 0.46752  0.03860  0.81630  Biso   1.000  H
  C330     1.0000 0.38811  0.06629  0.72592  Biso   1.000  C
  C331     1.0000 0.28594  0.09791  0.62412  Biso   1.000  C
  C332     1.0000 0.34719  0.12470  0.67711  Biso   1.000  C
  C333     1.0000 0.30682  0.06211  0.66652  Biso   1.000  C
  H232     1.0000 0.21062  0.02861  0.61441  Biso   1.000  H
  C334     1.0000 0.42279  0.10361  0.72728  Biso   1.000  C
  H233     1.0000 0.29832  0.09699  0.57007  Biso   1.000  H
  H234     1.0000 0.37034  0.14349  0.64532  Biso   1.000  H
  C335     1.0000 0.50122  0.10201  0.68088  Biso   1.000  C
  C336     1.0000 0.45580  0.12001  0.81030  Biso   1.000  C
  H235     1.0000 0.53913  0.08081  0.69819  Biso   1.000  H
  H236     1.0000 0.53764  0.12411  0.69160  Biso   1.000  H
  H237     1.0000 0.47532  0.10019  0.62418  Biso   1.000  H
  H238     1.0000 0.43598  0.10459  0.84898  Biso   1.000  H
  H239     1.0000 0.43103  0.14441  0.81171  Biso   1.000  H
  H240     1.0000 0.52142  0.12120  0.82290  Biso   1.000  H
  Ne1      1.0000 0.52352  0.37937  0.52549  Biso   1.000  Ne
  He1      1.0000 0.00000  0.00000  0.00000  Biso   1.000  He
  He2      1.0000 0.42314  0.29256  0.63730  Biso   1.000  He
  Ar1      1.0000 0.49516  0.39289  0.52752  Biso   1.000  Ar
  Ne2      1.0000 0.02355  0.12063  0.02549  Biso   1.000  Ne
  He3      1.0000 0.90241  0.10984  0.13175  Biso   1.000  He
  He4      1.0000 0.93605  0.21237  0.13825  Biso   1.000  He
  Ar2      1.0000 0.99517  0.10712  0.02753  Biso   1.000  Ar
  Ne3      1.0000 0.47644  0.62063  0.47450  Biso   1.000  Ne
  He5      1.0000 0.59520  0.61000  0.36984  Biso   1.000  He
  He6      1.0000 0.60198  0.67312  0.38476  Biso   1.000  He
  Ar3      1.0000 0.50693  0.60682  0.46919  Biso   1.000  Ar
  Ne4      1.0000 0.97642  0.87937  0.97450  Biso   1.000  Ne
  He7      1.0000 0.09574  0.89004  0.86945  Biso   1.000  He
  He8      1.0000 0.00000  0.00000  0.00000  Biso   1.000  He
  Ar4      1.0000 0.00480  0.89288  0.97245  Biso   1.000  Ar
