data_image0
_cell_length_a       26.903
_cell_length_b       16.37
_cell_length_c       19.153
_cell_angle_alpha    90
_cell_angle_beta     90.7
_cell_angle_gamma    90

_symmetry_space_group_name_H-M    "P 1"
_symmetry_int_tables_number       1

loop_
  _symmetry_equiv_pos_as_xyz
  'x, y, z'

loop_
  _atom_site_label
  _atom_site_occupancy
  _atom_site_fract_x
  _atom_site_fract_y
  _atom_site_fract_z
  _atom_site_thermal_displace_type
  _atom_site_B_iso_or_equiv
  _atom_site_type_symbol
  N1       1.0000 0.35942  0.51106  0.57912  Biso   1.000  N
  C1       1.0000 0.32250  0.54679  0.53103  Biso   1.000  C
  C2       1.0000 0.34891  0.42468  0.59290  Biso   1.000  C
  H1       1.0000 0.39400  0.52297  0.57202  Biso   1.000  H
  C3       1.0000 0.32356  0.63861  0.52930  Biso   1.000  C
  H2       1.0000 0.28713  0.52761  0.54580  Biso   1.000  H
  H3       1.0000 0.32883  0.52462  0.48080  Biso   1.000  H
  H4       1.0000 0.34443  0.39328  0.54398  Biso   1.000  H
  H5       1.0000 0.31451  0.42010  0.62037  Biso   1.000  H
  C4       1.0000 0.38938  0.38338  0.63499  Biso   1.000  C
  C5       1.0000 0.34880  0.68119  0.47798  Biso   1.000  C
  C6       1.0000 0.29537  0.68198  0.57896  Biso   1.000  C
  C7       1.0000 0.40142  0.40562  0.70287  Biso   1.000  C
  C8       1.0000 0.41482  0.31930  0.60637  Biso   1.000  C
  C9       1.0000 0.34610  0.76707  0.47490  Biso   1.000  C
  C10      1.0000 0.37922  0.63592  0.42378  Biso   1.000  C
  C11      1.0000 0.29181  0.76591  0.57536  Biso   1.000  C
  C12      1.0000 0.26847  0.63537  0.63525  Biso   1.000  C
  H6       1.0000 0.38480  0.44887  0.72370  Biso   1.000  H
  C13      1.0000 0.43769  0.36432  0.73999  Biso   1.000  C
  C14      1.0000 0.45109  0.27789  0.64360  Biso   1.000  C
  H7       1.0000 0.40740  0.30342  0.56089  Biso   1.000  H
  C15      1.0000 0.31877  0.80990  0.52466  Biso   1.000  C
  C16      1.0000 0.37227  0.81087  0.41568  Biso   1.000  C
  H8       1.0000 0.38863  0.58332  0.44179  Biso   1.000  H
  H9       1.0000 0.40850  0.66677  0.41349  Biso   1.000  H
  H10      1.0000 0.35971  0.62908  0.38190  Biso   1.000  H
  C17      1.0000 0.25853  0.81051  0.62528  Biso   1.000  C
  H11      1.0000 0.26212  0.67111  0.67389  Biso   1.000  H
  H12      1.0000 0.28871  0.59047  0.65081  Biso   1.000  H
  H13      1.0000 0.23753  0.61497  0.61682  Biso   1.000  H
  H14      1.0000 0.44511  0.38027  0.78547  Biso   1.000  H
  C18      1.0000 0.46320  0.30000  0.71138  Biso   1.000  C
  H15      1.0000 0.46763  0.23451  0.62272  Biso   1.000  H
  C19      1.0000 0.31651  0.90189  0.52591  Biso   1.000  C
  H16      1.0000 0.36392  0.77819  0.36571  Biso   1.000  H
  H17      1.0000 0.35692  0.87410  0.41098  Biso   1.000  H
  N2       1.0000 0.42607  0.81582  0.42519  Biso   1.000  N
  H18      1.0000 0.24843  0.86237  0.60449  Biso   1.000  H
  H19      1.0000 0.22860  0.77801  0.63279  Biso   1.000  H
  N3       1.0000 0.28313  0.82621  0.69289  Biso   1.000  N
  N4       1.0000 0.50004  0.25577  0.74996  Biso   1.000  N
  H20      1.0000 0.34550  0.92382  0.50388  Biso   1.000  H
  H21      1.0000 0.31532  0.92046  0.57327  Biso   1.000  H
  H22      1.0000 0.28730  0.91991  0.50111  Biso   1.000  H
  C20      1.0000 0.44098  0.88100  0.47307  Biso   1.000  C
  H23      1.0000 0.43772  0.83500  0.38420  Biso   1.000  H
  C21      1.0000 0.24855  0.85211  0.74631  Biso   1.000  C
  H24      1.0000 0.30803  0.85797  0.70501  Biso   1.000  H
  C22      1.0000 0.53684  0.30000  0.78860  Biso   1.000  C
  C23      1.0000 0.50004  0.16988  0.74996  Biso   1.000  C
  H25      1.0000 0.42512  0.86958  0.52539  Biso   1.000  H
  H26      1.0000 0.42650  0.94038  0.45370  Biso   1.000  H
  C24      1.0000 0.49660  0.88412  0.47850  Biso   1.000  C
  H27      1.0000 0.21984  0.81100  0.74902  Biso   1.000  H
  H28      1.0000 0.23382  0.90788  0.73299  Biso   1.000  H
  C25      1.0000 0.27406  0.85822  0.81649  Biso   1.000  C
  C26      1.0000 0.56235  0.36432  0.75999  Biso   1.000  C
  C27      1.0000 0.54895  0.27789  0.85638  Biso   1.000  C
  C28      1.0000 0.45554  0.12700  0.74996  Biso   1.000  C
  C29      1.0000 0.54449  0.12700  0.74996  Biso   1.000  C
  C30      1.0000 0.52217  0.83421  0.52570  Biso   1.000  C
  C31      1.0000 0.52462  0.93372  0.43547  Biso   1.000  C
  C32      1.0000 0.30675  0.92187  0.83090  Biso   1.000  C
  C33      1.0000 0.26681  0.79988  0.86729  Biso   1.000  C
  C34      1.0000 0.59861  0.40562  0.79706  Biso   1.000  C
  H29      1.0000 0.55493  0.38027  0.71451  Biso   1.000  H
  H30      1.0000 0.53244  0.23451  0.87726  Biso   1.000  H
  C35      1.0000 0.58522  0.31930  0.89361  Biso   1.000  C
  H31      1.0000 0.42544  0.15492  0.74996  Biso   1.000  H
  C36      1.0000 0.45621  0.04111  0.74981  Biso   1.000  C
  H32      1.0000 0.57464  0.15492  0.74996  Biso   1.000  H
  C37      1.0000 0.54383  0.04111  0.75017  Biso   1.000  C
  H33      1.0000 0.50422  0.80159  0.55619  Biso   1.000  H
  C38      1.0000 0.57360  0.83170  0.52857  Biso   1.000  C
  C39      1.0000 0.57598  0.93348  0.43850  Biso   1.000  C
  H34      1.0000 0.50851  0.96799  0.40378  Biso   1.000  H
  H35      1.0000 0.31244  0.96127  0.79691  Biso   1.000  H
  C40      1.0000 0.33121  0.92798  0.89533  Biso   1.000  C
  C41      1.0000 0.29142  0.80519  0.93146  Biso   1.000  C
  H36      1.0000 0.24521  0.75657  0.85857  Biso   1.000  H
  C42      1.0000 0.61065  0.38338  0.86499  Biso   1.000  C
  H37      1.0000 0.61523  0.44887  0.77628  Biso   1.000  H
  H38      1.0000 0.59264  0.30342  0.93909  Biso   1.000  H
  H39      1.0000 0.42632  0.01258  0.74960  Biso   1.000  H
  C43      1.0000 0.50004  0.99841  0.74996  Biso   1.000  C
  H40      1.0000 0.57371  0.01258  0.75038  Biso   1.000  H
  H41      1.0000 0.58982  0.79719  0.56011  Biso   1.000  H
  C44      1.0000 0.60113  0.88167  0.48377  Biso   1.000  C
  H42      1.0000 0.59380  0.96848  0.40989  Biso   1.000  H
  H43      1.0000 0.35292  0.97098  0.90421  Biso   1.000  H
  C45      1.0000 0.32269  0.86897  0.94619  Biso   1.000  C
  H44      1.0000 0.28654  0.76481  0.96488  Biso   1.000  H
  C46      1.0000 0.65113  0.42468  0.90708  Biso   1.000  C
  H45      1.0000 0.50004  0.94148  0.74996  Biso   1.000  H
  N5       1.0000 0.65393  0.87660  0.48638  Biso   1.000  N
  N6       1.0000 0.34606  0.87660  0.01365  Biso   1.000  N
  H46      1.0000 0.65564  0.39328  0.95601  Biso   1.000  H
  H47      1.0000 0.68553  0.42010  0.87956  Biso   1.000  H
  N7       1.0000 0.64062  0.51106  0.92086  Biso   1.000  N
  C47      1.0000 0.67734  0.86897  0.55379  Biso   1.000  C
  C48      1.0000 0.68382  0.88571  0.42701  Biso   1.000  C
  C49      1.0000 0.39891  0.88167  0.01626  Biso   1.000  C
  C50      1.0000 0.31618  0.88571  0.07302  Biso   1.000  C
  C51      1.0000 0.67753  0.54679  0.96890  Biso   1.000  C
  H48      1.0000 0.60603  0.52297  0.92797  Biso   1.000  H
  C52      1.0000 0.66883  0.92798  0.60465  Biso   1.000  C
  C53      1.0000 0.70866  0.80519  0.56852  Biso   1.000  C
  C54      1.0000 0.66525  0.86872  0.35981  Biso   1.000  C
  C55      1.0000 0.73324  0.91350  0.43338  Biso   1.000  C
  C56      1.0000 0.42647  0.83170  0.97141  Biso   1.000  C
  C57      1.0000 0.42402  0.93348  0.06153  Biso   1.000  C
  C58      1.0000 0.33475  0.86872  0.14022  Biso   1.000  C
  C59      1.0000 0.26676  0.91350  0.06665  Biso   1.000  C
  C60      1.0000 0.67647  0.63861  0.97068  Biso   1.000  C
  H49      1.0000 0.71294  0.52761  0.95418  Biso   1.000  H
  H50      1.0000 0.67117  0.52462  0.01924  Biso   1.000  H
  C61      1.0000 0.69333  0.92187  0.66908  Biso   1.000  C
  H51      1.0000 0.64712  0.97098  0.59577  Biso   1.000  H
  H52      1.0000 0.71353  0.76481  0.53510  Biso   1.000  H
  C62      1.0000 0.73323  0.79988  0.63269  Biso   1.000  C
  H53      1.0000 0.63342  0.84740  0.35402  Biso   1.000  H
  C63      1.0000 0.69445  0.88357  0.30264  Biso   1.000  C
  C64      1.0000 0.76110  0.92767  0.37558  Biso   1.000  C
  H54      1.0000 0.74701  0.92242  0.47751  Biso   1.000  H
  C65      1.0000 0.47786  0.83421  0.97428  Biso   1.000  C
  H55      1.0000 0.41021  0.79719  0.93987  Biso   1.000  H
  H56      1.0000 0.40620  0.96848  0.09015  Biso   1.000  H
  C66      1.0000 0.47538  0.93372  0.06456  Biso   1.000  C
  H57      1.0000 0.36658  0.84740  0.14602  Biso   1.000  H
  C67      1.0000 0.30555  0.88357  0.19740  Biso   1.000  C
  C68      1.0000 0.23890  0.92767  0.12445  Biso   1.000  C
  H58      1.0000 0.25299  0.92242  0.02253  Biso   1.000  H
  C69      1.0000 0.70470  0.68198  0.92102  Biso   1.000  C
  C70      1.0000 0.65123  0.68119  0.02206  Biso   1.000  C
  C71      1.0000 0.72598  0.85822  0.68349  Biso   1.000  C
  H59      1.0000 0.68764  0.96127  0.70308  Biso   1.000  H
  H60      1.0000 0.75483  0.75657  0.64141  Biso   1.000  H
  H61      1.0000 0.68161  0.87288  0.25831  Biso   1.000  H
  C72      1.0000 0.74182  0.91387  0.30901  Biso   1.000  C
  H62      1.0000 0.79352  0.94679  0.38080  Biso   1.000  H
  H63      1.0000 0.49581  0.80159  0.94379  Biso   1.000  H
  C73      1.0000 0.50340  0.88412  0.02154  Biso   1.000  C
  H64      1.0000 0.49149  0.96799  0.09625  Biso   1.000  H
  H65      1.0000 0.31839  0.87288  0.24173  Biso   1.000  H
  C74      1.0000 0.25818  0.91387  0.19103  Biso   1.000  C
  H66      1.0000 0.20648  0.94679  0.11923  Biso   1.000  H
  C75      1.0000 0.70826  0.76591  0.92457  Biso   1.000  C
  C76      1.0000 0.73157  0.63537  0.86473  Biso   1.000  C
  C77      1.0000 0.65390  0.76707  0.02514  Biso   1.000  C
  C78      1.0000 0.62082  0.63592  0.07626  Biso   1.000  C
  C79      1.0000 0.75153  0.85211  0.75367  Biso   1.000  C
  H67      1.0000 0.76063  0.92492  0.27000  Biso   1.000  H
  C80      1.0000 0.55902  0.88100  0.02691  Biso   1.000  C
  H68      1.0000 0.23941  0.92492  0.23003  Biso   1.000  H
  C81      1.0000 0.74150  0.81051  0.87471  Biso   1.000  C
  C82      1.0000 0.68127  0.80990  0.97527  Biso   1.000  C
  H69      1.0000 0.73792  0.67111  0.82609  Biso   1.000  H
  H70      1.0000 0.71132  0.59047  0.84917  Biso   1.000  H
  H71      1.0000 0.76254  0.61497  0.88317  Biso   1.000  H
  C83      1.0000 0.62773  0.81087  0.08435  Biso   1.000  C
  H72      1.0000 0.61140  0.58332  0.05824  Biso   1.000  H
  H73      1.0000 0.59150  0.66677  0.08654  Biso   1.000  H
  H74      1.0000 0.64029  0.62908  0.11813  Biso   1.000  H
  H75      1.0000 0.78024  0.81100  0.75096  Biso   1.000  H
  H76      1.0000 0.76621  0.90788  0.76699  Biso   1.000  H
  N8       1.0000 0.71690  0.82621  0.80709  Biso   1.000  N
  H77      1.0000 0.57492  0.86958  0.97459  Biso   1.000  H
  H78      1.0000 0.57350  0.94038  0.04634  Biso   1.000  H
  N9       1.0000 0.57397  0.81582  0.07485  Biso   1.000  N
  H79      1.0000 0.75165  0.86237  0.89549  Biso   1.000  H
  H80      1.0000 0.77143  0.77801  0.86719  Biso   1.000  H
  C84      1.0000 0.68356  0.90189  0.97407  Biso   1.000  C
  H81      1.0000 0.63608  0.77819  0.13432  Biso   1.000  H
  H82      1.0000 0.64308  0.87410  0.08905  Biso   1.000  H
  H83      1.0000 0.69204  0.85797  0.79497  Biso   1.000  H
  H84      1.0000 0.56228  0.83500  0.11584  Biso   1.000  H
  H85      1.0000 0.65454  0.92382  0.99611  Biso   1.000  H
  H86      1.0000 0.68471  0.92046  0.92666  Biso   1.000  H
  H87      1.0000 0.71274  0.91991  0.99887  Biso   1.000  H
  C85      1.0000 0.58522  0.68070  0.39360  Biso   1.000  C
  C86      1.0000 0.54895  0.72211  0.35642  Biso   1.000  C
  C87      1.0000 0.61065  0.61662  0.36498  Biso   1.000  C
  H88      1.0000 0.59260  0.69658  0.43908  Biso   1.000  H
  C88      1.0000 0.53684  0.70000  0.28859  Biso   1.000  C
  H89      1.0000 0.53240  0.76549  0.37731  Biso   1.000  H
  C89      1.0000 0.59861  0.59438  0.29710  Biso   1.000  C
  C90      1.0000 0.65109  0.57532  0.40707  Biso   1.000  C
  N10      1.0000 0.50000  0.74417  0.25001  Biso   1.000  N
  C91      1.0000 0.56235  0.63568  0.25998  Biso   1.000  C
  H90      1.0000 0.61520  0.55107  0.27627  Biso   1.000  H
  N11      1.0000 0.64062  0.48894  0.42085  Biso   1.000  N
  H91      1.0000 0.65560  0.60672  0.45599  Biso   1.000  H
  H92      1.0000 0.68553  0.57990  0.37960  Biso   1.000  H
  C92      1.0000 0.46320  0.70000  0.21142  Biso   1.000  C
  C93      1.0000 0.50000  0.83012  0.25001  Biso   1.000  C
  H93      1.0000 0.55493  0.61967  0.21450  Biso   1.000  H
  C94      1.0000 0.67754  0.45321  0.46894  Biso   1.000  C
  H94      1.0000 0.60600  0.47697  0.42801  Biso   1.000  H
  C95      1.0000 0.43765  0.63568  0.23998  Biso   1.000  C
  C96      1.0000 0.45109  0.72211  0.14359  Biso   1.000  C
  C97      1.0000 0.54449  0.87300  0.25001  Biso   1.000  C
  C98      1.0000 0.45554  0.87300  0.25001  Biso   1.000  C
  C99      1.0000 0.67647  0.36139  0.47067  Biso   1.000  C
  H95      1.0000 0.71291  0.47239  0.45422  Biso   1.000  H
  H96      1.0000 0.67117  0.47538  0.51917  Biso   1.000  H
  C100     1.0000 0.40142  0.59438  0.20291  Biso   1.000  C
  H97      1.0000 0.44511  0.61967  0.28551  Biso   1.000  H
  C101     1.0000 0.41482  0.68070  0.10641  Biso   1.000  C
  H98      1.0000 0.46760  0.76549  0.12271  Biso   1.000  H
  H99      1.0000 0.57460  0.84508  0.25001  Biso   1.000  H
  C102     1.0000 0.54383  0.95889  0.25021  Biso   1.000  C
  H100     1.0000 0.42540  0.84508  0.25001  Biso   1.000  H
  C103     1.0000 0.45621  0.95889  0.24980  Biso   1.000  C
  C104     1.0000 0.65123  0.31881  0.52205  Biso   1.000  C
  C105     1.0000 0.70466  0.31802  0.42101  Biso   1.000  C
  C106     1.0000 0.38938  0.61662  0.13498  Biso   1.000  C
  H101     1.0000 0.38480  0.55107  0.22369  Biso   1.000  H
  H102     1.0000 0.40740  0.69658  0.06088  Biso   1.000  H
  H103     1.0000 0.57371  0.98742  0.25037  Biso   1.000  H
  C107     1.0000 0.50000  0.00159  0.25001  Biso   1.000  C
  H104     1.0000 0.42632  0.98742  0.24959  Biso   1.000  H
  C108     1.0000 0.65390  0.23293  0.52507  Biso   1.000  C
  C109     1.0000 0.62082  0.36408  0.57619  Biso   1.000  C
  C110     1.0000 0.70822  0.23409  0.42461  Biso   1.000  C
  C111     1.0000 0.73153  0.36457  0.36472  Biso   1.000  C
  C112     1.0000 0.34891  0.57532  0.09289  Biso   1.000  C
  H105     1.0000 0.50000  0.05852  0.25001  Biso   1.000  H
  C113     1.0000 0.62776  0.18913  0.58429  Biso   1.000  C
  C114     1.0000 0.68127  0.19010  0.47531  Biso   1.000  C
  H106     1.0000 0.61140  0.41668  0.55818  Biso   1.000  H
  H107     1.0000 0.59150  0.33317  0.58648  Biso   1.000  H
  H108     1.0000 0.64032  0.37092  0.61807  Biso   1.000  H
  C115     1.0000 0.74147  0.18949  0.37470  Biso   1.000  C
  H109     1.0000 0.73792  0.32889  0.32608  Biso   1.000  H
  H110     1.0000 0.71132  0.40947  0.34921  Biso   1.000  H
  H111     1.0000 0.76250  0.38497  0.38321  Biso   1.000  H
  N12      1.0000 0.35942  0.48894  0.07911  Biso   1.000  N
  H112     1.0000 0.34440  0.60672  0.04402  Biso   1.000  H
  H113     1.0000 0.31451  0.57990  0.12041  Biso   1.000  H
  N13      1.0000 0.57397  0.18418  0.57478  Biso   1.000  N
  H114     1.0000 0.63612  0.22181  0.63431  Biso   1.000  H
  H115     1.0000 0.64312  0.12590  0.58899  Biso   1.000  H
  C116     1.0000 0.68353  0.09811  0.47411  Biso   1.000  C
  H116     1.0000 0.75161  0.13757  0.39548  Biso   1.000  H
  H117     1.0000 0.77140  0.22199  0.36718  Biso   1.000  H
  N14      1.0000 0.71687  0.17379  0.30708  Biso   1.000  N
  C117     1.0000 0.32250  0.45321  0.03107  Biso   1.000  C
  H118     1.0000 0.39400  0.47697  0.07200  Biso   1.000  H
  C118     1.0000 0.55906  0.11900  0.52690  Biso   1.000  C
  H119     1.0000 0.56232  0.16500  0.61577  Biso   1.000  H
  H120     1.0000 0.65450  0.07618  0.49610  Biso   1.000  H
  H121     1.0000 0.68471  0.07947  0.42670  Biso   1.000  H
  H122     1.0000 0.71274  0.08009  0.49891  Biso   1.000  H
  C119     1.0000 0.75149  0.14789  0.25371  Biso   1.000  C
  H123     1.0000 0.69201  0.14203  0.29501  Biso   1.000  H
  C120     1.0000 0.32353  0.36139  0.02934  Biso   1.000  C
  H124     1.0000 0.28709  0.47239  0.04579  Biso   1.000  H
  H125     1.0000 0.32887  0.47538  0.98073  Biso   1.000  H
  C121     1.0000 0.50344  0.11588  0.52147  Biso   1.000  C
  H126     1.0000 0.57492  0.13042  0.47458  Biso   1.000  H
  H127     1.0000 0.57354  0.05962  0.54627  Biso   1.000  H
  C122     1.0000 0.72598  0.14178  0.18354  Biso   1.000  C
  H128     1.0000 0.78020  0.18900  0.25095  Biso   1.000  H
  H129     1.0000 0.76621  0.09212  0.26698  Biso   1.000  H
  C123     1.0000 0.29534  0.31802  0.07895  Biso   1.000  C
  C124     1.0000 0.34880  0.31881  0.97791  Biso   1.000  C
  C125     1.0000 0.47786  0.16579  0.47427  Biso   1.000  C
  C126     1.0000 0.47541  0.06628  0.56450  Biso   1.000  C
  C127     1.0000 0.69329  0.07807  0.16907  Biso   1.000  C
  C128     1.0000 0.73323  0.20012  0.13268  Biso   1.000  C
  C129     1.0000 0.29178  0.23409  0.07540  Biso   1.000  C
  C130     1.0000 0.26847  0.36457  0.13524  Biso   1.000  C
  C131     1.0000 0.34614  0.23293  0.97483  Biso   1.000  C
  C132     1.0000 0.37922  0.36408  0.92371  Biso   1.000  C
  C133     1.0000 0.42643  0.16830  0.47140  Biso   1.000  C
  H130     1.0000 0.49581  0.19841  0.44378  Biso   1.000  H
  C134     1.0000 0.42402  0.06652  0.56147  Biso   1.000  C
  H131     1.0000 0.49153  0.03201  0.59619  Biso   1.000  H
  C135     1.0000 0.66883  0.07202  0.10464  Biso   1.000  C
  H132     1.0000 0.68760  0.03873  0.20312  Biso   1.000  H
  C136     1.0000 0.70862  0.19481  0.06851  Biso   1.000  C
  H133     1.0000 0.75483  0.24337  0.14140  Biso   1.000  H
  C137     1.0000 0.25853  0.18949  0.12532  Biso   1.000  C
  C138     1.0000 0.31877  0.19010  0.02470  Biso   1.000  C
  H134     1.0000 0.26212  0.32889  0.17388  Biso   1.000  H
  H135     1.0000 0.28871  0.40947  0.15080  Biso   1.000  H
  H136     1.0000 0.23750  0.38497  0.11681  Biso   1.000  H
  C139     1.0000 0.37227  0.18913  0.91567  Biso   1.000  C
  H137     1.0000 0.38863  0.41668  0.94173  Biso   1.000  H
  H138     1.0000 0.40853  0.33317  0.91343  Biso   1.000  H
  H139     1.0000 0.35975  0.37092  0.88184  Biso   1.000  H
  C140     1.0000 0.39891  0.11833  0.51620  Biso   1.000  C
  H140     1.0000 0.41021  0.20281  0.43991  Biso   1.000  H
  H141     1.0000 0.40620  0.03152  0.59008  Biso   1.000  H
  C141     1.0000 0.67734  0.13097  0.05383  Biso   1.000  C
  H142     1.0000 0.64712  0.02902  0.09581  Biso   1.000  H
  H143     1.0000 0.71350  0.23519  0.03509  Biso   1.000  H
  N15      1.0000 0.28313  0.17379  0.19293  Biso   1.000  N
  H144     1.0000 0.24839  0.13757  0.10448  Biso   1.000  H
  H145     1.0000 0.22860  0.22199  0.13278  Biso   1.000  H
  C142     1.0000 0.31647  0.09811  0.02590  Biso   1.000  C
  H146     1.0000 0.36392  0.22181  0.86565  Biso   1.000  H
  H147     1.0000 0.35696  0.12590  0.91097  Biso   1.000  H
  N16      1.0000 0.42607  0.18418  0.92518  Biso   1.000  N
  N17      1.0000 0.34610  0.12340  0.51359  Biso   1.000  N
  N18      1.0000 0.65397  0.12340  0.98637  Biso   1.000  N
  C143     1.0000 0.24851  0.14789  0.24630  Biso   1.000  C
  H148     1.0000 0.30799  0.14203  0.20500  Biso   1.000  H
  H149     1.0000 0.34550  0.07618  0.00392  Biso   1.000  H
  H150     1.0000 0.31529  0.07947  0.07331  Biso   1.000  H
  H151     1.0000 0.28730  0.08009  0.00110  Biso   1.000  H
  C144     1.0000 0.44102  0.11900  0.97306  Biso   1.000  C
  H152     1.0000 0.43775  0.16500  0.88413  Biso   1.000  H
  C145     1.0000 0.32266  0.13097  0.44618  Biso   1.000  C
  C146     1.0000 0.31621  0.11429  0.57296  Biso   1.000  C
  C147     1.0000 0.60113  0.11833  0.98371  Biso   1.000  C
  C148     1.0000 0.68386  0.11429  0.92695  Biso   1.000  C
  H153     1.0000 0.21980  0.18900  0.24907  Biso   1.000  H
  H154     1.0000 0.23382  0.09212  0.23298  Biso   1.000  H
  C149     1.0000 0.27406  0.14178  0.31648  Biso   1.000  C
  H155     1.0000 0.42512  0.13042  0.02538  Biso   1.000  H
  H156     1.0000 0.42654  0.05962  0.95363  Biso   1.000  H
  C150     1.0000 0.49663  0.11588  0.97844  Biso   1.000  C
  C151     1.0000 0.33121  0.07202  0.39532  Biso   1.000  C
  C152     1.0000 0.29138  0.19481  0.43151  Biso   1.000  C
  C153     1.0000 0.33475  0.13128  0.64016  Biso   1.000  C
  C154     1.0000 0.26679  0.08650  0.56659  Biso   1.000  C
  C155     1.0000 0.57357  0.16830  0.02861  Biso   1.000  C
  C156     1.0000 0.57602  0.06652  0.93844  Biso   1.000  C
  C157     1.0000 0.66529  0.13128  0.85980  Biso   1.000  C
  C158     1.0000 0.73328  0.08650  0.93337  Biso   1.000  C
  C159     1.0000 0.30671  0.07807  0.33089  Biso   1.000  C
  C160     1.0000 0.26681  0.20012  0.36728  Biso   1.000  C
  C161     1.0000 0.52217  0.16579  0.02569  Biso   1.000  C
  C162     1.0000 0.52466  0.06628  0.93546  Biso   1.000  C
  H157     1.0000 0.35292  0.02902  0.40420  Biso   1.000  H
  H158     1.0000 0.28650  0.23519  0.46487  Biso   1.000  H
  H159     1.0000 0.36662  0.15260  0.64600  Biso   1.000  H
  C163     1.0000 0.30559  0.11637  0.69738  Biso   1.000  C
  C164     1.0000 0.23894  0.07233  0.62439  Biso   1.000  C
  H160     1.0000 0.25303  0.07758  0.52252  Biso   1.000  H
  H161     1.0000 0.58979  0.20281  0.06010  Biso   1.000  H
  H162     1.0000 0.59383  0.03152  0.90982  Biso   1.000  H
  H163     1.0000 0.63345  0.15260  0.85395  Biso   1.000  H
  C165     1.0000 0.69445  0.11637  0.80257  Biso   1.000  C
  C166     1.0000 0.76114  0.07233  0.87557  Biso   1.000  C
  H164     1.0000 0.74704  0.07758  0.97744  Biso   1.000  H
  H165     1.0000 0.31240  0.03873  0.29689  Biso   1.000  H
  H166     1.0000 0.24521  0.24337  0.35861  Biso   1.000  H
  H167     1.0000 0.50419  0.19841  0.05618  Biso   1.000  H
  H168     1.0000 0.50855  0.03201  0.90377  Biso   1.000  H
  H169     1.0000 0.31842  0.12712  0.74171  Biso   1.000  H
  C167     1.0000 0.25821  0.08607  0.69101  Biso   1.000  C
  H170     1.0000 0.20652  0.05321  0.61917  Biso   1.000  H
  H171     1.0000 0.68165  0.12712  0.75824  Biso   1.000  H
  C168     1.0000 0.74186  0.08607  0.80895  Biso   1.000  C
  H172     1.0000 0.79356  0.05321  0.88074  Biso   1.000  H
  H173     1.0000 0.23941  0.07508  0.72997  Biso   1.000  H
  H174     1.0000 0.76063  0.07508  0.76994  Biso   1.000  H
  C169     1.0000 0.24149  0.68949  0.37470  Biso   1.000  C
  N19      1.0000 0.21688  0.67379  0.30708  Biso   1.000  N
  C170     1.0000 0.20824  0.73409  0.42461  Biso   1.000  C
  H175     1.0000 0.25163  0.63757  0.39548  Biso   1.000  H
  H176     1.0000 0.27142  0.72199  0.36718  Biso   1.000  H
  C171     1.0000 0.25151  0.64789  0.25371  Biso   1.000  C
  H177     1.0000 0.19202  0.64197  0.29501  Biso   1.000  H
  C172     1.0000 0.20468  0.81802  0.42101  Biso   1.000  C
  C173     1.0000 0.18125  0.69010  0.47531  Biso   1.000  C
  C174     1.0000 0.22596  0.64178  0.18354  Biso   1.000  C
  H178     1.0000 0.28022  0.68900  0.25095  Biso   1.000  H
  H179     1.0000 0.26623  0.59212  0.26698  Biso   1.000  H
  C175     1.0000 0.17649  0.86139  0.47067  Biso   1.000  C
  C176     1.0000 0.23155  0.86457  0.36472  Biso   1.000  C
  C177     1.0000 0.15392  0.73286  0.52507  Biso   1.000  C
  C178     1.0000 0.18355  0.59811  0.47411  Biso   1.000  C
  C179     1.0000 0.19331  0.57807  0.16907  Biso   1.000  C
  C180     1.0000 0.23321  0.70012  0.13268  Biso   1.000  C
  C181     1.0000 0.15125  0.81881  0.52205  Biso   1.000  C
  C182     1.0000 0.17752  0.95321  0.46894  Biso   1.000  C
  H180     1.0000 0.23790  0.82889  0.32608  Biso   1.000  H
  H181     1.0000 0.21130  0.90947  0.34921  Biso   1.000  H
  H182     1.0000 0.26252  0.88497  0.38321  Biso   1.000  H
  C183     1.0000 0.12778  0.68907  0.58429  Biso   1.000  C
  H183     1.0000 0.15452  0.57618  0.49610  Biso   1.000  H
  H184     1.0000 0.21272  0.58009  0.49891  Biso   1.000  H
  H185     1.0000 0.18469  0.57947  0.42670  Biso   1.000  H
  H186     1.0000 0.18473  0.57947  0.42670  Biso   1.000  H
  H187     1.0000 0.18762  0.53867  0.20312  Biso   1.000  H
  C184     1.0000 0.16885  0.57202  0.10464  Biso   1.000  C
  C185     1.0000 0.20864  0.69481  0.06851  Biso   1.000  C
  H188     1.0000 0.25481  0.74337  0.14140  Biso   1.000  H
  C186     1.0000 0.12084  0.86408  0.57619  Biso   1.000  C
  H189     1.0000 0.21292  0.97239  0.45422  Biso   1.000  H
  H190     1.0000 0.17119  0.97538  0.51917  Biso   1.000  H
  N20      1.0000 0.14063  0.98894  0.42085  Biso   1.000  N
  H191     1.0000 0.13613  0.72181  0.63431  Biso   1.000  H
  N21      1.0000 0.07399  0.68418  0.57478  Biso   1.000  N
  H192     1.0000 0.14314  0.62590  0.58899  Biso   1.000  H
  H193     1.0000 0.14710  0.52902  0.09581  Biso   1.000  H
  C187     1.0000 0.17733  0.63097  0.05383  Biso   1.000  C
  C188     1.0000 0.17736  0.63097  0.05383  Biso   1.000  C
  H194     1.0000 0.21352  0.73519  0.03509  Biso   1.000  H
  H195     1.0000 0.11142  0.91668  0.55818  Biso   1.000  H
  H196     1.0000 0.09152  0.83317  0.58648  Biso   1.000  H
  H197     1.0000 0.14034  0.87092  0.61807  Biso   1.000  H
  H198     1.0000 0.10602  0.97697  0.42801  Biso   1.000  H
  C189     1.0000 0.15111  0.07532  0.40707  Biso   1.000  C
  C190     1.0000 0.05907  0.61900  0.52690  Biso   1.000  C
  H199     1.0000 0.06234  0.66500  0.61577  Biso   1.000  H
  N22      1.0000 0.15392  0.62340  0.98637  Biso   1.000  N
  H200     1.0000 0.15562  0.10672  0.45599  Biso   1.000  H
  H201     1.0000 0.18551  0.07990  0.37960  Biso   1.000  H
  C191     1.0000 0.11067  0.11662  0.36498  Biso   1.000  C
  H202     1.0000 0.07352  0.55962  0.54627  Biso   1.000  H
  C192     1.0000 0.00342  0.61588  0.52147  Biso   1.000  C
  H203     1.0000 0.07490  0.63042  0.47458  Biso   1.000  H
  H204     1.0000 0.07494  0.63042  0.47458  Biso   1.000  H
  C193     1.0000 0.18384  0.61429  0.92695  Biso   1.000  C
  C194     1.0000 0.10111  0.61833  0.98371  Biso   1.000  C
  C195     1.0000 0.09860  0.09438  0.29710  Biso   1.000  C
  C196     1.0000 0.08524  0.18070  0.39360  Biso   1.000  C
  C197     1.0000 0.97785  0.66579  0.47427  Biso   1.000  C
  C198     1.0000 0.97540  0.56628  0.56450  Biso   1.000  C
  C199     1.0000 0.97788  0.66579  0.47427  Biso   1.000  C
  C200     1.0000 0.07359  0.66830  0.02861  Biso   1.000  C
  C201     1.0000 0.07600  0.56652  0.93844  Biso   1.000  C
  C202     1.0000 0.16527  0.63128  0.85980  Biso   1.000  C
  C203     1.0000 0.23326  0.58650  0.93337  Biso   1.000  C
  C204     1.0000 0.23322  0.58650  0.93337  Biso   1.000  C
  H205     1.0000 0.11522  0.05107  0.27627  Biso   1.000  H
  C205     1.0000 0.06237  0.13568  0.25998  Biso   1.000  C
  C206     1.0000 0.04893  0.22211  0.35642  Biso   1.000  C
  H206     1.0000 0.09262  0.19658  0.43908  Biso   1.000  H
  H207     1.0000 0.99579  0.69841  0.44378  Biso   1.000  H
  C207     1.0000 0.92645  0.66830  0.47140  Biso   1.000  C
  H208     1.0000 0.99583  0.69841  0.44378  Biso   1.000  H
  C208     1.0000 0.92404  0.56652  0.56147  Biso   1.000  C
  H209     1.0000 0.99151  0.53201  0.59619  Biso   1.000  H
  C209     1.0000 0.02215  0.66579  0.02569  Biso   1.000  C
  H210     1.0000 0.08981  0.70281  0.06010  Biso   1.000  H
  C210     1.0000 0.02464  0.56628  0.93546  Biso   1.000  C
  H211     1.0000 0.09381  0.53152  0.90982  Biso   1.000  H
  H212     1.0000 0.13340  0.65260  0.85395  Biso   1.000  H
  C211     1.0000 0.19443  0.61637  0.80257  Biso   1.000  C
  C212     1.0000 0.26112  0.57227  0.87557  Biso   1.000  C
  H213     1.0000 0.24703  0.57758  0.97744  Biso   1.000  H
  C213     1.0000 0.26108  0.57227  0.87557  Biso   1.000  C
  H214     1.0000 0.05491  0.11967  0.21450  Biso   1.000  H
  C214     1.0000 0.03682  0.20000  0.28859  Biso   1.000  C
  H215     1.0000 0.03242  0.26549  0.37731  Biso   1.000  H
  H216     1.0000 0.91019  0.70281  0.43991  Biso   1.000  H
  C215     1.0000 0.89893  0.61833  0.51620  Biso   1.000  C
  H217     1.0000 0.91023  0.70281  0.43991  Biso   1.000  H
  H218     1.0000 0.90622  0.53152  0.59008  Biso   1.000  H
  H219     1.0000 0.00421  0.69841  0.05618  Biso   1.000  H
  C216     1.0000 0.99662  0.61588  0.97844  Biso   1.000  C
  H220     1.0000 0.00853  0.53201  0.90377  Biso   1.000  H
  H221     1.0000 0.00849  0.53201  0.90377  Biso   1.000  H
  C217     1.0000 0.24184  0.58607  0.80895  Biso   1.000  C
  H222     1.0000 0.18159  0.62712  0.75824  Biso   1.000  H
  C218     1.0000 0.24181  0.58607  0.80895  Biso   1.000  C
  H223     1.0000 0.29350  0.55321  0.88074  Biso   1.000  H
  N23      1.0000 0.00002  0.24417  0.25001  Biso   1.000  N
  N24      1.0000 0.84608  0.62340  0.51359  Biso   1.000  N
  C219     1.0000 0.94100  0.61900  0.97306  Biso   1.000  C
  H224     1.0000 0.26061  0.57508  0.76994  Biso   1.000  H
  C220     1.0000 0.96318  0.20000  0.21142  Biso   1.000  C
  C221     1.0000 0.96322  0.20000  0.21142  Biso   1.000  C
  C222     1.0000 0.00002  0.33012  0.25001  Biso   1.000  C
  C223     1.0000 0.82267  0.63097  0.44618  Biso   1.000  C
  C224     1.0000 0.81619  0.61429  0.57296  Biso   1.000  C
  N25      1.0000 0.92609  0.68418  0.92518  Biso   1.000  N
  H225     1.0000 0.92656  0.55962  0.95363  Biso   1.000  H
  H226     1.0000 0.92510  0.63042  0.02538  Biso   1.000  H
  C225     1.0000 0.93767  0.13568  0.23998  Biso   1.000  C
  C226     1.0000 0.95107  0.22211  0.14359  Biso   1.000  C
  C227     1.0000 0.95111  0.22211  0.14359  Biso   1.000  C
  C228     1.0000 0.95553  0.37300  0.25001  Biso   1.000  C
  C229     1.0000 0.04447  0.37300  0.25001  Biso   1.000  C
  C230     1.0000 0.83119  0.57202  0.39532  Biso   1.000  C
  C231     1.0000 0.79140  0.69481  0.43151  Biso   1.000  C
  C232     1.0000 0.83477  0.63128  0.64016  Biso   1.000  C
  C233     1.0000 0.76678  0.58650  0.56659  Biso   1.000  C
  C234     1.0000 0.76681  0.58650  0.56659  Biso   1.000  C
  C235     1.0000 0.87229  0.68907  0.91567  Biso   1.000  C
  H227     1.0000 0.93774  0.66500  0.88413  Biso   1.000  H
  C236     1.0000 0.90140  0.09438  0.20291  Biso   1.000  C
  H228     1.0000 0.94509  0.11967  0.28551  Biso   1.000  H
  H229     1.0000 0.94513  0.11967  0.28551  Biso   1.000  H
  H230     1.0000 0.96761  0.26549  0.12271  Biso   1.000  H
  C237     1.0000 0.91480  0.18070  0.10641  Biso   1.000  C
  H231     1.0000 0.92542  0.34508  0.25001  Biso   1.000  H
  C238     1.0000 0.95619  0.45889  0.24980  Biso   1.000  C
  C239     1.0000 0.95623  0.45889  0.24980  Biso   1.000  C
  H232     1.0000 0.07462  0.34508  0.25001  Biso   1.000  H
  C240     1.0000 0.04381  0.45889  0.25021  Biso   1.000  C
  C241     1.0000 0.80673  0.57807  0.33089  Biso   1.000  C
  H233     1.0000 0.85290  0.52902  0.40420  Biso   1.000  H
  H234     1.0000 0.78652  0.73519  0.46487  Biso   1.000  H
  C242     1.0000 0.76679  0.70012  0.36728  Biso   1.000  C
  H235     1.0000 0.86660  0.65260  0.64600  Biso   1.000  H
  C243     1.0000 0.80557  0.61637  0.69738  Biso   1.000  C
  H236     1.0000 0.86664  0.65260  0.64600  Biso   1.000  H
  C244     1.0000 0.80560  0.61637  0.69738  Biso   1.000  C
  C245     1.0000 0.73892  0.57227  0.62439  Biso   1.000  C
  H237     1.0000 0.75301  0.57758  0.52252  Biso   1.000  H
  C246     1.0000 0.84612  0.73286  0.97483  Biso   1.000  C
  H238     1.0000 0.86394  0.72181  0.86565  Biso   1.000  H
  H239     1.0000 0.85694  0.62590  0.91097  Biso   1.000  H
  C247     1.0000 0.84616  0.73286  0.97483  Biso   1.000  C
  C248     1.0000 0.88936  0.11662  0.13498  Biso   1.000  C
  H240     1.0000 0.88482  0.05107  0.22369  Biso   1.000  H
  H241     1.0000 0.90742  0.19658  0.06088  Biso   1.000  H
  H242     1.0000 0.92631  0.48742  0.24959  Biso   1.000  H
  C249     1.0000 0.00002  0.50159  0.25001  Biso   1.000  C
  H243     1.0000 0.07369  0.48742  0.25037  Biso   1.000  H
  H244     1.0000 0.07373  0.48742  0.25037  Biso   1.000  H
  C250     1.0000 0.77404  0.64178  0.31648  Biso   1.000  C
  H245     1.0000 0.81242  0.53867  0.29689  Biso   1.000  H
  H246     1.0000 0.74519  0.74337  0.35861  Biso   1.000  H
  H247     1.0000 0.74523  0.74337  0.35861  Biso   1.000  H
  H248     1.0000 0.81841  0.62712  0.74171  Biso   1.000  H
  C251     1.0000 0.75819  0.58607  0.69101  Biso   1.000  C
  H249     1.0000 0.81844  0.62712  0.74171  Biso   1.000  H
  H250     1.0000 0.70650  0.55321  0.61917  Biso   1.000  H
  H251     1.0000 0.70653  0.55321  0.61917  Biso   1.000  H
  C252     1.0000 0.84882  0.81881  0.97791  Biso   1.000  C
  C253     1.0000 0.81879  0.69010  0.02470  Biso   1.000  C
  C254     1.0000 0.84893  0.07532  0.09289  Biso   1.000  C
  H252     1.0000 0.00002  0.55846  0.25001  Biso   1.000  H
  C255     1.0000 0.74853  0.64789  0.24630  Biso   1.000  C
  H253     1.0000 0.73943  0.57508  0.72997  Biso   1.000  H
  C256     1.0000 0.87924  0.86408  0.92371  Biso   1.000  C
  C257     1.0000 0.82355  0.86139  0.02934  Biso   1.000  C
  C258     1.0000 0.79179  0.73409  0.07540  Biso   1.000  C
  C259     1.0000 0.81649  0.59811  0.02590  Biso   1.000  C
  N26      1.0000 0.85940  0.98894  0.07911  Biso   1.000  N
  H254     1.0000 0.84442  0.10672  0.04402  Biso   1.000  H
  H255     1.0000 0.81449  0.07990  0.12041  Biso   1.000  H
  H256     1.0000 0.81453  0.07990  0.12041  Biso   1.000  H
  N27      1.0000 0.78312  0.67379  0.19293  Biso   1.000  N
  N28      1.0000 0.78315  0.67379  0.19293  Biso   1.000  N
  H257     1.0000 0.71982  0.68900  0.24907  Biso   1.000  H
  H258     1.0000 0.73380  0.59212  0.23298  Biso   1.000  H
  H259     1.0000 0.88865  0.91668  0.94173  Biso   1.000  H
  H260     1.0000 0.90855  0.83317  0.91343  Biso   1.000  H
  H261     1.0000 0.85973  0.87092  0.88184  Biso   1.000  H
  C260     1.0000 0.79536  0.81802  0.07895  Biso   1.000  C
  C261     1.0000 0.82248  0.95321  0.03107  Biso   1.000  C
  C262     1.0000 0.82252  0.95321  0.03107  Biso   1.000  C
  C263     1.0000 0.75855  0.68949  0.12532  Biso   1.000  C
  H262     1.0000 0.84552  0.57618  0.00392  Biso   1.000  H
  H263     1.0000 0.81531  0.57947  0.07331  Biso   1.000  H
  H264     1.0000 0.78732  0.58009  0.00110  Biso   1.000  H
  H265     1.0000 0.89398  0.97697  0.07200  Biso   1.000  H
  H266     1.0000 0.89402  0.97697  0.07200  Biso   1.000  H
  H267     1.0000 0.80801  0.64197  0.20500  Biso   1.000  H
  C264     1.0000 0.76849  0.86457  0.13524  Biso   1.000  C
  H268     1.0000 0.82888  0.97538  0.98073  Biso   1.000  H
  H269     1.0000 0.78711  0.97239  0.04579  Biso   1.000  H
  H270     1.0000 0.74841  0.63757  0.10448  Biso   1.000  H
  H271     1.0000 0.72858  0.72199  0.13278  Biso   1.000  H
  H272     1.0000 0.72862  0.72199  0.13278  Biso   1.000  H
  H273     1.0000 0.76210  0.82889  0.17388  Biso   1.000  H
  H274     1.0000 0.78870  0.90947  0.15080  Biso   1.000  H
  H275     1.0000 0.73751  0.88497  0.11681  Biso   1.000  H
  C265     1.0000 0.75855  0.31051  0.62528  Biso   1.000  C
  C266     1.0000 0.79179  0.26591  0.57536  Biso   1.000  C
  H276     1.0000 0.74841  0.36237  0.60449  Biso   1.000  H
  H277     1.0000 0.72862  0.27801  0.63279  Biso   1.000  H
  N29      1.0000 0.78315  0.32621  0.69289  Biso   1.000  N
  C267     1.0000 0.79536  0.18198  0.57896  Biso   1.000  C
  C268     1.0000 0.81878  0.30990  0.52466  Biso   1.000  C
  C269     1.0000 0.74853  0.35211  0.74631  Biso   1.000  C
  H278     1.0000 0.80801  0.35797  0.70501  Biso   1.000  H
  C270     1.0000 0.82355  0.13861  0.52930  Biso   1.000  C
  C271     1.0000 0.76849  0.13537  0.63525  Biso   1.000  C
  C272     1.0000 0.84612  0.26707  0.47490  Biso   1.000  C
  C273     1.0000 0.81649  0.40189  0.52591  Biso   1.000  C
  H279     1.0000 0.71982  0.31100  0.74902  Biso   1.000  H
  H280     1.0000 0.73380  0.40788  0.73299  Biso   1.000  H
  C274     1.0000 0.77404  0.35822  0.81649  Biso   1.000  C
  H281     1.0000 0.73384  0.40788  0.73299  Biso   1.000  H
  C275     1.0000 0.77408  0.35822  0.81649  Biso   1.000  C
  C276     1.0000 0.84878  0.18119  0.47798  Biso   1.000  C
  C277     1.0000 0.82252  0.04679  0.53103  Biso   1.000  C
  H282     1.0000 0.78873  0.09047  0.65081  Biso   1.000  H
  H283     1.0000 0.73751  0.11503  0.61682  Biso   1.000  H
  H284     1.0000 0.76210  0.17111  0.67389  Biso   1.000  H
  H285     1.0000 0.76213  0.17111  0.67389  Biso   1.000  H
  C278     1.0000 0.87225  0.31087  0.41568  Biso   1.000  C
  H286     1.0000 0.84552  0.42382  0.50388  Biso   1.000  H
  H287     1.0000 0.81530  0.42053  0.57327  Biso   1.000  H
  H288     1.0000 0.78732  0.41991  0.50111  Biso   1.000  H
  C279     1.0000 0.80673  0.42187  0.83090  Biso   1.000  C
  C280     1.0000 0.76683  0.29988  0.86729  Biso   1.000  C
  C281     1.0000 0.87920  0.13592  0.42378  Biso   1.000  C
  H289     1.0000 0.78711  0.02761  0.54580  Biso   1.000  H
  H290     1.0000 0.82885  0.02462  0.48080  Biso   1.000  H
  N30      1.0000 0.85940  0.01106  0.57912  Biso   1.000  N
  H291     1.0000 0.86390  0.27819  0.36571  Biso   1.000  H
  H292     1.0000 0.85690  0.37410  0.41098  Biso   1.000  H
  N31      1.0000 0.92605  0.31582  0.42519  Biso   1.000  N
  H293     1.0000 0.81242  0.46127  0.79691  Biso   1.000  H
  C282     1.0000 0.83123  0.42798  0.89533  Biso   1.000  C
  C283     1.0000 0.79140  0.30519  0.93146  Biso   1.000  C
  H294     1.0000 0.74523  0.25663  0.85857  Biso   1.000  H
  H295     1.0000 0.88861  0.08332  0.44179  Biso   1.000  H
  H296     1.0000 0.90851  0.16677  0.41349  Biso   1.000  H
  H297     1.0000 0.85973  0.12908  0.38190  Biso   1.000  H
  H298     1.0000 0.89402  0.02303  0.57202  Biso   1.000  H
  C284     1.0000 0.84893  0.92468  0.59290  Biso   1.000  C
  C285     1.0000 0.94096  0.38100  0.47307  Biso   1.000  C
  H299     1.0000 0.93770  0.33500  0.38420  Biso   1.000  H
  H300     1.0000 0.85294  0.47098  0.90421  Biso   1.000  H
  C286     1.0000 0.82267  0.36897  0.94619  Biso   1.000  C
  H301     1.0000 0.78652  0.26481  0.96488  Biso   1.000  H
  H302     1.0000 0.84441  0.89328  0.54398  Biso   1.000  H
  H303     1.0000 0.81452  0.92010  0.62037  Biso   1.000  H
  C287     1.0000 0.88936  0.88338  0.63499  Biso   1.000  C
  H304     1.0000 0.92652  0.44038  0.45370  Biso   1.000  H
  C288     1.0000 0.99662  0.38412  0.47850  Biso   1.000  C
  H305     1.0000 0.92514  0.36958  0.52539  Biso   1.000  H
  N32      1.0000 0.84612  0.37660  0.01365  Biso   1.000  N
  N33      1.0000 0.84608  0.37660  0.01365  Biso   1.000  N
  C289     1.0000 0.90144  0.90562  0.70287  Biso   1.000  C
  C290     1.0000 0.91484  0.81930  0.60637  Biso   1.000  C
  C291     1.0000 0.02215  0.33421  0.52570  Biso   1.000  C
  C292     1.0000 0.02464  0.43372  0.43547  Biso   1.000  C
  C293     1.0000 0.89893  0.38167  0.01626  Biso   1.000  C
  C294     1.0000 0.81619  0.38571  0.07302  Biso   1.000  C
  C295     1.0000 0.89889  0.38167  0.01626  Biso   1.000  C
  H306     1.0000 0.88482  0.94887  0.72370  Biso   1.000  H
  C296     1.0000 0.93767  0.86432  0.73999  Biso   1.000  C
  C297     1.0000 0.95111  0.77789  0.64360  Biso   1.000  C
  H307     1.0000 0.90742  0.80342  0.56089  Biso   1.000  H
  H308     1.0000 0.00421  0.30159  0.55619  Biso   1.000  H
  C298     1.0000 0.07359  0.33170  0.52857  Biso   1.000  C
  C299     1.0000 0.07600  0.43348  0.43850  Biso   1.000  C
  H309     1.0000 0.00849  0.46799  0.40378  Biso   1.000  H
  H310     1.0000 0.00853  0.46799  0.40378  Biso   1.000  H
  C300     1.0000 0.92645  0.33170  0.97141  Biso   1.000  C
  C301     1.0000 0.92404  0.43348  0.06153  Biso   1.000  C
  C302     1.0000 0.92400  0.43348  0.06153  Biso   1.000  C
  C303     1.0000 0.83473  0.36872  0.14022  Biso   1.000  C
  C304     1.0000 0.76678  0.41350  0.06665  Biso   1.000  C
  H311     1.0000 0.94513  0.88033  0.78547  Biso   1.000  H
  C305     1.0000 0.96322  0.80000  0.71138  Biso   1.000  C
  H312     1.0000 0.96761  0.73451  0.62272  Biso   1.000  H
  H313     1.0000 0.08981  0.29719  0.56011  Biso   1.000  H
  C306     1.0000 0.10111  0.38167  0.48377  Biso   1.000  C
  H314     1.0000 0.09382  0.46848  0.40989  Biso   1.000  H
  C307     1.0000 0.97788  0.33421  0.97428  Biso   1.000  C
  H315     1.0000 0.91023  0.29719  0.93987  Biso   1.000  H
  H316     1.0000 0.90622  0.46848  0.09015  Biso   1.000  H
  C308     1.0000 0.97540  0.43372  0.06456  Biso   1.000  C
  H317     1.0000 0.90618  0.46848  0.09015  Biso   1.000  H
  C309     1.0000 0.97536  0.43372  0.06456  Biso   1.000  C
  H318     1.0000 0.86664  0.34740  0.14602  Biso   1.000  H
  C310     1.0000 0.80560  0.38357  0.19740  Biso   1.000  C
  H319     1.0000 0.86660  0.34740  0.14602  Biso   1.000  H
  C311     1.0000 0.80557  0.38357  0.19740  Biso   1.000  C
  C312     1.0000 0.73892  0.42767  0.12445  Biso   1.000  C
  H320     1.0000 0.75301  0.42242  0.02253  Biso   1.000  H
  N34      1.0000 0.00002  0.75577  0.74996  Biso   1.000  N
  N35      1.0000 0.15392  0.37660  0.48638  Biso   1.000  N
  N36      1.0000 0.15395  0.37660  0.48638  Biso   1.000  N
  H321     1.0000 0.99583  0.30159  0.94379  Biso   1.000  H
  C313     1.0000 0.00338  0.38412  0.02154  Biso   1.000  C
  C314     1.0000 0.00342  0.38412  0.02154  Biso   1.000  C
  H322     1.0000 0.99154  0.46799  0.09625  Biso   1.000  H
  H323     1.0000 0.99151  0.46799  0.09625  Biso   1.000  H
  H324     1.0000 0.81844  0.37288  0.24173  Biso   1.000  H
  C315     1.0000 0.75819  0.41393  0.19103  Biso   1.000  C
  H325     1.0000 0.81841  0.37288  0.24173  Biso   1.000  H
  H326     1.0000 0.70650  0.44679  0.11923  Biso   1.000  H
  C316     1.0000 0.00002  0.66988  0.74996  Biso   1.000  C
  C317     1.0000 0.03682  0.80000  0.78860  Biso   1.000  C
  C318     1.0000 0.03686  0.80000  0.78860  Biso   1.000  C
  C319     1.0000 0.17736  0.36897  0.55379  Biso   1.000  C
  C320     1.0000 0.18384  0.38571  0.42701  Biso   1.000  C
  C321     1.0000 0.05904  0.38100  0.02691  Biso   1.000  C
  H327     1.0000 0.73943  0.42492  0.23003  Biso   1.000  H
  H328     1.0000 0.73939  0.42492  0.23003  Biso   1.000  H
  C322     1.0000 0.95556  0.62700  0.74996  Biso   1.000  C
  C323     1.0000 0.04447  0.62700  0.74996  Biso   1.000  C
  C324     1.0000 0.04451  0.62700  0.74996  Biso   1.000  C
  C325     1.0000 0.06237  0.86432  0.75999  Biso   1.000  C
  C326     1.0000 0.04893  0.77789  0.85638  Biso   1.000  C
  C327     1.0000 0.16885  0.42798  0.60465  Biso   1.000  C
  C328     1.0000 0.20864  0.30519  0.56852  Biso   1.000  C
  C329     1.0000 0.16527  0.36872  0.35981  Biso   1.000  C
  C330     1.0000 0.23322  0.41350  0.43338  Biso   1.000  C
  H329     1.0000 0.07494  0.36958  0.97459  Biso   1.000  H
  H330     1.0000 0.07348  0.44038  0.04634  Biso   1.000  H
  N37      1.0000 0.07395  0.31582  0.07485  Biso   1.000  N
  H331     1.0000 0.92542  0.65492  0.74996  Biso   1.000  H
  C331     1.0000 0.95623  0.54111  0.74981  Biso   1.000  C
  H332     1.0000 0.07462  0.65492  0.74996  Biso   1.000  H
  C332     1.0000 0.04381  0.54111  0.75017  Biso   1.000  C
  C333     1.0000 0.04384  0.54111  0.75017  Biso   1.000  C
  C334     1.0000 0.09860  0.90562  0.79706  Biso   1.000  C
  H333     1.0000 0.05491  0.88033  0.71451  Biso   1.000  H
  C335     1.0000 0.09863  0.90562  0.79706  Biso   1.000  C
  H334     1.0000 0.03242  0.73451  0.87726  Biso   1.000  H
  C336     1.0000 0.08524  0.81930  0.89361  Biso   1.000  C
  C337     1.0000 0.19331  0.42187  0.66908  Biso   1.000  C
  H335     1.0000 0.14710  0.47098  0.59577  Biso   1.000  H
  H336     1.0000 0.14714  0.47098  0.59577  Biso   1.000  H
  H337     1.0000 0.21352  0.26481  0.53510  Biso   1.000  H
  C338     1.0000 0.23325  0.29988  0.63269  Biso   1.000  C
  H338     1.0000 0.13340  0.34740  0.35402  Biso   1.000  H
  C339     1.0000 0.19443  0.38357  0.30264  Biso   1.000  C
  C340     1.0000 0.26112  0.42767  0.37558  Biso   1.000  C
  H339     1.0000 0.24703  0.42242  0.47751  Biso   1.000  H
  C341     1.0000 0.12775  0.31087  0.08435  Biso   1.000  C
  H340     1.0000 0.06230  0.33500  0.11584  Biso   1.000  H
  C342     1.0000 0.00002  0.49841  0.74996  Biso   1.000  C
  H341     1.0000 0.92634  0.51258  0.74960  Biso   1.000  H
  H342     1.0000 0.07373  0.51258  0.75038  Biso   1.000  H
  C343     1.0000 0.11067  0.88338  0.86499  Biso   1.000  C
  H343     1.0000 0.11522  0.94887  0.77628  Biso   1.000  H
  H344     1.0000 0.09262  0.80342  0.93909  Biso   1.000  H
  C344     1.0000 0.22599  0.35822  0.68349  Biso   1.000  C
  H345     1.0000 0.18762  0.46127  0.70308  Biso   1.000  H
  H346     1.0000 0.25481  0.25663  0.64141  Biso   1.000  H
  C345     1.0000 0.24184  0.41393  0.30901  Biso   1.000  C
  H347     1.0000 0.18163  0.37288  0.25831  Biso   1.000  H
  H348     1.0000 0.29350  0.44679  0.38080  Biso   1.000  H
  C346     1.0000 0.15388  0.26707  0.02514  Biso   1.000  C
  H349     1.0000 0.13610  0.27819  0.13432  Biso   1.000  H
  H350     1.0000 0.14310  0.37410  0.08905  Biso   1.000  H
  H351     1.0000 0.00002  0.44148  0.74996  Biso   1.000  H
  C347     1.0000 0.15111  0.92468  0.90708  Biso   1.000  C
  C348     1.0000 0.25151  0.35211  0.75367  Biso   1.000  C
  H352     1.0000 0.26061  0.42492  0.27000  Biso   1.000  H
  C349     1.0000 0.18125  0.30990  0.97527  Biso   1.000  C
  C350     1.0000 0.18129  0.30990  0.97527  Biso   1.000  C
  C351     1.0000 0.15122  0.18119  0.02206  Biso   1.000  C
  H353     1.0000 0.15562  0.89328  0.95601  Biso   1.000  H
  H354     1.0000 0.18551  0.92010  0.87956  Biso   1.000  H
  H355     1.0000 0.18555  0.92010  0.87956  Biso   1.000  H
  N38      1.0000 0.14063  0.01106  0.92086  Biso   1.000  N
  H356     1.0000 0.28022  0.31100  0.75096  Biso   1.000  H
  H357     1.0000 0.26623  0.40788  0.76699  Biso   1.000  H
  N39      1.0000 0.21688  0.32621  0.80709  Biso   1.000  N
  C352     1.0000 0.20824  0.26591  0.92457  Biso   1.000  C
  C353     1.0000 0.18355  0.40189  0.97407  Biso   1.000  C
  C354     1.0000 0.17649  0.13861  0.97068  Biso   1.000  C
  C355     1.0000 0.12080  0.13592  0.07626  Biso   1.000  C
  C356     1.0000 0.17752  0.04679  0.96890  Biso   1.000  C
  H358     1.0000 0.10602  0.02303  0.92797  Biso   1.000  H
  C357     1.0000 0.24149  0.31051  0.87471  Biso   1.000  C
  H359     1.0000 0.19202  0.35797  0.79497  Biso   1.000  H
  C358     1.0000 0.20468  0.18198  0.92102  Biso   1.000  C
  H360     1.0000 0.15452  0.42382  0.99611  Biso   1.000  H
  H361     1.0000 0.18473  0.42053  0.92666  Biso   1.000  H
  H362     1.0000 0.21272  0.41991  0.99887  Biso   1.000  H
  H363     1.0000 0.11139  0.08332  0.05824  Biso   1.000  H
  H364     1.0000 0.09149  0.16677  0.08654  Biso   1.000  H
  H365     1.0000 0.14031  0.12908  0.11813  Biso   1.000  H
  H366     1.0000 0.21292  0.02761  0.95418  Biso   1.000  H
  H367     1.0000 0.17115  0.02462  0.01924  Biso   1.000  H
  H368     1.0000 0.25163  0.36237  0.89549  Biso   1.000  H
  H369     1.0000 0.27142  0.27801  0.86719  Biso   1.000  H
  C359     1.0000 0.23155  0.13537  0.86473  Biso   1.000  C
  H370     1.0000 0.23794  0.17111  0.82609  Biso   1.000  H
  H371     1.0000 0.21134  0.09047  0.84917  Biso   1.000  H
  H372     1.0000 0.26252  0.11503  0.88317  Biso   1.000  H
  Ne1      1.0000 0.50002  0.30730  0.24999  Biso   1.000  Ne
  He1      1.0000 0.46935  0.42079  0.38830  Biso   1.000  He
  He2      1.0000 0.55571  0.21498  0.25945  Biso   1.000  He
  He3      1.0000 0.53095  0.42117  0.11077  Biso   1.000  He
  Ar1      1.0000 0.50018  0.34158  0.24933  Biso   1.000  Ar
  Ne2      1.0000 0.99697  0.80688  0.24201  Biso   1.000  Ne
  He4      1.0000 0.96938  0.92080  0.38830  Biso   1.000  He
  He5      1.0000 0.05413  0.69939  0.25954  Biso   1.000  He
  He6      1.0000 0.03865  0.91741  0.11336  Biso   1.000  He
  Ar2      1.0000 0.99885  0.84036  0.24992  Biso   1.000  Ar
  Ne3      1.0000 0.50002  0.69269  0.75000  Biso   1.000  Ne
  He7      1.0000 0.46853  0.57804  0.89101  Biso   1.000  He
  He8      1.0000 0.54526  0.85332  0.75893  Biso   1.000  He
  He9      1.0000 0.53106  0.57865  0.61044  Biso   1.000  He
  Ar3      1.0000 0.50003  0.65860  0.74949  Biso   1.000  Ar
  Ne4      1.0000 0.99756  0.19270  0.76830  Biso   1.000  Ne
  He10     1.0000 0.96853  0.07809  0.89099  Biso   1.000  He
  He11     1.0000 0.94428  0.28454  0.74056  Biso   1.000  He
  He12     1.0000 0.03275  0.07640  0.60493  Biso   1.000  He
  Ar4      1.0000 0.99737  0.15998  0.74871  Biso   1.000  Ar
