data_image0
_cell_length_a       38.524
_cell_length_b       38.524
_cell_length_c       18.607
_cell_angle_alpha    90
_cell_angle_beta     90
_cell_angle_gamma    120

_symmetry_space_group_name_H-M    "P 1"
_symmetry_int_tables_number       1

loop_
  _symmetry_equiv_pos_as_xyz
  'x, y, z'

loop_
  _atom_site_label
  _atom_site_occupancy
  _atom_site_fract_x
  _atom_site_fract_y
  _atom_site_fract_z
  _atom_site_thermal_displace_type
  _atom_site_B_iso_or_equiv
  _atom_site_type_symbol
  C1       1.0000 0.81420  0.81390  0.38684  Biso   1.000  C
  C2       1.0000 0.78462  0.78821  0.43446  Biso   1.000  C
  H1       1.0000 0.83397  0.80785  0.37056  Biso   1.000  H
  C3       1.0000 0.81488  0.84843  0.36314  Biso   1.000  C
  C4       1.0000 0.78216  0.74955  0.45666  Biso   1.000  C
  C5       1.0000 0.75574  0.79712  0.45827  Biso   1.000  C
  C6       1.0000 0.78600  0.85733  0.38700  Biso   1.000  C
  C7       1.0000 0.84064  0.87040  0.30542  Biso   1.000  C
  N1       1.0000 0.75149  0.72128  0.48364  Biso   1.000  N
  H2       1.0000 0.80498  0.74655  0.44972  Biso   1.000  H
  H3       1.0000 0.80497  0.74652  0.44972  Biso   1.000  H
  C8       1.0000 0.75643  0.83168  0.43457  Biso   1.000  C
  H4       1.0000 0.73547  0.77952  0.49073  Biso   1.000  H
  H5       1.0000 0.78645  0.88092  0.37083  Biso   1.000  H
  C9       1.0000 0.85788  0.89015  0.25415  Biso   1.000  C
  C10      1.0000 0.75687  0.68828  0.50605  Biso   1.000  C
  C11      1.0000 0.75686  0.68825  0.50605  Biso   1.000  C
  C12      1.0000 0.72255  0.83842  0.45343  Biso   1.000  C
  C13      1.0000 0.87636  0.91066  0.18584  Biso   1.000  C
  C14      1.0000 0.72041  0.64983  0.47106  Biso   1.000  C
  C15      1.0000 0.75310  0.68136  0.59005  Biso   1.000  C
  H6       1.0000 0.78297  0.69194  0.48815  Biso   1.000  H
  N2       1.0000 0.71816  0.86384  0.42054  Biso   1.000  N
  H7       1.0000 0.70448  0.82325  0.49073  Biso   1.000  H
  H8       1.0000 0.70447  0.82322  0.49073  Biso   1.000  H
  C16      1.0000 0.87451  0.94459  0.16693  Biso   1.000  C
  C17      1.0000 0.89020  0.89321  0.13662  Biso   1.000  C
  C18      1.0000 0.72049  0.61230  0.49331  Biso   1.000  C
  C19      1.0000 0.72047  0.61227  0.49331  Biso   1.000  C
  H9       1.0000 0.69495  0.64803  0.48611  Biso   1.000  H
  H10      1.0000 0.72226  0.65234  0.41801  Biso   1.000  H
  C20      1.0000 0.75660  0.64407  0.60413  Biso   1.000  C
  C21      1.0000 0.75658  0.64404  0.60413  Biso   1.000  C
  N3       1.0000 0.78947  0.71673  0.61982  Biso   1.000  N
  H11      1.0000 0.72778  0.67875  0.60961  Biso   1.000  H
  H12      1.0000 0.72777  0.67872  0.60961  Biso   1.000  H
  C22      1.0000 0.67899  0.86405  0.44225  Biso   1.000  C
  H13      1.0000 0.86507  0.95655  0.20052  Biso   1.000  H
  C23      1.0000 0.88646  0.96107  0.09873  Biso   1.000  C
  C24      1.0000 0.90215  0.90970  0.06847  Biso   1.000  C
  H14      1.0000 0.89146  0.87004  0.14951  Biso   1.000  H
  C25      1.0000 0.71758  0.60720  0.57451  Biso   1.000  C
  H15      1.0000 0.74537  0.61353  0.47622  Biso   1.000  H
  H16      1.0000 0.69747  0.58874  0.47063  Biso   1.000  H
  H17      1.0000 0.78047  0.64644  0.57935  Biso   1.000  H
  H18      1.0000 0.75937  0.64095  0.65626  Biso   1.000  H
  H19      1.0000 0.75936  0.64092  0.65626  Biso   1.000  H
  C26      1.0000 0.78536  0.73840  0.66061  Biso   1.000  C
  C27      1.0000 0.65417  0.85703  0.37282  Biso   1.000  C
  H20      1.0000 0.66326  0.84184  0.47713  Biso   1.000  H
  C28      1.0000 0.68898  0.90304  0.47536  Biso   1.000  C
  C29      1.0000 0.68897  0.90301  0.47536  Biso   1.000  C
  C30      1.0000 0.90030  0.94363  0.04950  Biso   1.000  C
  C31      1.0000 0.87972  0.99326  0.07701  Biso   1.000  C
  C32      1.0000 0.91360  0.88800  0.01564  Biso   1.000  C
  H21      1.0000 0.71637  0.58185  0.58865  Biso   1.000  H
  H22      1.0000 0.69348  0.60714  0.59311  Biso   1.000  H
  C33      1.0000 0.82002  0.77254  0.69382  Biso   1.000  C
  H23      1.0000 0.75917  0.73333  0.67163  Biso   1.000  H
  H24      1.0000 0.67047  0.87724  0.33622  Biso   1.000  H
  H25      1.0000 0.64586  0.83015  0.35315  Biso   1.000  H
  C34      1.0000 0.61830  0.86021  0.39066  Biso   1.000  C
  C35      1.0000 0.61828  0.86018  0.39066  Biso   1.000  C
  N4       1.0000 0.71053  0.90892  0.54291  Biso   1.000  N
  H26      1.0000 0.70778  0.92444  0.44172  Biso   1.000  H
  C36      1.0000 0.65285  0.91015  0.48772  Biso   1.000  C
  H27      1.0000 0.90847  0.95493  0.00296  Biso   1.000  H
  N5       1.0000 0.88438  0.00606  0.01145  Biso   1.000  N
  H28      1.0000 0.87159  0.00555  0.11232  Biso   1.000  H
  H29      1.0000 0.87157  0.00552  0.11232  Biso   1.000  H
  N6       1.0000 0.90860  0.85323  0.02295  Biso   1.000  N
  H30      1.0000 0.92588  0.90175  0.97232  Biso   1.000  H
  H31      1.0000 0.92586  0.90172  0.97232  Biso   1.000  H
  C37      1.0000 0.85913  0.78237  0.67770  Biso   1.000  C
  C38      1.0000 0.81288  0.79469  0.74456  Biso   1.000  C
  C39      1.0000 0.62626  0.89945  0.41936  Biso   1.000  C
  H32      1.0000 0.60186  0.85434  0.34664  Biso   1.000  H
  H33      1.0000 0.60218  0.83923  0.42645  Biso   1.000  H
  C40      1.0000 0.74445  0.94114  0.55286  Biso   1.000  C
  H34      1.0000 0.63648  0.89345  0.52846  Biso   1.000  H
  H35      1.0000 0.63646  0.89342  0.52846  Biso   1.000  H
  H36      1.0000 0.66316  0.93862  0.50035  Biso   1.000  H
  C41      1.0000 0.87745  0.03774  0.99602  Biso   1.000  C
  C42      1.0000 0.92412  0.83812  0.97211  Biso   1.000  C
  H37      1.0000 0.86407  0.76723  0.64304  Biso   1.000  H
  C43      1.0000 0.89109  0.81441  0.71226  Biso   1.000  C
  C44      1.0000 0.84484  0.82673  0.77912  Biso   1.000  C
  H38      1.0000 0.78607  0.78794  0.75563  Biso   1.000  H
  H39      1.0000 0.60055  0.89813  0.43134  Biso   1.000  H
  H40      1.0000 0.64008  0.92043  0.38244  Biso   1.000  H
  C45      1.0000 0.76781  0.95022  0.61982  Biso   1.000  C
  H41      1.0000 0.75485  0.96002  0.51486  Biso   1.000  H
  C46      1.0000 0.76780  0.95019  0.61982  Biso   1.000  C
  C47      1.0000 0.84012  0.02387  0.94411  Biso   1.000  C
  C48      1.0000 0.91399  0.07587  0.97211  Biso   1.000  C
  H42      1.0000 0.86937  0.04443  0.04273  Biso   1.000  H
  C49      1.0000 0.96224  0.83971  0.99602  Biso   1.000  C
  C50      1.0000 0.88942  0.79685  0.94271  Biso   1.000  C
  H43      1.0000 0.93208  0.85694  0.93046  Biso   1.000  H
  C51      1.0000 0.93136  0.82274  0.70672  Biso   1.000  C
  C52      1.0000 0.88393  0.83659  0.76294  Biso   1.000  C
  C53      1.0000 0.84090  0.85047  0.83974  Biso   1.000  C
  C54      1.0000 0.75627  0.92375  0.67743  Biso   1.000  C
  C55      1.0000 0.80340  0.98667  0.62310  Biso   1.000  C
  H44      1.0000 0.84509  0.01335  0.89912  Biso   1.000  H
  H45      1.0000 0.81607  0.00184  0.96732  Biso   1.000  H
  C56      1.0000 0.83194  0.05855  0.92562  Biso   1.000  C
  H46      1.0000 0.92486  0.06793  0.93046  Biso   1.000  H
  C57      1.0000 0.90743  0.11058  0.94271  Biso   1.000  C
  N7       1.0000 0.94462  0.09140  0.02295  Biso   1.000  N
  H47      1.0000 0.95556  0.82493  0.04273  Biso   1.000  H
  C58      1.0000 0.97614  0.81627  0.94411  Biso   1.000  C
  C59      1.0000 0.97613  0.81624  0.94411  Biso   1.000  C
  N8       1.0000 0.99393  0.87831  0.01145  Biso   1.000  N
  C60      1.0000 0.90287  0.77308  0.89552  Biso   1.000  C
  H48      1.0000 0.87437  0.77994  0.98431  Biso   1.000  H
  H49      1.0000 0.87067  0.80203  0.91466  Biso   1.000  H
  C61      1.0000 0.96263  0.82526  0.69162  Biso   1.000  C
  C62      1.0000 0.96261  0.82523  0.69162  Biso   1.000  C
  H50      1.0000 0.90568  0.85844  0.78653  Biso   1.000  H
  N9       1.0000 0.80480  0.84031  0.86876  Biso   1.000  N
  H51      1.0000 0.86428  0.87304  0.85812  Biso   1.000  H
  C63      1.0000 0.78031  0.93380  0.73832  Biso   1.000  C
  H52      1.0000 0.73197  0.89885  0.67523  Biso   1.000  H
  C64      1.0000 0.82745  0.99671  0.68394  Biso   1.000  C
  H53      1.0000 0.81127  0.00474  0.58376  Biso   1.000  H
  H54      1.0000 0.82237  0.06583  0.96931  Biso   1.000  H
  H55      1.0000 0.81027  0.04895  0.88934  Biso   1.000  H
  H56      1.0000 0.81026  0.04892  0.88934  Biso   1.000  H
  C65      1.0000 0.87018  0.09712  0.89552  Biso   1.000  C
  H57      1.0000 0.90556  0.12563  0.98431  Biso   1.000  H
  H58      1.0000 0.93138  0.12934  0.91466  Biso   1.000  H
  C66      1.0000 0.97441  0.08639  0.01564  Biso   1.000  C
  H59      1.0000 0.98665  0.83174  0.89912  Biso   1.000  H
  H60      1.0000 0.99818  0.81423  0.96732  Biso   1.000  H
  C67      1.0000 0.94147  0.77341  0.92562  Biso   1.000  C
  C68      1.0000 0.00674  0.88644  0.07701  Biso   1.000  C
  H61      1.0000 0.90857  0.78453  0.84651  Biso   1.000  H
  H62      1.0000 0.88067  0.74493  0.89214  Biso   1.000  H
  C69      1.0000 0.00329  0.83075  0.68394  Biso   1.000  C
  C70      1.0000 0.80566  0.86561  0.92605  Biso   1.000  C
  C71      1.0000 0.76979  0.90418  0.79852  Biso   1.000  C
  C72      1.0000 0.81589  0.97027  0.74155  Biso   1.000  C
  C73      1.0000 0.86263  0.03738  0.69162  Biso   1.000  C
  H63      1.0000 0.87597  0.09143  0.84651  Biso   1.000  H
  H64      1.0000 0.86426  0.11933  0.89214  Biso   1.000  H
  H65      1.0000 0.97586  0.07413  0.97232  Biso   1.000  H
  C74      1.0000 0.00754  0.09784  0.06847  Biso   1.000  C
  H66      1.0000 0.93415  0.75653  0.96931  Biso   1.000  H
  H67      1.0000 0.95106  0.76133  0.88934  Biso   1.000  H
  H68      1.0000 0.99445  0.86603  0.11232  Biso   1.000  H
  C75      1.0000 0.03894  0.92540  0.09873  Biso   1.000  C
  C76      1.0000 0.01331  0.81672  0.62310  Biso   1.000  C
  C77      1.0000 0.02974  0.84564  0.74155  Biso   1.000  C
  C78      1.0000 0.79260  0.83938  0.99414  Biso   1.000  C
  C79      1.0000 0.77733  0.88095  0.90901  Biso   1.000  C
  H69      1.0000 0.83349  0.88866  0.93234  Biso   1.000  H
  H70      1.0000 0.83347  0.88863  0.93234  Biso   1.000  H
  N10      1.0000 0.79288  0.90931  0.84834  Biso   1.000  N
  H71      1.0000 0.74426  0.88053  0.79803  Biso   1.000  H
  H72      1.0000 0.83238  0.97714  0.78315  Biso   1.000  H
  C80      1.0000 0.89137  0.06865  0.70672  Biso   1.000  C
  C81      1.0000 0.04333  0.09970  0.04950  Biso   1.000  C
  C82      1.0000 0.00301  0.10980  0.13662  Biso   1.000  C
  C83      1.0000 0.05636  0.95667  0.04950  Biso   1.000  C
  C84      1.0000 0.05541  0.92990  0.16693  Biso   1.000  C
  H73      1.0000 0.99526  0.80653  0.58376  Biso   1.000  H
  C85      1.0000 0.04981  0.81762  0.61982  Biso   1.000  C
  H74      1.0000 0.02286  0.85523  0.78315  Biso   1.000  H
  C86      1.0000 0.06621  0.84651  0.73832  Biso   1.000  C
  H75      1.0000 0.76608  0.81525  0.98624  Biso   1.000  H
  H76      1.0000 0.76606  0.81522  0.98624  Biso   1.000  H
  H77      1.0000 0.81216  0.83054  0.00505  Biso   1.000  H
  C87      1.0000 0.79030  0.86369  0.05745  Biso   1.000  C
  H78      1.0000 0.75017  0.85793  0.89681  Biso   1.000  H
  C88      1.0000 0.77378  0.90541  0.97565  Biso   1.000  C
  C89      1.0000 0.77376  0.90538  0.97565  Biso   1.000  C
  C90      1.0000 0.92333  0.10893  0.71226  Biso   1.000  C
  C91      1.0000 0.07461  0.11355  0.09873  Biso   1.000  C
  H79      1.0000 0.04647  0.09155  0.00296  Biso   1.000  H
  H80      1.0000 0.97858  0.10854  0.14951  Biso   1.000  H
  C92      1.0000 0.03428  0.12365  0.18584  Biso   1.000  C
  C93      1.0000 0.08934  0.96572  0.18584  Biso   1.000  C
  H81      1.0000 0.04346  0.90853  0.20052  Biso   1.000  H
  H82      1.0000 0.04507  0.95355  0.00296  Biso   1.000  H
  C94      1.0000 0.09030  0.99245  0.06847  Biso   1.000  C
  C95      1.0000 0.05886  0.80332  0.55286  Biso   1.000  C
  C96      1.0000 0.07626  0.83251  0.67743  Biso   1.000  C
  C97      1.0000 0.09583  0.86564  0.79852  Biso   1.000  C
  H83      1.0000 0.81708  0.88725  0.06621  Biso   1.000  H
  H84      1.0000 0.78197  0.84693  0.10136  Biso   1.000  H
  C98      1.0000 0.75947  0.87804  0.04106  Biso   1.000  C
  H85      1.0000 0.80017  0.92933  0.98565  Biso   1.000  H
  H86      1.0000 0.75457  0.91455  0.96421  Biso   1.000  H
  H87      1.0000 0.75456  0.91452  0.96421  Biso   1.000  H
  C99      1.0000 0.92326  0.14088  0.67770  Biso   1.000  C
  C100     1.0000 0.95264  0.11606  0.76294  Biso   1.000  C
  C101     1.0000 0.07010  0.12551  0.16693  Biso   1.000  C
  C102     1.0000 0.11357  0.12029  0.07701  Biso   1.000  C
  C103     1.0000 0.03227  0.14211  0.25415  Biso   1.000  C
  C104     1.0000 0.10984  0.96773  0.25415  Biso   1.000  C
  C105     1.0000 0.10679  0.99698  0.13662  Biso   1.000  C
  C106     1.0000 0.11199  0.02560  0.01564  Biso   1.000  C
  N11      1.0000 0.09108  0.80161  0.54291  Biso   1.000  N
  H88      1.0000 0.03998  0.79484  0.51486  Biso   1.000  H
  H89      1.0000 0.10118  0.83314  0.67523  Biso   1.000  H
  N12      1.0000 0.09069  0.88359  0.84834  Biso   1.000  N
  H90      1.0000 0.11947  0.86375  0.79803  Biso   1.000  H
  H91      1.0000 0.73267  0.85455  0.03155  Biso   1.000  H
  H92      1.0000 0.75727  0.89264  0.08303  Biso   1.000  H
  C107     1.0000 0.95249  0.17997  0.69382  Biso   1.000  C
  H93      1.0000 0.90316  0.13594  0.64304  Biso   1.000  H
  H94      1.0000 0.95276  0.09433  0.78653  Biso   1.000  H
  C108     1.0000 0.98191  0.15518  0.77912  Biso   1.000  C
  H95      1.0000 0.09148  0.13495  0.20052  Biso   1.000  H
  N13      1.0000 0.12169  0.11562  0.01145  Biso   1.000  N
  H96      1.0000 0.13397  0.12844  0.11232  Biso   1.000  H
  C109     1.0000 0.02976  0.15935  0.30542  Biso   1.000  C
  C110     1.0000 0.12960  0.97024  0.30542  Biso   1.000  C
  H97      1.0000 0.12997  0.02144  0.14951  Biso   1.000  H
  H98      1.0000 0.09827  0.02414  0.97232  Biso   1.000  H
  N14      1.0000 0.14679  0.05540  0.02295  Biso   1.000  N
  C111     1.0000 0.09697  0.78594  0.47536  Biso   1.000  C
  C112     1.0000 0.11903  0.89636  0.90901  Biso   1.000  C
  C113     1.0000 0.98184  0.18713  0.74456  Biso   1.000  C
  C114     1.0000 0.95303  0.21465  0.66061  Biso   1.000  C
  C115     1.0000 0.00957  0.15911  0.83974  Biso   1.000  C
  C116     1.0000 0.16027  0.12254  0.99602  Biso   1.000  C
  C117     1.0000 0.03356  0.18512  0.36314  Biso   1.000  C
  C118     1.0000 0.15155  0.96644  0.36314  Biso   1.000  C
  C119     1.0000 0.16189  0.08600  0.97211  Biso   1.000  C
  H99      1.0000 0.07558  0.78333  0.44172  Biso   1.000  H
  C120     1.0000 0.08987  0.74271  0.48772  Biso   1.000  C
  C121     1.0000 0.13594  0.81492  0.44225  Biso   1.000  C
  C122     1.0000 0.13442  0.94006  0.92605  Biso   1.000  C
  C123     1.0000 0.09460  0.86836  0.97565  Biso   1.000  C
  H100     1.0000 0.14208  0.89225  0.89681  Biso   1.000  H
  H101     1.0000 0.14207  0.89222  0.89681  Biso   1.000  H
  H102     1.0000 0.00186  0.21393  0.75563  Biso   1.000  H
  H103     1.0000 0.97418  0.24084  0.67163  Biso   1.000  H
  N15      1.0000 0.92726  0.21051  0.61982  Biso   1.000  N
  N16      1.0000 0.03551  0.19519  0.86876  Biso   1.000  N
  H104     1.0000 0.00876  0.13573  0.85812  Biso   1.000  H
  C124     1.0000 0.18375  0.15989  0.94411  Biso   1.000  C
  H105     1.0000 0.17507  0.13063  0.04273  Biso   1.000  H
  C125     1.0000 0.99972  0.18581  0.38684  Biso   1.000  C
  C126     1.0000 0.07133  0.21399  0.38700  Biso   1.000  C
  C127     1.0000 0.14267  0.92867  0.38700  Biso   1.000  C
  C128     1.0000 0.18612  0.00031  0.38684  Biso   1.000  C
  C129     1.0000 0.20315  0.09257  0.94271  Biso   1.000  C
  H106     1.0000 0.14305  0.07512  0.93046  Biso   1.000  H
  H107     1.0000 0.10657  0.74304  0.52846  Biso   1.000  H
  C130     1.0000 0.10057  0.72683  0.41936  Biso   1.000  C
  H108     1.0000 0.06136  0.72452  0.50035  Biso   1.000  H
  N17      1.0000 0.13617  0.85431  0.42054  Biso   1.000  N
  C131     1.0000 0.14297  0.79715  0.37282  Biso   1.000  C
  H109     1.0000 0.15817  0.82142  0.47713  Biso   1.000  H
  N18      1.0000 0.15971  0.96452  0.86876  Biso   1.000  N
  H110     1.0000 0.11137  0.94483  0.93234  Biso   1.000  H
  C132     1.0000 0.16062  0.95322  0.99414  Biso   1.000  C
  N19      1.0000 0.15969  0.96449  0.86876  Biso   1.000  N
  H111     1.0000 0.08547  0.84004  0.96421  Biso   1.000  H
  H112     1.0000 0.07065  0.87082  0.98565  Biso   1.000  H
  C133     1.0000 0.12197  0.88146  0.04106  Biso   1.000  C
  C134     1.0000 0.12195  0.88143  0.04106  Biso   1.000  C
  C135     1.0000 0.92827  0.24690  0.59005  Biso   1.000  C
  C136     1.0000 0.05995  0.19436  0.92605  Biso   1.000  C
  H113     1.0000 0.16827  0.15494  0.89912  Biso   1.000  H
  C137     1.0000 0.22659  0.16807  0.92562  Biso   1.000  C
  H114     1.0000 0.18577  0.18392  0.96732  Biso   1.000  H
  H115     1.0000 0.97386  0.16603  0.37056  Biso   1.000  H
  C138     1.0000 0.00361  0.21540  0.43446  Biso   1.000  C
  C139     1.0000 0.07524  0.24357  0.43457  Biso   1.000  C
  H116     1.0000 0.09447  0.21354  0.37083  Biso   1.000  H
  C140     1.0000 0.16834  0.92477  0.43457  Biso   1.000  C
  H117     1.0000 0.11908  0.90553  0.37083  Biso   1.000  H
  C141     1.0000 0.21179  0.99641  0.43446  Biso   1.000  C
  C142     1.0000 0.21177  0.99638  0.43446  Biso   1.000  C
  H118     1.0000 0.19218  0.02614  0.37056  Biso   1.000  H
  C143     1.0000 0.22694  0.12982  0.89552  Biso   1.000  C
  H119     1.0000 0.22008  0.09445  0.98431  Biso   1.000  H
  H120     1.0000 0.19796  0.06865  0.91466  Biso   1.000  H
  C144     1.0000 0.22693  0.12979  0.89552  Biso   1.000  C
  H121     1.0000 0.22007  0.09442  0.98431  Biso   1.000  H
  H122     1.0000 0.10186  0.70243  0.43134  Biso   1.000  H
  H123     1.0000 0.07958  0.71963  0.38244  Biso   1.000  H
  C145     1.0000 0.13979  0.75809  0.39066  Biso   1.000  C
  C146     1.0000 0.16156  0.88413  0.45343  Biso   1.000  C
  H124     1.0000 0.12277  0.79325  0.33622  Biso   1.000  H
  H125     1.0000 0.16986  0.81573  0.35315  Biso   1.000  H
  H126     1.0000 0.12275  0.79322  0.33622  Biso   1.000  H
  C147     1.0000 0.14954  0.99045  0.83974  Biso   1.000  C
  H127     1.0000 0.18476  0.95082  0.98624  Biso   1.000  H
  H128     1.0000 0.16946  0.98163  0.00505  Biso   1.000  H
  C148     1.0000 0.13631  0.92660  0.05745  Biso   1.000  C
  H129     1.0000 0.14546  0.87813  0.03155  Biso   1.000  H
  H130     1.0000 0.10738  0.86465  0.08303  Biso   1.000  H
  C149     1.0000 0.93141  0.24315  0.50605  Biso   1.000  C
  C150     1.0000 0.88747  0.24342  0.60413  Biso   1.000  C
  H131     1.0000 0.95096  0.27223  0.60961  Biso   1.000  H
  C151     1.0000 0.93139  0.24312  0.50605  Biso   1.000  C
  H132     1.0000 0.05516  0.16654  0.93234  Biso   1.000  H
  C152     1.0000 0.04677  0.20739  0.99414  Biso   1.000  C
  C153     1.0000 0.10363  0.22268  0.90901  Biso   1.000  C
  H133     1.0000 0.24347  0.17763  0.96931  Biso   1.000  H
  H134     1.0000 0.23868  0.18974  0.88934  Biso   1.000  H
  C154     1.0000 0.96739  0.21782  0.45666  Biso   1.000  C
  C155     1.0000 0.04138  0.24426  0.45827  Biso   1.000  C
  C156     1.0000 0.11588  0.27744  0.45343  Biso   1.000  C
  C157     1.0000 0.20290  0.95864  0.45827  Biso   1.000  C
  C158     1.0000 0.25045  0.03262  0.45666  Biso   1.000  C
  H135     1.0000 0.21548  0.12404  0.84651  Biso   1.000  H
  H136     1.0000 0.25507  0.13573  0.89214  Biso   1.000  H
  H137     1.0000 0.14568  0.74754  0.34664  Biso   1.000  H
  H138     1.0000 0.16078  0.76295  0.42645  Biso   1.000  H
  H139     1.0000 0.17676  0.88125  0.49073  Biso   1.000  H
  H140     1.0000 0.17675  0.88122  0.49073  Biso   1.000  H
  H141     1.0000 0.12696  0.99122  0.85812  Biso   1.000  H
  C159     1.0000 0.17325  0.01808  0.77912  Biso   1.000  C
  H142     1.0000 0.11278  0.92984  0.06621  Biso   1.000  H
  H143     1.0000 0.15307  0.93505  0.10136  Biso   1.000  H
  H144     1.0000 0.15306  0.93502  0.10136  Biso   1.000  H
  N20      1.0000 0.96978  0.24852  0.48364  Biso   1.000  N
  H145     1.0000 0.90898  0.21705  0.48815  Biso   1.000  H
  C160     1.0000 0.92944  0.27960  0.47106  Biso   1.000  C
  C161     1.0000 0.92942  0.27957  0.47106  Biso   1.000  C
  C162     1.0000 0.88963  0.28242  0.57451  Biso   1.000  C
  H146     1.0000 0.88156  0.24063  0.65626  Biso   1.000  H
  H147     1.0000 0.86597  0.21953  0.57935  Biso   1.000  H
  H148     1.0000 0.04916  0.23392  0.98624  Biso   1.000  H
  H149     1.0000 0.01839  0.18785  0.00505  Biso   1.000  H
  C163     1.0000 0.07339  0.20970  0.05745  Biso   1.000  C
  H150     1.0000 0.01837  0.18782  0.00505  Biso   1.000  H
  N21      1.0000 0.11644  0.20712  0.84834  Biso   1.000  N
  C164     1.0000 0.13163  0.22625  0.97565  Biso   1.000  C
  H151     1.0000 0.10776  0.24984  0.89681  Biso   1.000  H
  N22      1.0000 0.11642  0.20709  0.84834  Biso   1.000  N
  H152     1.0000 0.94157  0.19504  0.44972  Biso   1.000  H
  H153     1.0000 0.04406  0.26452  0.49073  Biso   1.000  H
  N23      1.0000 0.14567  0.28185  0.42054  Biso   1.000  N
  H154     1.0000 0.11878  0.29555  0.49073  Biso   1.000  H
  H155     1.0000 0.22047  0.95595  0.49073  Biso   1.000  H
  N24      1.0000 0.27874  0.03022  0.48364  Biso   1.000  N
  H156     1.0000 0.25346  0.05843  0.44972  Biso   1.000  H
  C165     1.0000 0.20530  0.01817  0.74456  Biso   1.000  C
  C166     1.0000 0.16342  0.04734  0.76294  Biso   1.000  C
  H157     1.0000 0.95306  0.30505  0.48611  Biso   1.000  H
  H158     1.0000 0.93007  0.27774  0.41801  Biso   1.000  H
  C167     1.0000 0.89181  0.27951  0.49331  Biso   1.000  C
  H159     1.0000 0.86548  0.28365  0.58865  Biso   1.000  H
  H160     1.0000 0.91368  0.30655  0.59311  Biso   1.000  H
  H161     1.0000 0.07016  0.18294  0.06621  Biso   1.000  H
  H162     1.0000 0.06497  0.21803  0.10136  Biso   1.000  H
  C168     1.0000 0.11854  0.24051  0.04106  Biso   1.000  C
  C169     1.0000 0.13439  0.23020  0.79852  Biso   1.000  C
  H163     1.0000 0.12917  0.19984  0.98565  Biso   1.000  H
  H164     1.0000 0.15996  0.24543  0.96421  Biso   1.000  H
  C170     1.0000 0.18507  0.32102  0.44225  Biso   1.000  C
  C171     1.0000 0.31175  0.06862  0.50605  Biso   1.000  C
  C172     1.0000 0.18560  0.07668  0.71226  Biso   1.000  C
  H165     1.0000 0.14158  0.04725  0.78653  Biso   1.000  H
  H166     1.0000 0.21208  0.99815  0.75563  Biso   1.000  H
  H167     1.0000 0.21207  0.99812  0.75563  Biso   1.000  H
  C173     1.0000 0.22747  0.04752  0.69382  Biso   1.000  C
  H168     1.0000 0.86818  0.25463  0.47622  Biso   1.000  H
  H169     1.0000 0.89127  0.30253  0.47063  Biso   1.000  H
  H170     1.0000 0.12186  0.26734  0.03155  Biso   1.000  H
  H171     1.0000 0.13536  0.24273  0.08303  Biso   1.000  H
  C174     1.0000 0.15349  0.21971  0.73832  Biso   1.000  C
  H172     1.0000 0.13628  0.25574  0.79803  Biso   1.000  H
  C175     1.0000 0.21406  0.31104  0.47536  Biso   1.000  C
  C176     1.0000 0.20288  0.34584  0.37282  Biso   1.000  C
  H173     1.0000 0.17857  0.33673  0.47713  Biso   1.000  H
  C177     1.0000 0.31865  0.07173  0.59005  Biso   1.000  C
  H174     1.0000 0.30806  0.09104  0.48815  Biso   1.000  H
  C178     1.0000 0.35017  0.07059  0.47106  Biso   1.000  C
  C179     1.0000 0.17728  0.10863  0.70672  Biso   1.000  C
  C180     1.0000 0.21761  0.07674  0.67770  Biso   1.000  C
  C181     1.0000 0.26163  0.04698  0.66061  Biso   1.000  C
  C182     1.0000 0.15438  0.18410  0.74155  Biso   1.000  C
  C183     1.0000 0.16751  0.24375  0.67743  Biso   1.000  C
  N25      1.0000 0.19839  0.28946  0.54291  Biso   1.000  N
  C184     1.0000 0.25729  0.34716  0.48772  Biso   1.000  C
  H175     1.0000 0.21666  0.29222  0.44172  Biso   1.000  H
  H176     1.0000 0.20677  0.32954  0.33622  Biso   1.000  H
  H177     1.0000 0.18426  0.35414  0.35315  Biso   1.000  H
  C185     1.0000 0.24188  0.38169  0.39066  Biso   1.000  C
  N26      1.0000 0.28326  0.07275  0.61982  Biso   1.000  N
  C186     1.0000 0.35595  0.11253  0.60413  Biso   1.000  C
  H178     1.0000 0.32127  0.04904  0.60961  Biso   1.000  H
  H179     1.0000 0.35197  0.04695  0.48611  Biso   1.000  H
  H180     1.0000 0.34766  0.06994  0.41801  Biso   1.000  H
  C187     1.0000 0.38772  0.10821  0.49331  Biso   1.000  C
  H181     1.0000 0.23276  0.09682  0.64304  Biso   1.000  H
  C188     1.0000 0.17475  0.13738  0.69162  Biso   1.000  C
  H182     1.0000 0.26666  0.02584  0.67163  Biso   1.000  H
  C189     1.0000 0.16927  0.17256  0.68394  Biso   1.000  C
  H183     1.0000 0.14477  0.16765  0.78315  Biso   1.000  H
  H184     1.0000 0.14476  0.16762  0.78315  Biso   1.000  H
  C190     1.0000 0.18239  0.23218  0.61982  Biso   1.000  C
  H185     1.0000 0.16688  0.26803  0.67523  Biso   1.000  H
  C191     1.0000 0.19670  0.25556  0.55286  Biso   1.000  C
  H186     1.0000 0.25696  0.36353  0.52846  Biso   1.000  H
  C192     1.0000 0.27318  0.37375  0.41936  Biso   1.000  C
  H187     1.0000 0.27546  0.33682  0.50035  Biso   1.000  H
  H188     1.0000 0.25247  0.39815  0.34664  Biso   1.000  H
  H189     1.0000 0.23708  0.39785  0.42645  Biso   1.000  H
  H190     1.0000 0.35906  0.11843  0.65626  Biso   1.000  H
  C193     1.0000 0.39279  0.11037  0.57451  Biso   1.000  C
  H191     1.0000 0.35356  0.13402  0.57935  Biso   1.000  H
  H192     1.0000 0.38647  0.13183  0.47622  Biso   1.000  H
  H193     1.0000 0.41125  0.10872  0.47063  Biso   1.000  H
  C194     1.0000 0.18329  0.19660  0.62310  Biso   1.000  C
  H194     1.0000 0.20516  0.24513  0.51486  Biso   1.000  H
  H195     1.0000 0.29758  0.39943  0.43134  Biso   1.000  H
  H196     1.0000 0.28037  0.35993  0.38244  Biso   1.000  H
  H197     1.0000 0.41816  0.13453  0.58865  Biso   1.000  H
  H198     1.0000 0.39287  0.08633  0.59311  Biso   1.000  H
  H199     1.0000 0.19347  0.18872  0.58376  Biso   1.000  H
  C195     1.0000 0.72614  0.77706  0.24120  Biso   1.000  C
  C196     1.0000 0.72105  0.77488  0.15999  Biso   1.000  C
  C197     1.0000 0.68928  0.77919  0.27081  Biso   1.000  C
  H200     1.0000 0.75149  0.80119  0.25528  Biso   1.000  H
  H201     1.0000 0.72620  0.75300  0.25979  Biso   1.000  H
  C198     1.0000 0.68350  0.73726  0.13769  Biso   1.000  C
  H202     1.0000 0.71980  0.79850  0.14290  Biso   1.000  H
  H203     1.0000 0.74459  0.77539  0.13731  Biso   1.000  H
  C199     1.0000 0.65198  0.73840  0.25668  Biso   1.000  C
  H204     1.0000 0.69239  0.78510  0.32289  Biso   1.000  H
  H205     1.0000 0.68691  0.80071  0.24598  Biso   1.000  H
  C200     1.0000 0.64508  0.73528  0.17268  Biso   1.000  C
  H206     1.0000 0.68530  0.71361  0.15279  Biso   1.000  H
  H207     1.0000 0.68099  0.73660  0.08470  Biso   1.000  H
  N27      1.0000 0.61659  0.73942  0.28651  Biso   1.000  N
  H208     1.0000 0.65460  0.71571  0.27629  Biso   1.000  H
  N28      1.0000 0.61207  0.69688  0.15032  Biso   1.000  N
  H209     1.0000 0.64139  0.75770  0.15478  Biso   1.000  H
  C201     1.0000 0.59496  0.71364  0.32730  Biso   1.000  C
  C202     1.0000 0.58378  0.69928  0.12329  Biso   1.000  C
  C203     1.0000 0.56081  0.71418  0.36051  Biso   1.000  C
  H210     1.0000 0.59999  0.69251  0.33831  Biso   1.000  H
  C204     1.0000 0.54512  0.66307  0.10109  Biso   1.000  C
  H211     1.0000 0.58679  0.72509  0.11641  Biso   1.000  H
  C205     1.0000 0.53863  0.68484  0.41119  Biso   1.000  C
  C206     1.0000 0.55096  0.74343  0.34439  Biso   1.000  C
  C207     1.0000 0.53623  0.62531  0.12495  Biso   1.000  C
  C208     1.0000 0.51945  0.66697  0.05347  Biso   1.000  C
  C209     1.0000 0.50658  0.68475  0.44580  Biso   1.000  C
  H212     1.0000 0.54542  0.66481  0.42231  Biso   1.000  H
  C210     1.0000 0.51893  0.74334  0.37889  Biso   1.000  C
  H213     1.0000 0.56610  0.76349  0.30972  Biso   1.000  H
  C211     1.0000 0.50167  0.59144  0.10125  Biso   1.000  C
  H214     1.0000 0.55380  0.62261  0.15741  Biso   1.000  H
  C212     1.0000 0.48489  0.63310  0.02983  Biso   1.000  C
  H215     1.0000 0.52551  0.69281  0.03719  Biso   1.000  H
  C213     1.0000 0.48287  0.65711  0.50642  Biso   1.000  C
  C214     1.0000 0.49676  0.71400  0.42962  Biso   1.000  C
  C215     1.0000 0.51061  0.77530  0.37341  Biso   1.000  C
  C216     1.0000 0.49490  0.55079  0.12012  Biso   1.000  C
  C217     1.0000 0.47600  0.59533  0.05369  Biso   1.000  C
  C218     1.0000 0.46294  0.63691  0.97211  Biso   1.000  C
  N29      1.0000 0.49304  0.63118  0.53539  Biso   1.000  N
  H216     1.0000 0.46029  0.65789  0.52480  Biso   1.000  H
  H217     1.0000 0.47491  0.71391  0.45322  Biso   1.000  H
  C219     1.0000 0.50808  0.80404  0.35831  Biso   1.000  C
  N30      1.0000 0.46950  0.52097  0.08723  Biso   1.000  N
  H218     1.0000 0.51008  0.54789  0.15741  Biso   1.000  H
  H219     1.0000 0.45241  0.57219  0.03751  Biso   1.000  H
  C220     1.0000 0.44317  0.63439  0.92078  Biso   1.000  C
  C221     1.0000 0.46775  0.60672  0.59268  Biso   1.000  C
  C222     1.0000 0.50260  0.83923  0.35062  Biso   1.000  C
  C223     1.0000 0.46927  0.48158  0.10888  Biso   1.000  C
  C224     1.0000 0.42267  0.63238  0.85253  Biso   1.000  C
  C225     1.0000 0.45238  0.56305  0.57570  Biso   1.000  C
  H220     1.0000 0.44470  0.61149  0.59902  Biso   1.000  H
  C226     1.0000 0.49396  0.61988  0.66083  Biso   1.000  C
  C227     1.0000 0.51662  0.86327  0.28973  Biso   1.000  C
  C228     1.0000 0.48771  0.85077  0.40823  Biso   1.000  C
  C229     1.0000 0.43030  0.45260  0.14199  Biso   1.000  C
  C230     1.0000 0.47630  0.46381  0.03950  Biso   1.000  C
  H221     1.0000 0.49150  0.48809  0.14382  Biso   1.000  H
  C231     1.0000 0.38876  0.59659  0.83356  Biso   1.000  C
  C232     1.0000 0.44012  0.66364  0.80330  Biso   1.000  C
  N31      1.0000 0.42402  0.55025  0.51502  Biso   1.000  N
  C233     1.0000 0.42793  0.53503  0.64229  Biso   1.000  C
  H222     1.0000 0.47540  0.55889  0.56350  Biso   1.000  H
  H223     1.0000 0.51811  0.61751  0.65293  Biso   1.000  H
  H224     1.0000 0.50279  0.64830  0.67168  Biso   1.000  H
  C234     1.0000 0.46964  0.59327  0.72408  Biso   1.000  C
  C235     1.0000 0.51572  0.89885  0.28651  Biso   1.000  C
  H225     1.0000 0.52681  0.85541  0.25039  Biso   1.000  H
  H226     1.0000 0.47811  0.83431  0.44978  Biso   1.000  H
  C236     1.0000 0.48682  0.88638  0.40496  Biso   1.000  C
  C237     1.0000 0.42320  0.40938  0.15440  Biso   1.000  C
  N32      1.0000 0.42441  0.46828  0.20960  Biso   1.000  N
  H227     1.0000 0.40891  0.44999  0.10840  Biso   1.000  H
  C238     1.0000 0.47314  0.42478  0.05729  Biso   1.000  C
  H228     1.0000 0.45610  0.45991  0.00290  Biso   1.000  H
  H229     1.0000 0.50319  0.48239  0.01978  Biso   1.000  H
  H230     1.0000 0.37679  0.57519  0.86720  Biso   1.000  H
  C239     1.0000 0.37227  0.59207  0.76541  Biso   1.000  C
  C240     1.0000 0.42363  0.65912  0.73510  Biso   1.000  C
  H231     1.0000 0.46330  0.68810  0.81620  Biso   1.000  H
  C241     1.0000 0.42917  0.53230  0.46520  Biso   1.000  C
  C242     1.0000 0.45529  0.54810  0.70769  Biso   1.000  C
  H232     1.0000 0.40398  0.53749  0.65228  Biso   1.000  H
  H233     1.0000 0.41881  0.50670  0.63089  Biso   1.000  H
  H234     1.0000 0.44611  0.59650  0.73290  Biso   1.000  H
  H235     1.0000 0.48639  0.60169  0.76799  Biso   1.000  H
  C243     1.0000 0.53003  0.92223  0.21949  Biso   1.000  C
  C244     1.0000 0.50084  0.91042  0.34412  Biso   1.000  C
  C245     1.0000 0.46772  0.89687  0.46520  Biso   1.000  C
  H236     1.0000 0.43990  0.40971  0.19509  Biso   1.000  H
  H237     1.0000 0.39470  0.39121  0.16698  Biso   1.000  H
  C246     1.0000 0.43390  0.39349  0.08599  Biso   1.000  C
  C247     1.0000 0.39219  0.46999  0.21949  Biso   1.000  C
  H238     1.0000 0.47901  0.41420  0.01327  Biso   1.000  H
  H239     1.0000 0.49411  0.42961  0.09308  Biso   1.000  H
  C248     1.0000 0.38969  0.62333  0.71618  Biso   1.000  C
  C249     1.0000 0.34007  0.55310  0.74370  Biso   1.000  C
  C250     1.0000 0.44532  0.69227  0.68232  Biso   1.000  C
  C251     1.0000 0.39954  0.51318  0.40496  Biso   1.000  C
  H240     1.0000 0.45280  0.53041  0.46472  Biso   1.000  H
  H241     1.0000 0.47879  0.54480  0.69818  Biso   1.000  H
  H242     1.0000 0.44072  0.53131  0.74972  Biso   1.000  H
  N33      1.0000 0.53172  0.95613  0.20960  Biso   1.000  N
  H243     1.0000 0.53850  0.91179  0.18149  Biso   1.000  H
  H244     1.0000 0.50021  0.93469  0.34191  Biso   1.000  H
  N34      1.0000 0.44975  0.87376  0.51502  Biso   1.000  N
  H245     1.0000 0.46961  0.92241  0.46472  Biso   1.000  H
  H246     1.0000 0.43520  0.36909  0.09797  Biso   1.000  H
  H247     1.0000 0.41291  0.38630  0.04912  Biso   1.000  H
  H248     1.0000 0.37331  0.46150  0.18149  Biso   1.000  H
  C252     1.0000 0.38314  0.48428  0.28651  Biso   1.000  C
  H249     1.0000 0.37840  0.62021  0.66959  Biso   1.000  H
  N35      1.0000 0.32726  0.54498  0.67808  Biso   1.000  N
  H250     1.0000 0.32779  0.53269  0.77901  Biso   1.000  H
  N36      1.0000 0.48013  0.72206  0.68958  Biso   1.000  N
  H251     1.0000 0.43161  0.69080  0.63901  Biso   1.000  H
  C253     1.0000 0.40959  0.49918  0.34412  Biso   1.000  C
  C254     1.0000 0.36307  0.51231  0.40823  Biso   1.000  C
  C255     1.0000 0.54739  0.97771  0.14199  Biso   1.000  C
  C256     1.0000 0.43696  0.88934  0.57570  Biso   1.000  C
  C257     1.0000 0.34664  0.48338  0.28973  Biso   1.000  C
  C258     1.0000 0.29558  0.50637  0.66271  Biso   1.000  C
  C259     1.0000 0.49522  0.75267  0.63879  Biso   1.000  C
  H252     1.0000 0.43452  0.49981  0.34191  Biso   1.000  H
  C260     1.0000 0.33662  0.49741  0.35062  Biso   1.000  C
  H253     1.0000 0.35619  0.52190  0.44978  Biso   1.000  H
  H254     1.0000 0.55001  0.95891  0.10840  Biso   1.000  H
  C261     1.0000 0.51840  0.98769  0.10888  Biso   1.000  C
  C262     1.0000 0.59063  0.01382  0.15440  Biso   1.000  C
  C263     1.0000 0.39329  0.86102  0.59268  Biso   1.000  C
  C264     1.0000 0.46496  0.89291  0.64229  Biso   1.000  C
  H255     1.0000 0.44109  0.91650  0.56350  Biso   1.000  H
  H256     1.0000 0.32859  0.47319  0.25039  Biso   1.000  H
  H257     1.0000 0.28889  0.49160  0.70941  Biso   1.000  H
  C265     1.0000 0.30948  0.48293  0.61079  Biso   1.000  C
  C266     1.0000 0.25745  0.50478  0.63879  Biso   1.000  C
  C267     1.0000 0.49360  0.78920  0.66271  Biso   1.000  C
  C268     1.0000 0.53648  0.75923  0.60939  Biso   1.000  C
  H258     1.0000 0.47639  0.74179  0.59709  Biso   1.000  H
  C269     1.0000 0.29594  0.49190  0.35831  Biso   1.000  C
  N37      1.0000 0.47901  0.94851  0.08723  Biso   1.000  N
  C270     1.0000 0.53621  0.01251  0.03950  Biso   1.000  C
  H259     1.0000 0.51190  0.00339  0.14382  Biso   1.000  H
  H260     1.0000 0.59030  0.03019  0.19509  Biso   1.000  H
  H261     1.0000 0.60881  0.00351  0.16698  Biso   1.000  H
  C271     1.0000 0.60652  0.04041  0.08599  Biso   1.000  C
  N38      1.0000 0.36884  0.86186  0.53539  Biso   1.000  N
  H262     1.0000 0.38849  0.83320  0.59902  Biso   1.000  H
  C272     1.0000 0.38010  0.87406  0.66083  Biso   1.000  C
  C273     1.0000 0.45188  0.90718  0.70769  Biso   1.000  C
  H263     1.0000 0.46251  0.86650  0.65228  Biso   1.000  H
  H264     1.0000 0.49330  0.91209  0.63089  Biso   1.000  H
  H265     1.0000 0.31999  0.49840  0.56581  Biso   1.000  H
  H266     1.0000 0.33151  0.48090  0.63401  Biso   1.000  H
  C274     1.0000 0.27481  0.44007  0.59230  Biso   1.000  C
  N39      1.0000 0.24193  0.51989  0.68958  Biso   1.000  N
  C275     1.0000 0.22275  0.46351  0.60939  Biso   1.000  C
  H267     1.0000 0.26541  0.52361  0.59709  Biso   1.000  H
  N40      1.0000 0.45502  0.78228  0.67808  Biso   1.000  N
  H268     1.0000 0.50840  0.79730  0.70941  Biso   1.000  H
  C276     1.0000 0.51708  0.82655  0.61079  Biso   1.000  C
  C277     1.0000 0.56026  0.79646  0.56221  Biso   1.000  C
  H269     1.0000 0.55340  0.76109  0.65099  Biso   1.000  H
  H270     1.0000 0.53129  0.73531  0.58129  Biso   1.000  H
  C278     1.0000 0.26469  0.48941  0.37341  Biso   1.000  C
  C279     1.0000 0.44921  0.94411  0.12012  Biso   1.000  C
  H271     1.0000 0.54010  0.99620  0.00290  Biso   1.000  H
  C280     1.0000 0.57523  0.04838  0.05729  Biso   1.000  C
  H272     1.0000 0.51759  0.02081  0.01978  Biso   1.000  H
  H273     1.0000 0.63091  0.06610  0.09797  Biso   1.000  H
  H274     1.0000 0.61370  0.02659  0.04912  Biso   1.000  H
  C281     1.0000 0.34290  0.82577  0.50642  Biso   1.000  C
  H275     1.0000 0.38251  0.90061  0.65293  Biso   1.000  H
  H276     1.0000 0.35171  0.85449  0.67168  Biso   1.000  H
  C282     1.0000 0.40672  0.87637  0.72408  Biso   1.000  C
  H277     1.0000 0.45519  0.93401  0.69818  Biso   1.000  H
  H278     1.0000 0.46869  0.90940  0.74972  Biso   1.000  H
  H279     1.0000 0.26749  0.42320  0.63600  Biso   1.000  H
  H280     1.0000 0.28439  0.42799  0.55597  Biso   1.000  H
  C283     1.0000 0.23620  0.43974  0.56221  Biso   1.000  C
  C284     1.0000 0.24693  0.55466  0.68232  Biso   1.000  C
  H281     1.0000 0.20770  0.44661  0.65099  Biso   1.000  H
  H282     1.0000 0.20400  0.46870  0.58129  Biso   1.000  H
  C285     1.0000 0.44690  0.78696  0.74370  Biso   1.000  C
  H283     1.0000 0.50160  0.82160  0.56581  Biso   1.000  H
  H284     1.0000 0.51911  0.85059  0.63401  Biso   1.000  H
  C286     1.0000 0.55993  0.83473  0.59230  Biso   1.000  C
  H285     1.0000 0.54881  0.79070  0.51319  Biso   1.000  H
  H286     1.0000 0.58840  0.80239  0.55882  Biso   1.000  H
  C287     1.0000 0.22442  0.48108  0.37889  Biso   1.000  C
  C288     1.0000 0.40858  0.91024  0.10125  Biso   1.000  C
  H287     1.0000 0.45211  0.96221  0.15741  Biso   1.000  H
  H288     1.0000 0.58580  0.06481  0.01327  Biso   1.000  H
  H289     1.0000 0.57041  0.06451  0.09308  Biso   1.000  H
  C289     1.0000 0.31524  0.82184  0.44580  Biso   1.000  C
  H290     1.0000 0.34209  0.80239  0.52480  Biso   1.000  H
  H291     1.0000 0.40349  0.84960  0.73290  Biso   1.000  H
  H292     1.0000 0.39830  0.88470  0.76799  Biso   1.000  H
  H293     1.0000 0.24190  0.45119  0.51319  Biso   1.000  H
  H294     1.0000 0.21400  0.41160  0.55882  Biso   1.000  H
  H295     1.0000 0.25920  0.56839  0.63901  Biso   1.000  H
  C290     1.0000 0.23549  0.57636  0.73510  Biso   1.000  C
  C291     1.0000 0.40794  0.78021  0.76541  Biso   1.000  C
  H296     1.0000 0.46730  0.79511  0.77901  Biso   1.000  H
  H297     1.0000 0.57680  0.84429  0.63600  Biso   1.000  H
  H298     1.0000 0.57201  0.85640  0.55597  Biso   1.000  H
  C292     1.0000 0.19246  0.44903  0.34439  Biso   1.000  C
  C293     1.0000 0.21726  0.50326  0.42962  Biso   1.000  C
  C294     1.0000 0.40466  0.88065  0.05369  Biso   1.000  C
  C295     1.0000 0.37471  0.91093  0.12495  Biso   1.000  C
  C296     1.0000 0.28598  0.78273  0.42962  Biso   1.000  C
  C297     1.0000 0.31518  0.85380  0.41119  Biso   1.000  C
  C298     1.0000 0.23363  0.61029  0.71618  Biso   1.000  C
  C299     1.0000 0.22353  0.55988  0.80330  Biso   1.000  C
  C300     1.0000 0.40343  0.79217  0.83356  Biso   1.000  C
  C301     1.0000 0.37667  0.76636  0.71618  Biso   1.000  C
  C302     1.0000 0.15336  0.43920  0.36051  Biso   1.000  C
  H299     1.0000 0.19740  0.43390  0.30972  Biso   1.000  H
  H300     1.0000 0.23901  0.52511  0.45322  Biso   1.000  H
  C303     1.0000 0.17817  0.49339  0.44580  Biso   1.000  C
  C304     1.0000 0.36689  0.85179  0.02983  Biso   1.000  C
  H301     1.0000 0.42780  0.88020  0.03751  Biso   1.000  H
  C305     1.0000 0.33694  0.88206  0.10109  Biso   1.000  C
  H302     1.0000 0.37739  0.93119  0.15741  Biso   1.000  H
  C306     1.0000 0.25666  0.77560  0.37889  Biso   1.000  C
  H303     1.0000 0.28609  0.76100  0.45322  Biso   1.000  H
  C307     1.0000 0.28582  0.84663  0.36051  Biso   1.000  C
  H304     1.0000 0.33519  0.88059  0.42231  Biso   1.000  H
  C308     1.0000 0.21980  0.62774  0.76541  Biso   1.000  C
  H305     1.0000 0.24180  0.62159  0.66959  Biso   1.000  H
  C309     1.0000 0.20970  0.57732  0.85253  Biso   1.000  C
  H306     1.0000 0.22480  0.53671  0.81620  Biso   1.000  H
  C310     1.0000 0.36761  0.79031  0.85253  Biso   1.000  C
  H307     1.0000 0.42482  0.80161  0.86720  Biso   1.000  H
  H308     1.0000 0.37981  0.75821  0.66959  Biso   1.000  H
  C311     1.0000 0.34088  0.76451  0.73510  Biso   1.000  C
  C312     1.0000 0.14622  0.46138  0.41119  Biso   1.000  C
  C313     1.0000 0.11869  0.40506  0.32730  Biso   1.000  C
  C314     1.0000 0.17423  0.51713  0.50642  Biso   1.000  C
  C315     1.0000 0.36309  0.82601  0.97211  Biso   1.000  C
  C316     1.0000 0.33305  0.85248  0.05347  Biso   1.000  C
  C317     1.0000 0.30072  0.88449  0.12329  Biso   1.000  C
  C318     1.0000 0.22471  0.73531  0.37341  Biso   1.000  C
  C319     1.0000 0.25659  0.80755  0.34439  Biso   1.000  C
  C320     1.0000 0.28636  0.88131  0.32730  Biso   1.000  C
  C321     1.0000 0.20784  0.61125  0.83356  Biso   1.000  C
  C322     1.0000 0.21305  0.65993  0.74370  Biso   1.000  C
  C323     1.0000 0.19122  0.55682  0.92078  Biso   1.000  C
  C324     1.0000 0.36561  0.80878  0.92078  Biso   1.000  C
  C325     1.0000 0.33636  0.77649  0.80330  Biso   1.000  C
  C326     1.0000 0.30774  0.75306  0.68232  Biso   1.000  C
  H309     1.0000 0.11940  0.45461  0.42231  Biso   1.000  H
  N41      1.0000 0.12280  0.38339  0.28651  Biso   1.000  N
  H310     1.0000 0.09251  0.40000  0.33831  Biso   1.000  H
  N42      1.0000 0.13813  0.50697  0.53539  Biso   1.000  N
  H311     1.0000 0.19761  0.53970  0.52480  Biso   1.000  H
  H312     1.0000 0.30719  0.83269  0.03719  Biso   1.000  H
  N43      1.0000 0.30312  0.91518  0.15032  Biso   1.000  N
  H313     1.0000 0.27490  0.86171  0.11641  Biso   1.000  H
  C327     1.0000 0.19597  0.70405  0.35831  Biso   1.000  C
  H314     1.0000 0.23649  0.80260  0.30972  Biso   1.000  H
  N44      1.0000 0.26059  0.87718  0.28651  Biso   1.000  N
  H315     1.0000 0.30751  0.90751  0.33831  Biso   1.000  H
  H316     1.0000 0.19840  0.62321  0.86720  Biso   1.000  H
  N45      1.0000 0.21771  0.67273  0.67808  Biso   1.000  N
  H317     1.0000 0.20490  0.67219  0.77901  Biso   1.000  H
  C328     1.0000 0.17397  0.53707  0.97211  Biso   1.000  C
  H318     1.0000 0.31191  0.77521  0.81620  Biso   1.000  H
  N46      1.0000 0.27795  0.75806  0.68958  Biso   1.000  N
  H319     1.0000 0.30919  0.74080  0.63901  Biso   1.000  H
  C329     1.0000 0.08643  0.34802  0.25668  Biso   1.000  C
  C330     1.0000 0.13899  0.53227  0.59268  Biso   1.000  C
  C331     1.0000 0.26473  0.90979  0.17268  Biso   1.000  C
  C332     1.0000 0.16078  0.66337  0.35062  Biso   1.000  C
  C333     1.0000 0.26162  0.91359  0.25668  Biso   1.000  C
  C334     1.0000 0.21079  0.70441  0.66271  Biso   1.000  C
  C335     1.0000 0.14821  0.51510  0.02983  Biso   1.000  C
  C336     1.0000 0.24732  0.74253  0.63879  Biso   1.000  C
  C337     1.0000 0.09019  0.35492  0.17268  Biso   1.000  C
  C338     1.0000 0.08991  0.31071  0.27081  Biso   1.000  C
  H320     1.0000 0.06110  0.34539  0.27629  Biso   1.000  H
  H321     1.0000 0.16680  0.55529  0.59902  Biso   1.000  H
  C339     1.0000 0.12593  0.50604  0.66083  Biso   1.000  C
  C340     1.0000 0.11066  0.54762  0.57570  Biso   1.000  C
  H322     1.0000 0.24232  0.88371  0.15478  Biso   1.000  H
  C341     1.0000 0.26277  0.94626  0.13769  Biso   1.000  C
  C342     1.0000 0.14922  0.63694  0.40823  Biso   1.000  C
  C343     1.0000 0.13675  0.65336  0.28973  Biso   1.000  C
  C344     1.0000 0.22080  0.91009  0.27081  Biso   1.000  C
  H323     1.0000 0.28429  0.93889  0.27629  Biso   1.000  H
  H324     1.0000 0.20271  0.71109  0.70941  Biso   1.000  H
  C345     1.0000 0.17345  0.69053  0.61079  Biso   1.000  C
  C346     1.0000 0.14754  0.48057  0.05347  Biso   1.000  C
  C347     1.0000 0.11933  0.52400  0.05369  Biso   1.000  C
  C348     1.0000 0.24078  0.77727  0.60939  Biso   1.000  C
  H325     1.0000 0.25819  0.73459  0.59709  Biso   1.000  H
  N47      1.0000 0.08482  0.38795  0.15032  Biso   1.000  N
  H326     1.0000 0.11630  0.35860  0.15478  Biso   1.000  H
  C349     1.0000 0.05374  0.31649  0.13769  Biso   1.000  C
  C350     1.0000 0.05091  0.27387  0.24120  Biso   1.000  C
  H327     1.0000 0.09269  0.30759  0.32289  Biso   1.000  H
  H328     1.0000 0.11380  0.31310  0.24598  Biso   1.000  H
  H329     1.0000 0.09941  0.48191  0.65293  Biso   1.000  H
  H330     1.0000 0.14550  0.49720  0.67168  Biso   1.000  H
  C351     1.0000 0.12363  0.53035  0.72408  Biso   1.000  C
  N48      1.0000 0.12622  0.57597  0.51502  Biso   1.000  N
  C352     1.0000 0.10711  0.57207  0.64229  Biso   1.000  C
  H331     1.0000 0.08350  0.52460  0.56350  Biso   1.000  H
  H332     1.0000 0.28640  0.97171  0.15279  Biso   1.000  H
  H333     1.0000 0.26340  0.94441  0.08470  Biso   1.000  H
  C353     1.0000 0.22514  0.94617  0.15999  Biso   1.000  C
  C354     1.0000 0.11364  0.60046  0.40496  Biso   1.000  C
  H334     1.0000 0.16571  0.64380  0.44978  Biso   1.000  H
  C355     1.0000 0.10113  0.61686  0.28651  Biso   1.000  C
  H335     1.0000 0.14460  0.67141  0.25039  Biso   1.000  H
  C356     1.0000 0.22296  0.94908  0.24120  Biso   1.000  C
  H336     1.0000 0.21489  0.90730  0.32289  Biso   1.000  H
  H337     1.0000 0.19930  0.88620  0.24598  Biso   1.000  H
  H338     1.0000 0.17842  0.68001  0.56581  Biso   1.000  H
  H339     1.0000 0.14940  0.66850  0.63401  Biso   1.000  H
  C357     1.0000 0.16527  0.72521  0.59230  Biso   1.000  C
  C358     1.0000 0.11795  0.45488  0.10109  Biso   1.000  C
  H340     1.0000 0.16730  0.47451  0.03719  Biso   1.000  H
  C359     1.0000 0.08976  0.49834  0.10125  Biso   1.000  C
  H341     1.0000 0.11979  0.54759  0.03751  Biso   1.000  H
  C360     1.0000 0.20351  0.76379  0.56221  Biso   1.000  C
  H342     1.0000 0.23889  0.79229  0.65099  Biso   1.000  H
  H343     1.0000 0.26471  0.79601  0.58129  Biso   1.000  H
  C361     1.0000 0.11549  0.41621  0.12329  Biso   1.000  C
  H344     1.0000 0.02828  0.31469  0.15279  Biso   1.000  H
  H345     1.0000 0.05559  0.31901  0.08470  Biso   1.000  H
  C362     1.0000 0.05382  0.27896  0.15999  Biso   1.000  C
  H346     1.0000 0.04970  0.24851  0.25528  Biso   1.000  H
  H347     1.0000 0.02682  0.27381  0.25979  Biso   1.000  H
  H348     1.0000 0.15041  0.55391  0.73290  Biso   1.000  H
  H349     1.0000 0.11530  0.51360  0.76799  Biso   1.000  H
  C363     1.0000 0.09280  0.54471  0.70769  Biso   1.000  C
  C364     1.0000 0.10312  0.57085  0.46520  Biso   1.000  C
  H350     1.0000 0.13350  0.59599  0.65228  Biso   1.000  H
  H351     1.0000 0.08789  0.58119  0.63089  Biso   1.000  H
  H352     1.0000 0.20151  0.92130  0.14290  Biso   1.000  H
  H353     1.0000 0.22460  0.96919  0.13731  Biso   1.000  H
  C365     1.0000 0.08960  0.59042  0.34412  Biso   1.000  C
  C366     1.0000 0.07778  0.60780  0.21949  Biso   1.000  C
  H354     1.0000 0.19881  0.95031  0.25528  Biso   1.000  H
  H355     1.0000 0.24701  0.97321  0.25979  Biso   1.000  H
  H356     1.0000 0.15570  0.73249  0.63600  Biso   1.000  H
  H357     1.0000 0.14359  0.71559  0.55597  Biso   1.000  H
  C367     1.0000 0.08907  0.46378  0.12495  Biso   1.000  C
  C368     1.0000 0.05590  0.50511  0.12012  Biso   1.000  C
  H358     1.0000 0.20931  0.75809  0.51319  Biso   1.000  H
  H359     1.0000 0.19759  0.78600  0.55882  Biso   1.000  H
  H360     1.0000 0.13830  0.41319  0.11641  Biso   1.000  H
  H361     1.0000 0.07871  0.28019  0.14290  Biso   1.000  H
  H362     1.0000 0.03080  0.25540  0.13731  Biso   1.000  H
  H363     1.0000 0.06600  0.52121  0.69818  Biso   1.000  H
  H364     1.0000 0.09060  0.55931  0.74972  Biso   1.000  H
  H365     1.0000 0.07759  0.54720  0.46472  Biso   1.000  H
  H366     1.0000 0.06531  0.56551  0.34191  Biso   1.000  H
  N49      1.0000 0.04387  0.57558  0.20960  Biso   1.000  N
  H367     1.0000 0.08819  0.62669  0.18149  Biso   1.000  H
  H368     1.0000 0.06880  0.44619  0.15741  Biso   1.000  H
  N50      1.0000 0.05149  0.53050  0.08723  Biso   1.000  N
  H369     1.0000 0.03780  0.48989  0.15741  Biso   1.000  H
  C369     1.0000 0.02230  0.56968  0.14199  Biso   1.000  C
  C370     1.0000 0.01232  0.53071  0.10888  Biso   1.000  C
  H370     1.0000 0.04112  0.59111  0.10840  Biso   1.000  H
  C371     1.0000 0.98618  0.57681  0.15440  Biso   1.000  C
  C372     1.0000 0.98750  0.52370  0.03950  Biso   1.000  C
  H371     1.0000 0.99659  0.50850  0.14382  Biso   1.000  H
  H372     1.0000 0.96979  0.56009  0.19509  Biso   1.000  H
  H373     1.0000 0.99650  0.60529  0.16698  Biso   1.000  H
  C373     1.0000 0.95959  0.56611  0.08599  Biso   1.000  C
  H374     1.0000 0.00381  0.54390  0.00290  Biso   1.000  H
  C374     1.0000 0.95163  0.52687  0.05729  Biso   1.000  C
  H375     1.0000 0.97920  0.49681  0.01978  Biso   1.000  H
  H376     1.0000 0.93389  0.56479  0.09797  Biso   1.000  H
  H377     1.0000 0.97341  0.58709  0.04912  Biso   1.000  H
  H378     1.0000 0.93520  0.52100  0.01327  Biso   1.000  H
  H379     1.0000 0.93551  0.50589  0.09308  Biso   1.000  H
  C375     1.0000 0.90856  0.71505  0.72397  Biso   1.000  C
  C376     1.0000 0.86954  0.67917  0.70619  Biso   1.000  C
  C377     1.0000 0.93985  0.70708  0.75267  Biso   1.000  C
  H380     1.0000 0.91913  0.73147  0.67996  Biso   1.000  H
  H381     1.0000 0.90375  0.73117  0.75977  Biso   1.000  H
  C378     1.0000 0.85173  0.65435  0.77557  Biso   1.000  C
  H382     1.0000 0.87343  0.66286  0.66959  Biso   1.000  H
  H383     1.0000 0.85093  0.68747  0.68646  Biso   1.000  H
  C379     1.0000 0.92396  0.68049  0.82109  Biso   1.000  C
  H384     1.0000 0.96424  0.73276  0.76466  Biso   1.000  H
  H385     1.0000 0.94703  0.69326  0.71575  Biso   1.000  H
  N51      1.0000 0.81234  0.61518  0.75386  Biso   1.000  N
  C380     1.0000 0.88072  0.64437  0.80867  Biso   1.000  C
  H386     1.0000 0.84523  0.67006  0.81045  Biso   1.000  H
  H387     1.0000 0.92363  0.69685  0.86177  Biso   1.000  H
  H388     1.0000 0.94214  0.67018  0.83366  Biso   1.000  H
  C381     1.0000 0.78254  0.61077  0.78675  Biso   1.000  C
  N52      1.0000 0.86505  0.62279  0.87628  Biso   1.000  N
  H389     1.0000 0.88334  0.62558  0.77508  Biso   1.000  H
  C382     1.0000 0.74191  0.57690  0.76788  Biso   1.000  C
  H390     1.0000 0.78544  0.62887  0.82404  Biso   1.000  H
  C383     1.0000 0.86336  0.58889  0.88617  Biso   1.000  C
  C384     1.0000 0.73799  0.54732  0.72032  Biso   1.000  C
  C385     1.0000 0.70804  0.57759  0.79158  Biso   1.000  C
  H391     1.0000 0.87183  0.57846  0.84818  Biso   1.000  H
  C386     1.0000 0.84907  0.56554  0.95314  Biso   1.000  C
  C387     1.0000 0.70022  0.51845  0.69651  Biso   1.000  C
  H392     1.0000 0.76113  0.54687  0.70414  Biso   1.000  H
  C388     1.0000 0.67027  0.54873  0.76778  Biso   1.000  C
  H393     1.0000 0.71072  0.59785  0.82404  Biso   1.000  H
  C389     1.0000 0.84995  0.52993  0.95641  Biso   1.000  C
  C390     1.0000 0.83417  0.57708  0.01075  Biso   1.000  C
  C391     1.0000 0.69642  0.49268  0.63879  Biso   1.000  C
  C392     1.0000 0.66638  0.51914  0.72016  Biso   1.000  C
  C393     1.0000 0.63405  0.55115  0.78997  Biso   1.000  C
  H394     1.0000 0.86015  0.52208  0.91707  Biso   1.000  H
  C394     1.0000 0.83593  0.50589  0.01731  Biso   1.000  C
  C395     1.0000 0.82016  0.55304  0.07164  Biso   1.000  C
  H395     1.0000 0.83354  0.60136  0.00855  Biso   1.000  H
  C396     1.0000 0.69895  0.47547  0.58747  Biso   1.000  C
  H396     1.0000 0.64053  0.49936  0.70387  Biso   1.000  H
  N53      1.0000 0.63645  0.58185  0.81695  Biso   1.000  N
  H397     1.0000 0.60823  0.52837  0.78309  Biso   1.000  H
  C397     1.0000 0.82104  0.51743  0.07492  Biso   1.000  C
  C398     1.0000 0.84142  0.47070  0.02499  Biso   1.000  C
  C399     1.0000 0.80105  0.56353  0.13189  Biso   1.000  C
  C400     1.0000 0.70095  0.45698  0.51921  Biso   1.000  C
  C401     1.0000 0.59807  0.57648  0.83936  Biso   1.000  C
  H398     1.0000 0.81144  0.50098  0.11646  Biso   1.000  H
  C402     1.0000 0.84394  0.44196  0.04009  Biso   1.000  C
  N54      1.0000 0.78309  0.54042  0.18165  Biso   1.000  N
  H399     1.0000 0.80295  0.58907  0.13135  Biso   1.000  H
  C403     1.0000 0.66969  0.44316  0.46993  Biso   1.000  C
  C404     1.0000 0.73676  0.45883  0.50024  Biso   1.000  C
  H400     1.0000 0.57565  0.55037  0.82147  Biso   1.000  H
  C405     1.0000 0.59610  0.61293  0.80437  Biso   1.000  C
  C406     1.0000 0.59495  0.58026  0.92336  Biso   1.000  C
  C407     1.0000 0.85226  0.41001  0.04557  Biso   1.000  C
  C408     1.0000 0.77030  0.55601  0.24238  Biso   1.000  C
  C409     1.0000 0.67422  0.43120  0.40178  Biso   1.000  C
  H401     1.0000 0.64524  0.44187  0.48288  Biso   1.000  H
  C410     1.0000 0.74127  0.44688  0.43204  Biso   1.000  C
  H402     1.0000 0.75815  0.46828  0.53389  Biso   1.000  H
  H403     1.0000 0.61973  0.63838  0.81948  Biso   1.000  H
  H404     1.0000 0.59673  0.61107  0.75138  Biso   1.000  H
  C411     1.0000 0.55847  0.61284  0.82668  Biso   1.000  C
  N55      1.0000 0.59394  0.54387  0.95319  Biso   1.000  N
  C412     1.0000 0.55413  0.57675  0.93744  Biso   1.000  C
  H405     1.0000 0.61762  0.60556  0.94298  Biso   1.000  H
  C413     1.0000 0.88429  0.41010  0.01102  Biso   1.000  C
  C414     1.0000 0.83009  0.38066  0.09625  Biso   1.000  C
  C415     1.0000 0.72662  0.52768  0.25936  Biso   1.000  C
  C416     1.0000 0.79830  0.55958  0.30897  Biso   1.000  C
  H406     1.0000 0.77442  0.58317  0.23018  Biso   1.000  H
  C417     1.0000 0.64107  0.41972  0.34895  Biso   1.000  C
  C418     1.0000 0.71000  0.43303  0.38281  Biso   1.000  C
  C419     1.0000 0.78023  0.45362  0.41038  Biso   1.000  C
  H407     1.0000 0.53484  0.58796  0.80959  Biso   1.000  H
  H408     1.0000 0.55794  0.63586  0.80394  Biso   1.000  H
  C420     1.0000 0.55629  0.61575  0.90788  Biso   1.000  C
  C421     1.0000 0.61969  0.54798  0.99398  Biso   1.000  C
  H409     1.0000 0.54822  0.57396  0.98957  Biso   1.000  H
  H410     1.0000 0.53263  0.55286  0.91267  Biso   1.000  H
  H411     1.0000 0.89944  0.43018  0.97635  Biso   1.000  H
  C422     1.0000 0.89414  0.38084  0.02714  Biso   1.000  C
  H412     1.0000 0.80824  0.38057  0.11985  Biso   1.000  H
  C423     1.0000 0.83993  0.35144  0.11248  Biso   1.000  C
  N56      1.0000 0.70217  0.52852  0.20207  Biso   1.000  N
  H413     1.0000 0.72182  0.49987  0.26565  Biso   1.000  H
  C424     1.0000 0.71344  0.54072  0.32746  Biso   1.000  C
  C425     1.0000 0.78521  0.57384  0.37438  Biso   1.000  C
  H414     1.0000 0.79584  0.53317  0.31897  Biso   1.000  H
  H415     1.0000 0.82663  0.57876  0.29758  Biso   1.000  H
  N57      1.0000 0.61128  0.42473  0.35626  Biso   1.000  N
  H416     1.0000 0.64252  0.40746  0.30569  Biso   1.000  H
  H417     1.0000 0.71314  0.42487  0.33627  Biso   1.000  H
  N58      1.0000 0.78835  0.44894  0.34476  Biso   1.000  N
  H418     1.0000 0.80063  0.46177  0.44569  Biso   1.000  H
  H419     1.0000 0.53214  0.61698  0.92196  Biso   1.000  H
  H420     1.0000 0.58035  0.63988  0.92648  Biso   1.000  H
  C426     1.0000 0.61915  0.51330  0.02714  Biso   1.000  C
  H421     1.0000 0.64084  0.57417  0.00494  Biso   1.000  H
  C427     1.0000 0.92829  0.38030  0.99398  Biso   1.000  C
  C428     1.0000 0.87197  0.35150  0.07787  Biso   1.000  C
  C429     1.0000 0.81621  0.32377  0.17305  Biso   1.000  C
  C430     1.0000 0.67624  0.49244  0.17305  Biso   1.000  C
  H422     1.0000 0.71584  0.56728  0.31956  Biso   1.000  H
  H423     1.0000 0.68505  0.52118  0.33837  Biso   1.000  H
  C431     1.0000 0.74005  0.54303  0.39077  Biso   1.000  C
  H424     1.0000 0.78852  0.60067  0.36486  Biso   1.000  H
  H425     1.0000 0.80202  0.57606  0.41635  Biso   1.000  H
  C432     1.0000 0.58065  0.40920  0.30548  Biso   1.000  C
  C433     1.0000 0.82694  0.45587  0.32939  Biso   1.000  C
  C434     1.0000 0.58992  0.47421  0.01102  Biso   1.000  C
  C435     1.0000 0.64851  0.52046  0.07787  Biso   1.000  C
  N59      1.0000 0.94993  0.40608  0.95319  Biso   1.000  N
  H426     1.0000 0.93332  0.35917  0.00494  Biso   1.000  H
  H427     1.0000 0.87875  0.33148  0.08895  Biso   1.000  H
  N60      1.0000 0.82637  0.29785  0.20207  Biso   1.000  N
  H428     1.0000 0.79362  0.32455  0.19149  Biso   1.000  H
  C436     1.0000 0.64857  0.48851  0.11248  Biso   1.000  C
  H429     1.0000 0.67542  0.46906  0.19149  Biso   1.000  H
  H430     1.0000 0.73682  0.51626  0.39958  Biso   1.000  H
  H431     1.0000 0.73163  0.55136  0.43468  Biso   1.000  H
  C437     1.0000 0.54412  0.37107  0.32939  Biso   1.000  C
  C438     1.0000 0.57411  0.44394  0.27608  Biso   1.000  C
  H432     1.0000 0.59153  0.40126  0.26377  Biso   1.000  H
  H433     1.0000 0.84173  0.46396  0.37604  Biso   1.000  H
  C439     1.0000 0.85041  0.49321  0.27748  Biso   1.000  C
  C440     1.0000 0.82857  0.41936  0.30548  Biso   1.000  C
  H434     1.0000 0.56983  0.46927  0.97635  Biso   1.000  H
  C441     1.0000 0.58999  0.44226  0.04557  Biso   1.000  C
  H435     1.0000 0.66853  0.54726  0.08895  Biso   1.000  H
  C442     1.0000 0.98532  0.40506  0.92336  Biso   1.000  C
  C443     1.0000 0.80109  0.27339  0.25936  Biso   1.000  C
  C444     1.0000 0.61931  0.44939  0.09625  Biso   1.000  C
  C445     1.0000 0.50678  0.35719  0.27748  Biso   1.000  C
  N61      1.0000 0.55104  0.33939  0.34476  Biso   1.000  N
  H436     1.0000 0.53604  0.37776  0.37604  Biso   1.000  H
  C446     1.0000 0.53686  0.43048  0.22889  Biso   1.000  C
  H437     1.0000 0.57222  0.45895  0.31768  Biso   1.000  H
  H438     1.0000 0.59804  0.46267  0.24797  Biso   1.000  H
  H439     1.0000 0.83493  0.48827  0.23249  Biso   1.000  H
  H440     1.0000 0.85244  0.51725  0.30069  Biso   1.000  H
  C447     1.0000 0.89326  0.50140  0.25899  Biso   1.000  C
  N62      1.0000 0.81346  0.38873  0.35626  Biso   1.000  N
  C448     1.0000 0.86981  0.42589  0.27608  Biso   1.000  C
  H441     1.0000 0.80973  0.40848  0.26377  Biso   1.000  H
  C449     1.0000 0.55804  0.40198  0.04009  Biso   1.000  C
  C450     1.0000 0.97841  0.40195  0.83936  Biso   1.000  C
  H442     1.0000 0.98794  0.38237  0.94298  Biso   1.000  H
  C451     1.0000 0.02261  0.44586  0.93744  Biso   1.000  C
  C452     1.0000 0.78571  0.22972  0.24238  Biso   1.000  C
  H443     1.0000 0.77803  0.27815  0.26565  Biso   1.000  H
  C453     1.0000 0.82729  0.28655  0.32746  Biso   1.000  C
  H444     1.0000 0.61942  0.42766  0.11985  Biso   1.000  H
  C454     1.0000 0.49861  0.39187  0.25899  Biso   1.000  C
  H445     1.0000 0.51175  0.34667  0.23249  Biso   1.000  H
  H446     1.0000 0.48274  0.33516  0.30069  Biso   1.000  H
  C455     1.0000 0.54638  0.32659  0.41038  Biso   1.000  C
  H447     1.0000 0.54264  0.42475  0.17988  Biso   1.000  H
  H448     1.0000 0.53092  0.45266  0.22545  Biso   1.000  H
  H449     1.0000 0.91014  0.51096  0.30268  Biso   1.000  H
  H450     1.0000 0.90534  0.52307  0.22266  Biso   1.000  H
  C456     1.0000 0.89360  0.46315  0.22889  Biso   1.000  C
  C457     1.0000 0.77865  0.35893  0.34895  Biso   1.000  C
  H451     1.0000 0.88673  0.42775  0.31768  Biso   1.000  H
  H452     1.0000 0.86463  0.40198  0.24797  Biso   1.000  H
  C458     1.0000 0.52930  0.37071  0.02499  Biso   1.000  C
  N63      1.0000 0.94540  0.36355  0.81695  Biso   1.000  N
  H453     1.0000 0.97472  0.42437  0.82147  Biso   1.000  H
  C459     1.0000 0.01683  0.40392  0.80437  Biso   1.000  C
  C460     1.0000 0.05947  0.44373  0.90788  Biso   1.000  C
  H454     1.0000 0.02572  0.45176  0.98957  Biso   1.000  H
  H455     1.0000 0.02024  0.46738  0.91267  Biso   1.000  H
  N64      1.0000 0.75735  0.21692  0.18165  Biso   1.000  N
  C461     1.0000 0.76127  0.20169  0.30897  Biso   1.000  C
  H456     1.0000 0.80875  0.22558  0.23018  Biso   1.000  H
  H457     1.0000 0.85144  0.28418  0.31956  Biso   1.000  H
  H458     1.0000 0.83612  0.31496  0.33837  Biso   1.000  H
  C462     1.0000 0.80297  0.25993  0.39077  Biso   1.000  C
  H459     1.0000 0.48903  0.39916  0.30268  Biso   1.000  H
  H460     1.0000 0.47692  0.38225  0.22266  Biso   1.000  H
  C463     1.0000 0.55313  0.29440  0.43204  Biso   1.000  C
  H461     1.0000 0.53825  0.33888  0.44569  Biso   1.000  H
  H462     1.0000 0.88215  0.45737  0.17988  Biso   1.000  H
  H463     1.0000 0.92174  0.46906  0.22545  Biso   1.000  H
  C464     1.0000 0.75696  0.32578  0.40178  Biso   1.000  C
  H464     1.0000 0.76494  0.35746  0.30569  Biso   1.000  H
  C465     1.0000 0.49411  0.33004  0.01731  Biso   1.000  C
  C466     1.0000 0.91711  0.36595  0.78997  Biso   1.000  C
  H465     1.0000 0.01863  0.38027  0.81948  Biso   1.000  H
  H466     1.0000 0.01432  0.40326  0.75138  Biso   1.000  H
  C467     1.0000 0.05438  0.44154  0.82668  Biso   1.000  C
  H467     1.0000 0.08483  0.46786  0.92196  Biso   1.000  H
  H468     1.0000 0.05953  0.41966  0.92648  Biso   1.000  H
  C468     1.0000 0.76250  0.19896  0.13189  Biso   1.000  C
  C469     1.0000 0.78863  0.21479  0.37438  Biso   1.000  C
  H469     1.0000 0.73733  0.20418  0.31897  Biso   1.000  H
  H470     1.0000 0.75214  0.17337  0.29758  Biso   1.000  H
  H471     1.0000 0.77944  0.26317  0.39958  Biso   1.000  H
  H472     1.0000 0.81972  0.26835  0.43468  Biso   1.000  H
  C470     1.0000 0.54117  0.27791  0.50024  Biso   1.000  C
  C471     1.0000 0.56696  0.27696  0.38281  Biso   1.000  C
  C472     1.0000 0.72303  0.28999  0.38281  Biso   1.000  C
  C473     1.0000 0.77345  0.33031  0.46993  Biso   1.000  C
  C474     1.0000 0.47008  0.32003  0.95641  Biso   1.000  C
  C475     1.0000 0.48256  0.30360  0.07492  Biso   1.000  C
  C476     1.0000 0.87845  0.32974  0.76778  Biso   1.000  C
  H473     1.0000 0.92013  0.39175  0.78309  Biso   1.000  H
  H474     1.0000 0.05313  0.46516  0.80959  Biso   1.000  H
  H475     1.0000 0.07793  0.44208  0.80394  Biso   1.000  H
  C477     1.0000 0.73287  0.17984  0.07164  Biso   1.000  C
  H476     1.0000 0.78614  0.19708  0.13135  Biso   1.000  H
  H477     1.0000 0.81212  0.21146  0.36486  Biso   1.000  H
  H478     1.0000 0.77405  0.19798  0.41635  Biso   1.000  H
  C478     1.0000 0.54303  0.24398  0.51921  Biso   1.000  C
  H479     1.0000 0.53173  0.28987  0.53389  Biso   1.000  H
  H480     1.0000 0.57513  0.28826  0.33627  Biso   1.000  H
  C479     1.0000 0.56882  0.24303  0.40178  Biso   1.000  C
  C480     1.0000 0.70560  0.25873  0.43204  Biso   1.000  C
  H481     1.0000 0.71173  0.28688  0.33627  Biso   1.000  H
  C481     1.0000 0.75600  0.29905  0.51921  Biso   1.000  C
  H482     1.0000 0.79663  0.35477  0.48288  Biso   1.000  H
  C482     1.0000 0.43448  0.28355  0.95314  Biso   1.000  C
  H483     1.0000 0.47793  0.33807  0.91707  Biso   1.000  H
  C483     1.0000 0.44698  0.26712  0.07164  Biso   1.000  C
  H484     1.0000 0.49904  0.31047  0.11646  Biso   1.000  H
  C484     1.0000 0.85278  0.33364  0.72016  Biso   1.000  C
  C485     1.0000 0.86956  0.29197  0.79158  Biso   1.000  C
  C486     1.0000 0.69641  0.17897  0.07492  Biso   1.000  C
  C487     1.0000 0.74293  0.16584  0.01075  Biso   1.000  C
  C488     1.0000 0.52455  0.22348  0.58747  Biso   1.000  C
  C489     1.0000 0.55686  0.22654  0.46993  Biso   1.000  C
  C490     1.0000 0.58027  0.22132  0.34895  Biso   1.000  C
  C491     1.0000 0.67340  0.21977  0.41038  Biso   1.000  C
  C492     1.0000 0.72209  0.26326  0.50024  Biso   1.000  C
  C493     1.0000 0.77650  0.30105  0.58747  Biso   1.000  C
  C494     1.0000 0.41112  0.27447  0.88617  Biso   1.000  C
  C495     1.0000 0.42293  0.25708  0.01075  Biso   1.000  C
  C496     1.0000 0.43645  0.23751  0.13189  Biso   1.000  C
  C497     1.0000 0.81822  0.29977  0.69651  Biso   1.000  C
  H485     1.0000 0.85885  0.35947  0.70387  Biso   1.000  H
  C498     1.0000 0.83500  0.25810  0.76788  Biso   1.000  C
  H486     1.0000 0.88714  0.28927  0.82404  Biso   1.000  H
  C499     1.0000 0.66996  0.16408  0.01731  Biso   1.000  C
  H487     1.0000 0.68952  0.18856  0.11646  Biso   1.000  H
  C500     1.0000 0.71648  0.15095  0.95314  Biso   1.000  C
  H488     1.0000 0.76785  0.16647  0.00855  Biso   1.000  H
  C501     1.0000 0.50732  0.20376  0.63879  Biso   1.000  C
  H489     1.0000 0.55813  0.20337  0.48288  Biso   1.000  H
  N65      1.0000 0.57526  0.18656  0.35626  Biso   1.000  N
  H490     1.0000 0.59253  0.23505  0.30569  Biso   1.000  H
  N66      1.0000 0.66059  0.21164  0.34476  Biso   1.000  N
  H491     1.0000 0.66112  0.19935  0.44569  Biso   1.000  H
  H492     1.0000 0.71012  0.24186  0.53389  Biso   1.000  H
  C502     1.0000 0.79627  0.30357  0.63879  Biso   1.000  C
  N67      1.0000 0.37720  0.24225  0.87628  Biso   1.000  N
  H493     1.0000 0.42153  0.29338  0.84818  Biso   1.000  H
  H494     1.0000 0.39864  0.23218  0.00855  Biso   1.000  H
  N68      1.0000 0.45955  0.24264  0.18165  Biso   1.000  N
  H495     1.0000 0.41092  0.21386  0.13135  Biso   1.000  H
  C503     1.0000 0.80933  0.26200  0.72032  Biso   1.000  C
  C504     1.0000 0.82823  0.21746  0.78675  Biso   1.000  C
  C505     1.0000 0.62929  0.15859  0.02499  Biso   1.000  C
  C506     1.0000 0.67997  0.15005  0.95641  Biso   1.000  C
  C507     1.0000 0.72553  0.13665  0.88617  Biso   1.000  C
  C508     1.0000 0.48156  0.18179  0.69651  Biso   1.000  C
  C509     1.0000 0.59079  0.17145  0.30548  Biso   1.000  C
  C510     1.0000 0.62891  0.17304  0.32939  Biso   1.000  C
  C511     1.0000 0.35565  0.23637  0.80867  Biso   1.000  C
  C512     1.0000 0.44400  0.21428  0.24238  Biso   1.000  C
  H496     1.0000 0.78574  0.23886  0.70414  Biso   1.000  H
  N69      1.0000 0.80283  0.18763  0.75386  Biso   1.000  N
  H497     1.0000 0.84343  0.21458  0.82404  Biso   1.000  H
  C513     1.0000 0.59802  0.15607  0.04009  Biso   1.000  C
  H498     1.0000 0.66192  0.13986  0.91707  Biso   1.000  H
  N70      1.0000 0.75774  0.13494  0.87628  Biso   1.000  N
  H499     1.0000 0.70664  0.12817  0.84818  Biso   1.000  H
  C514     1.0000 0.48087  0.14723  0.72016  Biso   1.000  C
  C515     1.0000 0.45267  0.19066  0.72032  Biso   1.000  C
  C516     1.0000 0.55608  0.13018  0.27608  Biso   1.000  C
  H500     1.0000 0.59874  0.19027  0.26377  Biso   1.000  H
  H501     1.0000 0.62222  0.15826  0.37604  Biso   1.000  H
  C517     1.0000 0.64281  0.14960  0.27748  Biso   1.000  C
  C518     1.0000 0.34565  0.19738  0.77557  Biso   1.000  C
  H502     1.0000 0.37445  0.25777  0.77508  Biso   1.000  H
  C519     1.0000 0.31951  0.24348  0.82109  Biso   1.000  C
  C520     1.0000 0.47233  0.19893  0.25936  Biso   1.000  C
  C521     1.0000 0.44044  0.23874  0.30897  Biso   1.000  C
  H503     1.0000 0.41683  0.19126  0.23018  Biso   1.000  H
  C522     1.0000 0.80261  0.14825  0.77557  Biso   1.000  C
  C523     1.0000 0.55775  0.14774  0.04557  Biso   1.000  C
  C524     1.0000 0.76364  0.11926  0.80867  Biso   1.000  C
  C525     1.0000 0.45128  0.12154  0.76778  Biso   1.000  C
  H504     1.0000 0.50063  0.14118  0.70387  Biso   1.000  H
  C526     1.0000 0.42310  0.16500  0.76788  Biso   1.000  C
  H505     1.0000 0.45313  0.21428  0.70414  Biso   1.000  H
  C527     1.0000 0.56953  0.10641  0.22889  Biso   1.000  C
  H506     1.0000 0.54103  0.11327  0.31768  Biso   1.000  H
  H507     1.0000 0.53734  0.13536  0.24797  Biso   1.000  H
  H508     1.0000 0.65332  0.16506  0.23249  Biso   1.000  H
  H509     1.0000 0.66484  0.14756  0.30069  Biso   1.000  H
  C528     1.0000 0.60814  0.10674  0.25899  Biso   1.000  C
  N71      1.0000 0.38482  0.19717  0.75386  Biso   1.000  N
  C529     1.0000 0.32083  0.19036  0.70619  Biso   1.000  C
  H510     1.0000 0.32993  0.17517  0.81045  Biso   1.000  H
  H511     1.0000 0.30314  0.22678  0.86177  Biso   1.000  H
  H512     1.0000 0.32984  0.27198  0.83366  Biso   1.000  H
  C530     1.0000 0.29293  0.23277  0.75267  Biso   1.000  C
  N72      1.0000 0.47146  0.17364  0.20207  Biso   1.000  N
  H513     1.0000 0.50014  0.22195  0.26565  Biso   1.000  H
  C531     1.0000 0.45926  0.17271  0.32746  Biso   1.000  C
  C532     1.0000 0.42614  0.21137  0.37438  Biso   1.000  C
  H514     1.0000 0.46683  0.26266  0.31897  Biso   1.000  H
  H515     1.0000 0.42124  0.24788  0.29758  Biso   1.000  H
  C533     1.0000 0.80963  0.13047  0.70619  Biso   1.000  C
  H516     1.0000 0.82483  0.15475  0.81045  Biso   1.000  H
  C534     1.0000 0.52579  0.11570  0.01102  Biso   1.000  C
  C535     1.0000 0.55059  0.16992  0.09625  Biso   1.000  C
  H517     1.0000 0.74224  0.11666  0.77508  Biso   1.000  H
  C536     1.0000 0.75653  0.07604  0.82109  Biso   1.000  C
  C537     1.0000 0.42240  0.13044  0.79158  Biso   1.000  C
  C538     1.0000 0.44882  0.08288  0.78997  Biso   1.000  C
  C539     1.0000 0.38923  0.17178  0.78675  Biso   1.000  C
  H518     1.0000 0.57523  0.11786  0.17988  Biso   1.000  H
  H519     1.0000 0.54733  0.07826  0.22545  Biso   1.000  H
  H520     1.0000 0.60082  0.08986  0.30268  Biso   1.000  H
  H521     1.0000 0.61773  0.09466  0.22266  Biso   1.000  H
  C540     1.0000 0.28496  0.19354  0.72397  Biso   1.000  C
  H522     1.0000 0.33714  0.21056  0.66959  Biso   1.000  H
  H523     1.0000 0.31253  0.16348  0.68646  Biso   1.000  H
  H524     1.0000 0.26722  0.23146  0.76466  Biso   1.000  H
  H525     1.0000 0.30674  0.25376  0.71575  Biso   1.000  H
  C541     1.0000 0.50756  0.18380  0.17305  Biso   1.000  C
  H526     1.0000 0.43274  0.14858  0.31956  Biso   1.000  H
  H527     1.0000 0.47883  0.16387  0.33837  Biso   1.000  H
  C542     1.0000 0.45696  0.19702  0.39077  Biso   1.000  C
  H528     1.0000 0.39933  0.18787  0.36486  Biso   1.000  H
  H529     1.0000 0.42393  0.22597  0.41635  Biso   1.000  H
  C543     1.0000 0.80647  0.09145  0.72397  Biso   1.000  C
  H530     1.0000 0.78943  0.12658  0.66959  Biso   1.000  H
  H531     1.0000 0.83652  0.14906  0.68646  Biso   1.000  H
  C544     1.0000 0.48669  0.10587  0.02714  Biso   1.000  C
  H532     1.0000 0.53073  0.10056  0.97635  Biso   1.000  H
  C545     1.0000 0.51150  0.16006  0.11248  Biso   1.000  C
  H533     1.0000 0.57234  0.19177  0.11985  Biso   1.000  H
  H534     1.0000 0.77323  0.07637  0.86177  Biso   1.000  H
  H535     1.0000 0.72804  0.05788  0.83366  Biso   1.000  H
  C546     1.0000 0.76723  0.06016  0.75267  Biso   1.000  C
  H536     1.0000 0.40215  0.11288  0.82404  Biso   1.000  H
  N73      1.0000 0.41815  0.05461  0.81695  Biso   1.000  N
  H537     1.0000 0.47164  0.07988  0.78309  Biso   1.000  H
  H538     1.0000 0.37113  0.15655  0.82404  Biso   1.000  H
  H539     1.0000 0.26853  0.18766  0.67996  Biso   1.000  H
  H540     1.0000 0.26884  0.17256  0.75977  Biso   1.000  H
  H541     1.0000 0.53094  0.20637  0.19149  Biso   1.000  H
  H542     1.0000 0.48374  0.22058  0.39958  Biso   1.000  H
  H543     1.0000 0.44863  0.18026  0.43468  Biso   1.000  H
  H544     1.0000 0.81234  0.08087  0.67996  Biso   1.000  H
  H545     1.0000 0.82744  0.09628  0.75977  Biso   1.000  H
  C547     1.0000 0.45202  0.07173  0.99398  Biso   1.000  C
  C548     1.0000 0.47956  0.12805  0.07787  Biso   1.000  C
  H546     1.0000 0.76853  0.03576  0.76466  Biso   1.000  H
  H547     1.0000 0.74624  0.05296  0.71575  Biso   1.000  H
  C549     1.0000 0.42354  0.02161  0.83936  Biso   1.000  C
  N74      1.0000 0.45614  0.05006  0.95319  Biso   1.000  N
  H548     1.0000 0.42584  0.06666  0.00494  Biso   1.000  H
  H549     1.0000 0.45273  0.12127  0.08895  Biso   1.000  H
  H550     1.0000 0.44963  0.02527  0.82147  Biso   1.000  H
  C550     1.0000 0.41976  0.01469  0.92336  Biso   1.000  C
  C551     1.0000 0.38707  0.98315  0.80437  Biso   1.000  C
  H551     1.0000 0.39445  0.01208  0.94298  Biso   1.000  H
  C552     1.0000 0.42326  0.97740  0.93744  Biso   1.000  C
  H552     1.0000 0.36162  0.98136  0.81948  Biso   1.000  H
  H553     1.0000 0.38893  0.98567  0.75138  Biso   1.000  H
  C553     1.0000 0.38715  0.94563  0.82668  Biso   1.000  C
  C554     1.0000 0.38424  0.94053  0.90788  Biso   1.000  C
  H554     1.0000 0.42602  0.97425  0.98957  Biso   1.000  H
  H555     1.0000 0.44713  0.97977  0.91267  Biso   1.000  H
  H556     1.0000 0.41204  0.94686  0.80959  Biso   1.000  H
  H557     1.0000 0.36413  0.92207  0.80394  Biso   1.000  H
  H558     1.0000 0.38304  0.91517  0.92196  Biso   1.000  H
  H559     1.0000 0.36015  0.94047  0.92648  Biso   1.000  H
