data_image0
_cell_length_a       18.11
_cell_length_b       18.11
_cell_length_c       50.971
_cell_angle_alpha    90
_cell_angle_beta     90
_cell_angle_gamma    120

_symmetry_space_group_name_H-M    "P 1"
_symmetry_int_tables_number       1

loop_
  _symmetry_equiv_pos_as_xyz
  'x, y, z'

loop_
  _atom_site_label
  _atom_site_occupancy
  _atom_site_fract_x
  _atom_site_fract_y
  _atom_site_fract_z
  _atom_site_thermal_displace_type
  _atom_site_B_iso_or_equiv
  _atom_site_type_symbol
  O1       1.0000 0.35842  0.40641  0.46473  Biso   1.000  O
  C1       1.0000 0.33916  0.35508  0.44051  Biso   1.000  C
  B1       1.0000 0.40169  0.49351  0.46350  Biso   1.000  B
  C2       1.0000 0.33335  0.40354  0.41663  Biso   1.000  C
  H1       1.0000 0.38438  0.34048  0.43750  Biso   1.000  H
  H2       1.0000 0.28439  0.30108  0.44270  Biso   1.000  H
  O2       1.0000 0.42851  0.53731  0.44001  Biso   1.000  O
  C3       1.0000 0.42050  0.54547  0.48959  Biso   1.000  C
  C4       1.0000 0.32745  0.34922  0.39283  Biso   1.000  C
  C5       1.0000 0.25300  0.40915  0.41761  Biso   1.000  C
  C6       1.0000 0.41371  0.48949  0.41573  Biso   1.000  C
  C7       1.0000 0.41403  0.50702  0.51390  Biso   1.000  C
  C8       1.0000 0.44370  0.63218  0.48969  Biso   1.000  C
  O3       1.0000 0.30829  0.38135  0.36860  Biso   1.000  O
  H3       1.0000 0.28225  0.28941  0.39583  Biso   1.000  H
  H4       1.0000 0.38226  0.35004  0.39063  Biso   1.000  H
  O4       1.0000 0.23817  0.44211  0.39332  Biso   1.000  O
  H5       1.0000 0.25704  0.44683  0.43232  Biso   1.000  H
  H6       1.0000 0.20374  0.35170  0.42102  Biso   1.000  H
  H7       1.0000 0.40958  0.52309  0.40099  Biso   1.000  H
  H8       1.0000 0.46292  0.48133  0.41229  Biso   1.000  H
  H9       1.0000 0.39852  0.44862  0.51429  Biso   1.000  H
  C9       1.0000 0.42942  0.55083  0.53750  Biso   1.000  C
  C10      1.0000 0.45879  0.67650  0.51319  Biso   1.000  C
  H10      1.0000 0.44917  0.66069  0.47350  Biso   1.000  H
  B2       1.0000 0.26498  0.42515  0.36984  Biso   1.000  B
  H11      1.0000 0.42462  0.52290  0.55371  Biso   1.000  H
  C11      1.0000 0.45212  0.63633  0.53699  Biso   1.000  C
  H12      1.0000 0.47379  0.73477  0.51300  Biso   1.000  H
  C12      1.0000 0.24616  0.45831  0.34372  Biso   1.000  C
  C13      1.0000 0.46461  0.68472  0.56210  Biso   1.000  C
  C14      1.0000 0.25263  0.42630  0.31944  Biso   1.000  C
  C15      1.0000 0.22297  0.52181  0.34363  Biso   1.000  C
  N1       1.0000 0.47090  0.65622  0.58382  Biso   1.000  N
  H13      1.0000 0.46781  0.73860  0.56140  Biso   1.000  H
  C16      1.0000 0.23725  0.45474  0.29583  Biso   1.000  C
  H14      1.0000 0.26820  0.38345  0.31902  Biso   1.000  H
  C17      1.0000 0.20787  0.55102  0.32014  Biso   1.000  C
  H15      1.0000 0.21747  0.54483  0.35983  Biso   1.000  H
  C18      1.0000 0.48358  0.70908  0.60740  Biso   1.000  C
  H16      1.0000 0.24206  0.43166  0.27963  Biso   1.000  H
  C19      1.0000 0.21460  0.51754  0.29633  Biso   1.000  C
  H17      1.0000 0.19285  0.59431  0.32034  Biso   1.000  H
  H18      1.0000 0.53733  0.72170  0.61629  Biso   1.000  H
  H19      1.0000 0.48820  0.76391  0.60221  Biso   1.000  H
  C20      1.0000 0.40748  0.66100  0.62640  Biso   1.000  C
  C21      1.0000 0.20207  0.55344  0.27123  Biso   1.000  C
  N2       1.0000 0.33328  0.66668  0.61739  Biso   1.000  N
  H20      1.0000 0.42422  0.68600  0.64421  Biso   1.000  H
  H21      1.0000 0.39221  0.60043  0.62740  Biso   1.000  H
  N3       1.0000 0.19576  0.51863  0.24951  Biso   1.000  N
  H22      1.0000 0.19886  0.60413  0.27194  Biso   1.000  H
  C22      1.0000 0.25352  0.59253  0.62640  Biso   1.000  C
  C23      1.0000 0.33902  0.74651  0.62640  Biso   1.000  C
  C24      1.0000 0.18307  0.55886  0.22593  Biso   1.000  C
  C25      1.0000 0.22551  0.51640  0.60740  Biso   1.000  C
  H23      1.0000 0.26179  0.57582  0.64421  Biso   1.000  H
  H24      1.0000 0.20822  0.60783  0.62740  Biso   1.000  H
  C26      1.0000 0.29089  0.77450  0.60740  Biso   1.000  C
  H25      1.0000 0.31400  0.73822  0.64421  Biso   1.000  H
  H26      1.0000 0.39959  0.79178  0.62740  Biso   1.000  H
  H27      1.0000 0.12938  0.51773  0.21703  Biso   1.000  H
  H28      1.0000 0.17846  0.60904  0.23113  Biso   1.000  H
  C27      1.0000 0.25919  0.58685  0.20694  Biso   1.000  C
  N4       1.0000 0.18530  0.52908  0.58382  Biso   1.000  N
  H29      1.0000 0.18442  0.46271  0.61629  Biso   1.000  H
  H30      1.0000 0.27573  0.51180  0.60221  Biso   1.000  H
  N5       1.0000 0.34381  0.81473  0.58382  Biso   1.000  N
  H31      1.0000 0.27832  0.81562  0.61629  Biso   1.000  H
  H32      1.0000 0.23610  0.72432  0.60221  Biso   1.000  H
  N6       1.0000 0.33325  0.66661  0.21593  Biso   1.000  N
  H33      1.0000 0.24246  0.59514  0.18913  Biso   1.000  H
  H34      1.0000 0.27446  0.54152  0.20594  Biso   1.000  H
  C28      1.0000 0.22010  0.53540  0.56210  Biso   1.000  C
  C29      1.0000 0.31530  0.77992  0.56210  Biso   1.000  C
  C30      1.0000 0.32768  0.74083  0.20694  Biso   1.000  C
  C31      1.0000 0.41315  0.67235  0.20694  Biso   1.000  C
  C32      1.0000 0.18422  0.54789  0.53699  Biso   1.000  C
  H35      1.0000 0.27080  0.53221  0.56140  Biso   1.000  H
  C33      1.0000 0.36373  0.81581  0.53699  Biso   1.000  C
  H36      1.0000 0.26141  0.72923  0.56140  Biso   1.000  H
  C34      1.0000 0.37579  0.81696  0.22593  Biso   1.000  C
  H37      1.0000 0.35265  0.75754  0.18913  Biso   1.000  H
  H38      1.0000 0.26707  0.72553  0.20594  Biso   1.000  H
  C35      1.0000 0.44115  0.62421  0.22593  Biso   1.000  C
  H39      1.0000 0.40491  0.64736  0.18913  Biso   1.000  H
  H40      1.0000 0.45846  0.73293  0.20594  Biso   1.000  H
  C36      1.0000 0.12141  0.57059  0.53750  Biso   1.000  C
  C37      1.0000 0.21770  0.54120  0.51319  Biso   1.000  C
  C38      1.0000 0.44919  0.87862  0.53750  Biso   1.000  C
  C39      1.0000 0.32350  0.78228  0.51319  Biso   1.000  C
  N7       1.0000 0.32287  0.80421  0.24951  Biso   1.000  N
  H41      1.0000 0.38839  0.87065  0.21703  Biso   1.000  H
  H42      1.0000 0.43060  0.82155  0.23113  Biso   1.000  H
  N8       1.0000 0.48136  0.67714  0.24951  Biso   1.000  N
  H43      1.0000 0.48230  0.61165  0.21703  Biso   1.000  H
  H44      1.0000 0.39096  0.56944  0.23113  Biso   1.000  H
  C40      1.0000 0.09301  0.58602  0.51390  Biso   1.000  C
  H45      1.0000 0.09829  0.57537  0.55371  Biso   1.000  H
  C41      1.0000 0.18848  0.55631  0.48969  Biso   1.000  C
  H46      1.0000 0.26101  0.52621  0.51300  Biso   1.000  H
  C42      1.0000 0.49298  0.90699  0.51390  Biso   1.000  C
  H47      1.0000 0.47708  0.90170  0.55371  Biso   1.000  H
  C43      1.0000 0.36780  0.81148  0.48969  Biso   1.000  C
  H48      1.0000 0.26518  0.73898  0.51300  Biso   1.000  H
  C44      1.0000 0.35138  0.79796  0.27123  Biso   1.000  C
  C45      1.0000 0.44657  0.64863  0.27123  Biso   1.000  C
  C46      1.0000 0.12499  0.57952  0.48959  Biso   1.000  C
  H49      1.0000 0.05012  0.60152  0.51429  Biso   1.000  H
  H50      1.0000 0.21153  0.55083  0.47350  Biso   1.000  H
  C47      1.0000 0.45450  0.87498  0.48959  Biso   1.000  C
  H51      1.0000 0.55143  0.94990  0.51429  Biso   1.000  H
  H52      1.0000 0.33932  0.78852  0.47350  Biso   1.000  H
  C48      1.0000 0.30300  0.78546  0.29633  Biso   1.000  C
  H53      1.0000 0.40527  0.80115  0.27194  Biso   1.000  H
  C49      1.0000 0.48247  0.69703  0.29633  Biso   1.000  C
  H54      1.0000 0.39589  0.59476  0.27194  Biso   1.000  H
  B3       1.0000 0.09182  0.59833  0.46350  Biso   1.000  B
  B4       1.0000 0.50650  0.90820  0.46350  Biso   1.000  B
  C50      1.0000 0.21746  0.76270  0.29583  Biso   1.000  C
  C51      1.0000 0.34318  0.79216  0.32014  Biso   1.000  C
  C52      1.0000 0.54527  0.78253  0.29583  Biso   1.000  C
  C53      1.0000 0.44897  0.65686  0.32014  Biso   1.000  C
  O5       1.0000 0.04803  0.64162  0.46473  Biso   1.000  O
  O6       1.0000 0.10877  0.57148  0.44001  Biso   1.000  O
  O7       1.0000 0.59362  0.95201  0.46473  Biso   1.000  O
  O8       1.0000 0.46271  0.89118  0.44001  Biso   1.000  O
  C54      1.0000 0.17367  0.74734  0.31944  Biso   1.000  C
  H55      1.0000 0.18956  0.75792  0.27963  Biso   1.000  H
  H56      1.0000 0.40147  0.80714  0.32034  Biso   1.000  H
  C55      1.0000 0.29885  0.77705  0.34363  Biso   1.000  C
  C56      1.0000 0.57369  0.82633  0.31944  Biso   1.000  C
  H57      1.0000 0.56840  0.81046  0.27963  Biso   1.000  H
  H58      1.0000 0.40566  0.59852  0.32034  Biso   1.000  H
  C57      1.0000 0.47816  0.70111  0.34363  Biso   1.000  C
  C58      1.0000 0.01588  0.66081  0.44051  Biso   1.000  C
  C59      1.0000 0.07580  0.58628  0.41573  Biso   1.000  C
  C60      1.0000 0.64488  0.98408  0.44051  Biso   1.000  C
  C61      1.0000 0.51053  0.92421  0.41573  Biso   1.000  C
  C62      1.0000 0.21215  0.75384  0.34372  Biso   1.000  C
  H59      1.0000 0.11529  0.73184  0.31902  Biso   1.000  H
  H60      1.0000 0.32738  0.78253  0.35983  Biso   1.000  H
  C63      1.0000 0.54168  0.78782  0.34372  Biso   1.000  C
  H61      1.0000 0.61658  0.88474  0.31902  Biso   1.000  H
  H62      1.0000 0.45513  0.67261  0.35983  Biso   1.000  H
  C64      1.0000 0.07017  0.66668  0.41671  Biso   1.000  C
  H63      1.0000 0.01671  0.71558  0.44270  Biso   1.000  H
  H64      1.0000 0.95612  0.61561  0.43750  Biso   1.000  H
  H65      1.0000 0.11349  0.59042  0.40099  Biso   1.000  H
  H66      1.0000 0.01842  0.53712  0.41229  Biso   1.000  H
  C65      1.0000 0.59649  0.92982  0.41671  Biso   1.000  C
  H67      1.0000 0.69889  0.98331  0.44270  Biso   1.000  H
  H68      1.0000 0.65949  0.04388  0.43750  Biso   1.000  H
  H69      1.0000 0.47689  0.88652  0.40099  Biso   1.000  H
  H70      1.0000 0.51868  0.98159  0.41229  Biso   1.000  H
  B5       1.0000 0.16017  0.73503  0.36984  Biso   1.000  B
  B6       1.0000 0.57487  0.83985  0.36984  Biso   1.000  B
  C66      1.0000 0.02175  0.67254  0.39283  Biso   1.000  C
  C67      1.0000 0.15617  0.74702  0.41761  Biso   1.000  C
  C68      1.0000 0.65073  0.97821  0.39283  Biso   1.000  C
  C69      1.0000 0.59087  0.84380  0.41761  Biso   1.000  C
  O9       1.0000 0.07309  0.69174  0.36860  Biso   1.000  O
  O10      1.0000 0.20393  0.76181  0.39332  Biso   1.000  O
  O11      1.0000 0.61869  0.92695  0.36860  Biso   1.000  O
  O12      1.0000 0.55788  0.79605  0.39332  Biso   1.000  O
  H71      1.0000 0.00719  0.71775  0.39583  Biso   1.000  H
  H72      1.0000 0.96777  0.61771  0.39063  Biso   1.000  H
  H73      1.0000 0.18975  0.74294  0.43232  Biso   1.000  H
  H74      1.0000 0.14798  0.79624  0.42102  Biso   1.000  H
  H75      1.0000 0.71054  0.99281  0.39583  Biso   1.000  H
  H76      1.0000 0.64996  0.03222  0.39063  Biso   1.000  H
  H77      1.0000 0.55314  0.81020  0.43232  Biso   1.000  H
  H78      1.0000 0.64827  0.85203  0.42102  Biso   1.000  H
  C70      1.0000 0.07415  0.07983  0.45973  Biso   1.000  C
  N9       1.0000 0.99998  0.00006  0.45073  Biso   1.000  N
  N10      1.0000 0.99994  0.00000  0.45073  Biso   1.000  N
  C71      1.0000 0.15027  0.10782  0.44074  Biso   1.000  C
  H79      1.0000 0.09088  0.07154  0.47753  Biso   1.000  H
  H80      1.0000 0.05888  0.12516  0.46073  Biso   1.000  H
  H81      1.0000 0.05885  0.12510  0.46073  Biso   1.000  H
  C72      1.0000 0.00566  0.92585  0.45973  Biso   1.000  C
  C73      1.0000 0.92019  0.99433  0.45973  Biso   1.000  C
  H82      1.0000 0.20396  0.14894  0.44963  Biso   1.000  H
  H83      1.0000 0.15488  0.05764  0.43554  Biso   1.000  H
  N11      1.0000 0.13755  0.14799  0.41716  Biso   1.000  N
  C74      1.0000 0.95755  0.84972  0.44074  Biso   1.000  C
  H84      1.0000 0.98069  0.90914  0.47753  Biso   1.000  H
  H85      1.0000 0.06627  0.94115  0.46073  Biso   1.000  H
  H86      1.0000 0.06624  0.94109  0.46073  Biso   1.000  H
  H87      1.0000 0.87488  0.93375  0.46073  Biso   1.000  H
  H88      1.0000 0.87485  0.93369  0.46073  Biso   1.000  H
  C75      1.0000 0.89219  0.04246  0.44074  Biso   1.000  C
  H89      1.0000 0.92843  0.01932  0.47753  Biso   1.000  H
  C76      1.0000 0.89216  0.04240  0.44074  Biso   1.000  C
  C77      1.0000 0.13127  0.11324  0.39544  Biso   1.000  C
  N12      1.0000 0.01044  0.86241  0.41716  Biso   1.000  N
  H90      1.0000 0.94495  0.79603  0.44963  Biso   1.000  H
  H91      1.0000 0.90274  0.84513  0.43554  Biso   1.000  H
  N13      1.0000 0.85198  0.98954  0.41716  Biso   1.000  N
  H92      1.0000 0.85104  0.05503  0.44963  Biso   1.000  H
  H93      1.0000 0.94238  0.09723  0.43554  Biso   1.000  H
  C78      1.0000 0.11874  0.14914  0.37033  Biso   1.000  C
  H94      1.0000 0.13448  0.06255  0.39473  Biso   1.000  H
  H95      1.0000 0.13445  0.06249  0.39473  Biso   1.000  H
  C79      1.0000 0.98196  0.86872  0.39544  Biso   1.000  C
  C80      1.0000 0.88677  0.01804  0.39544  Biso   1.000  C
  C81      1.0000 0.09609  0.21194  0.37084  Biso   1.000  C
  C82      1.0000 0.12547  0.11566  0.34653  Biso   1.000  C
  C83      1.0000 0.12544  0.11560  0.34653  Biso   1.000  C
  C84      1.0000 0.03034  0.88121  0.37033  Biso   1.000  C
  H96      1.0000 0.92807  0.86553  0.39473  Biso   1.000  H
  C85      1.0000 0.85087  0.96965  0.37033  Biso   1.000  C
  C86      1.0000 0.85083  0.96959  0.37033  Biso   1.000  C
  H97      1.0000 0.93745  0.07192  0.39473  Biso   1.000  H
  C87      1.0000 0.08068  0.24031  0.34724  Biso   1.000  C
  H98      1.0000 0.09128  0.23502  0.38702  Biso   1.000  H
  H99      1.0000 0.14046  0.07230  0.34633  Biso   1.000  H
  C88      1.0000 0.11033  0.14480  0.32303  Biso   1.000  C
  C89      1.0000 0.11584  0.90391  0.37084  Biso   1.000  C
  C90      1.0000 0.99016  0.87452  0.34653  Biso   1.000  C
  C91      1.0000 0.78807  0.88415  0.37084  Biso   1.000  C
  C92      1.0000 0.78804  0.88408  0.37084  Biso   1.000  C
  C93      1.0000 0.88437  0.00982  0.34653  Biso   1.000  C
  C94      1.0000 0.08715  0.20831  0.32293  Biso   1.000  C
  H100     1.0000 0.06513  0.28322  0.34763  Biso   1.000  H
  H101     1.0000 0.11587  0.12185  0.30684  Biso   1.000  H
  C95      1.0000 0.15967  0.91934  0.34724  Biso   1.000  C
  H102     1.0000 0.14375  0.90870  0.38702  Biso   1.000  H
  C96      1.0000 0.03449  0.88963  0.32303  Biso   1.000  C
  H103     1.0000 0.93187  0.85954  0.34633  Biso   1.000  H
  C97      1.0000 0.75965  0.84034  0.34724  Biso   1.000  C
  H104     1.0000 0.76494  0.85622  0.38702  Biso   1.000  H
  C98      1.0000 0.85514  0.96551  0.32303  Biso   1.000  C
  H105     1.0000 0.92764  0.06810  0.34633  Biso   1.000  H
  B7       1.0000 0.06836  0.24152  0.29684  Biso   1.000  B
  C99      1.0000 0.12119  0.91284  0.32293  Biso   1.000  C
  H106     1.0000 0.21805  0.93484  0.34763  Biso   1.000  H
  H107     1.0000 0.00596  0.88415  0.30684  Biso   1.000  H
  H108     1.0000 0.00593  0.88408  0.30684  Biso   1.000  H
  C100     1.0000 0.79166  0.87886  0.32293  Biso   1.000  C
  H109     1.0000 0.71676  0.78194  0.34763  Biso   1.000  H
  C101     1.0000 0.79163  0.87879  0.32293  Biso   1.000  C
  H110     1.0000 0.87817  0.99401  0.30684  Biso   1.000  H
  O13      1.0000 0.02505  0.28533  0.29807  Biso   1.000  O
  O14      1.0000 0.09513  0.22450  0.27335  Biso   1.000  O
  B8       1.0000 0.17314  0.93159  0.29684  Biso   1.000  B
  B9       1.0000 0.75847  0.82683  0.29684  Biso   1.000  B
  C102     1.0000 0.00589  0.31746  0.27384  Biso   1.000  C
  C103     1.0000 0.00586  0.31740  0.27384  Biso   1.000  C
  C104     1.0000 0.08034  0.25753  0.24904  Biso   1.000  C
  O15      1.0000 0.26025  0.97494  0.29807  Biso   1.000  O
  O16      1.0000 0.12938  0.90481  0.27335  Biso   1.000  O
  O17      1.0000 0.71465  0.73973  0.29807  Biso   1.000  O
  O18      1.0000 0.77546  0.87063  0.27335  Biso   1.000  O
  C105     1.0000 0.99998  0.26314  0.25002  Biso   1.000  C
  H111     1.0000 0.05105  0.37721  0.27084  Biso   1.000  H
  H112     1.0000 0.95108  0.31663  0.27604  Biso   1.000  H
  H113     1.0000 0.07630  0.21985  0.23433  Biso   1.000  H
  H114     1.0000 0.12957  0.31491  0.24563  Biso   1.000  H
  C106     1.0000 0.31159  0.99413  0.27384  Biso   1.000  C
  C107     1.0000 0.17714  0.91960  0.24904  Biso   1.000  C
  C108     1.0000 0.68258  0.68840  0.27384  Biso   1.000  C
  C109     1.0000 0.74244  0.82281  0.24904  Biso   1.000  C
  C110     1.0000 0.99414  0.31153  0.22617  Biso   1.000  C
  C111     1.0000 0.91960  0.17713  0.25095  Biso   1.000  C
  C112     1.0000 0.26314  0.99994  0.24997  Biso   1.000  C
  H115     1.0000 0.36553  0.04890  0.27604  Biso   1.000  H
  H116     1.0000 0.32615  0.94893  0.27084  Biso   1.000  H
  H117     1.0000 0.14359  0.92374  0.23433  Biso   1.000  H
  H118     1.0000 0.18536  0.87044  0.24563  Biso   1.000  H
  C113     1.0000 0.73690  0.73686  0.25002  Biso   1.000  C
  C114     1.0000 0.73687  0.73680  0.25002  Biso   1.000  C
  H119     1.0000 0.62277  0.67380  0.27084  Biso   1.000  H
  H120     1.0000 0.68338  0.63446  0.27604  Biso   1.000  H
  H121     1.0000 0.68335  0.63440  0.27604  Biso   1.000  H
  H122     1.0000 0.78017  0.85641  0.23433  Biso   1.000  H
  H123     1.0000 0.68504  0.81458  0.24563  Biso   1.000  H
  O19      1.0000 0.97492  0.26027  0.20194  Biso   1.000  O
  H124     1.0000 0.04892  0.36554  0.22397  Biso   1.000  H
  H125     1.0000 0.94893  0.32613  0.22917  Biso   1.000  H
  O20      1.0000 0.90483  0.12937  0.22664  Biso   1.000  O
  H126     1.0000 0.87042  0.18535  0.25436  Biso   1.000  H
  H127     1.0000 0.92372  0.14352  0.26566  Biso   1.000  H
  C115     1.0000 0.25751  0.08034  0.25095  Biso   1.000  C
  C116     1.0000 0.31746  0.00587  0.22617  Biso   1.000  C
  C117     1.0000 0.68842  0.68254  0.22617  Biso   1.000  C
  C118     1.0000 0.82281  0.74247  0.25095  Biso   1.000  C
  B10      1.0000 0.93164  0.17317  0.20317  Biso   1.000  B
  H128     1.0000 0.21985  0.07626  0.26566  Biso   1.000  H
  H129     1.0000 0.31492  0.12956  0.25436  Biso   1.000  H
  O21      1.0000 0.22457  0.09519  0.22664  Biso   1.000  O
  O22      1.0000 0.22454  0.09513  0.22664  Biso   1.000  O
  O23      1.0000 0.28531  0.02506  0.20194  Biso   1.000  O
  H130     1.0000 0.37722  0.05107  0.22917  Biso   1.000  H
  H131     1.0000 0.31663  0.95110  0.22397  Biso   1.000  H
  H132     1.0000 0.31660  0.95103  0.22397  Biso   1.000  H
  O24      1.0000 0.73972  0.71467  0.20194  Biso   1.000  O
  H133     1.0000 0.63445  0.68337  0.22397  Biso   1.000  H
  H134     1.0000 0.67382  0.62273  0.22917  Biso   1.000  H
  O25      1.0000 0.87060  0.77544  0.22664  Biso   1.000  O
  H135     1.0000 0.85645  0.78015  0.26566  Biso   1.000  H
  H136     1.0000 0.81466  0.68509  0.25436  Biso   1.000  H
  H137     1.0000 0.81463  0.68502  0.25436  Biso   1.000  H
  C119     1.0000 0.91281  0.12114  0.17706  Biso   1.000  C
  B11      1.0000 0.24152  0.06835  0.20317  Biso   1.000  B
  B12      1.0000 0.82684  0.75848  0.20317  Biso   1.000  B
  C120     1.0000 0.88964  0.03449  0.17696  Biso   1.000  C
  C121     1.0000 0.88961  0.03443  0.17696  Biso   1.000  C
  C122     1.0000 0.91931  0.15966  0.15277  Biso   1.000  C
  C123     1.0000 0.20835  0.08716  0.17706  Biso   1.000  C
  C124     1.0000 0.87881  0.79163  0.17706  Biso   1.000  C
  C125     1.0000 0.87455  0.99018  0.15346  Biso   1.000  C
  C126     1.0000 0.87452  0.99012  0.15346  Biso   1.000  C
  H138     1.0000 0.88417  0.00599  0.19317  Biso   1.000  H
  H139     1.0000 0.88414  0.00593  0.19317  Biso   1.000  H
  C127     1.0000 0.90392  0.11585  0.12917  Biso   1.000  C
  H140     1.0000 0.93482  0.21806  0.15236  Biso   1.000  H
  C128     1.0000 0.24033  0.08066  0.15277  Biso   1.000  C
  C129     1.0000 0.14486  0.11037  0.17696  Biso   1.000  C
  C130     1.0000 0.84033  0.75962  0.15277  Biso   1.000  C
  C131     1.0000 0.96550  0.85514  0.17696  Biso   1.000  C
  C132     1.0000 0.88122  0.03035  0.12966  Biso   1.000  C
  H141     1.0000 0.85951  0.93184  0.15368  Biso   1.000  H
  H142     1.0000 0.90872  0.14378  0.11297  Biso   1.000  H
  H143     1.0000 0.28322  0.06516  0.15236  Biso   1.000  H
  C133     1.0000 0.21190  0.09602  0.12917  Biso   1.000  C
  C134     1.0000 0.11564  0.12548  0.15346  Biso   1.000  C
  H144     1.0000 0.12181  0.11585  0.19317  Biso   1.000  H
  C135     1.0000 0.88415  0.78806  0.12917  Biso   1.000  C
  H145     1.0000 0.78191  0.71678  0.15236  Biso   1.000  H
  C136     1.0000 0.00981  0.88434  0.15346  Biso   1.000  C
  H146     1.0000 0.99402  0.87815  0.19317  Biso   1.000  H
  C137     1.0000 0.86873  0.98196  0.10457  Biso   1.000  C
  H147     1.0000 0.23502  0.09124  0.11297  Biso   1.000  H
  C138     1.0000 0.14909  0.11872  0.12966  Biso   1.000  C
  H148     1.0000 0.07233  0.14046  0.15368  Biso   1.000  H
  C139     1.0000 0.96961  0.85086  0.12966  Biso   1.000  C
  H149     1.0000 0.85626  0.76498  0.11297  Biso   1.000  H
  H150     1.0000 0.06815  0.92770  0.15368  Biso   1.000  H
  H151     1.0000 0.06812  0.92763  0.15368  Biso   1.000  H
  N14      1.0000 0.86243  0.01046  0.08285  Biso   1.000  N
  H152     1.0000 0.86553  0.92808  0.10528  Biso   1.000  H
  C140     1.0000 0.11324  0.13128  0.10457  Biso   1.000  C
  C141     1.0000 0.11321  0.13122  0.10457  Biso   1.000  C
  C142     1.0000 0.01804  0.88676  0.10457  Biso   1.000  C
  C143     1.0000 0.84972  0.95754  0.05927  Biso   1.000  C
  H153     1.0000 0.06254  0.13447  0.10528  Biso   1.000  H
  N15      1.0000 0.14800  0.13753  0.08285  Biso   1.000  N
  N16      1.0000 0.98953  0.85195  0.08285  Biso   1.000  N
  H154     1.0000 0.07193  0.93745  0.10528  Biso   1.000  H
  C144     1.0000 0.92586  0.00567  0.04026  Biso   1.000  C
  H155     1.0000 0.79601  0.94497  0.05036  Biso   1.000  H
  H156     1.0000 0.84514  0.90277  0.06447  Biso   1.000  H
  C145     1.0000 0.10783  0.15028  0.05927  Biso   1.000  C
  C146     1.0000 0.10780  0.15022  0.05927  Biso   1.000  C
  C147     1.0000 0.04241  0.89212  0.05927  Biso   1.000  C
  N17      1.0000 0.00003  0.00006  0.04926  Biso   1.000  N
  H157     1.0000 0.90911  0.98068  0.02246  Biso   1.000  H
  H158     1.0000 0.94113  0.06625  0.03926  Biso   1.000  H
  H159     1.0000 0.14892  0.20397  0.05036  Biso   1.000  H
  H160     1.0000 0.05761  0.15487  0.06447  Biso   1.000  H
  C148     1.0000 0.07982  0.07415  0.04026  Biso   1.000  C
  C149     1.0000 0.99432  0.92017  0.04026  Biso   1.000  C
  H161     1.0000 0.05501  0.85106  0.05036  Biso   1.000  H
  H162     1.0000 0.09724  0.94236  0.06447  Biso   1.000  H
  H163     1.0000 0.07155  0.09086  0.02246  Biso   1.000  H
  H164     1.0000 0.12512  0.05885  0.03926  Biso   1.000  H
  H165     1.0000 0.93372  0.87484  0.03926  Biso   1.000  H
  H166     1.0000 0.01934  0.92846  0.02246  Biso   1.000  H
  C150     1.0000 0.04245  0.15028  0.55926  Biso   1.000  C
  C151     1.0000 0.99434  0.07415  0.54027  Biso   1.000  C
  H167     1.0000 0.05505  0.20397  0.55037  Biso   1.000  H
  H168     1.0000 0.09726  0.15487  0.56446  Biso   1.000  H
  N18      1.0000 0.98953  0.13753  0.58284  Biso   1.000  N
  N19      1.0000 0.00002  0.99994  0.54927  Biso   1.000  N
  H169     1.0000 0.01931  0.09086  0.52247  Biso   1.000  H
  H170     1.0000 0.93373  0.05885  0.53927  Biso   1.000  H
  C152     1.0000 0.04242  0.15022  0.55926  Biso   1.000  C
  C153     1.0000 0.01804  0.13128  0.60456  Biso   1.000  C
  C154     1.0000 0.01801  0.13122  0.60456  Biso   1.000  C
  C155     1.0000 0.07981  0.00567  0.54027  Biso   1.000  C
  C156     1.0000 0.92585  0.92017  0.54027  Biso   1.000  C
  H171     1.0000 0.07193  0.13447  0.60527  Biso   1.000  H
  C157     1.0000 0.96963  0.11872  0.62967  Biso   1.000  C
  H172     1.0000 0.12512  0.06625  0.53927  Biso   1.000  H
  C158     1.0000 0.10781  0.95754  0.55926  Biso   1.000  C
  H173     1.0000 0.07157  0.98068  0.52247  Biso   1.000  H
  H174     1.0000 0.90912  0.92846  0.52247  Biso   1.000  H
  H175     1.0000 0.94112  0.87484  0.53927  Biso   1.000  H
  C159     1.0000 0.84970  0.89212  0.55926  Biso   1.000  C
  C160     1.0000 0.00984  0.12548  0.65347  Biso   1.000  C
  C161     1.0000 0.88412  0.09602  0.62916  Biso   1.000  C
  N20      1.0000 0.14802  0.01046  0.58284  Biso   1.000  N
  H176     1.0000 0.14896  0.94497  0.55037  Biso   1.000  H
  H177     1.0000 0.05762  0.90277  0.56446  Biso   1.000  H
  N21      1.0000 0.86242  0.85195  0.58284  Biso   1.000  N
  H178     1.0000 0.79604  0.85106  0.55037  Biso   1.000  H
  H179     1.0000 0.84512  0.94236  0.56446  Biso   1.000  H
  H180     1.0000 0.06813  0.14046  0.65367  Biso   1.000  H
  C162     1.0000 0.96551  0.11037  0.67697  Biso   1.000  C
  C163     1.0000 0.84033  0.08066  0.65276  Biso   1.000  C
  H181     1.0000 0.85622  0.09124  0.61298  Biso   1.000  H
  C164     1.0000 0.11323  0.98196  0.60456  Biso   1.000  C
  C165     1.0000 0.86873  0.88676  0.60456  Biso   1.000  C
  C166     1.0000 0.87881  0.08716  0.67707  Biso   1.000  C
  H182     1.0000 0.99404  0.11585  0.69316  Biso   1.000  H
  H183     1.0000 0.78195  0.06516  0.65237  Biso   1.000  H
  C167     1.0000 0.14913  0.03035  0.62967  Biso   1.000  C
  H184     1.0000 0.06255  0.92808  0.60527  Biso   1.000  H
  C168     1.0000 0.88126  0.85086  0.62967  Biso   1.000  C
  H185     1.0000 0.86552  0.93745  0.60527  Biso   1.000  H
  B13      1.0000 0.82683  0.06835  0.70316  Biso   1.000  B
  C169     1.0000 0.21193  0.11585  0.62916  Biso   1.000  C
  C170     1.0000 0.11563  0.99018  0.65347  Biso   1.000  C
  C171     1.0000 0.11560  0.99012  0.65347  Biso   1.000  C
  C172     1.0000 0.90391  0.78806  0.62916  Biso   1.000  C
  C173     1.0000 0.87453  0.88434  0.65347  Biso   1.000  C
  O26      1.0000 0.73975  0.02506  0.70193  Biso   1.000  O
  O27      1.0000 0.87062  0.09519  0.72665  Biso   1.000  O
  O28      1.0000 0.87059  0.09513  0.72665  Biso   1.000  O
  C174     1.0000 0.24035  0.15966  0.65276  Biso   1.000  C
  H186     1.0000 0.23506  0.14378  0.61298  Biso   1.000  H
  H187     1.0000 0.07233  0.93184  0.65367  Biso   1.000  H
  C175     1.0000 0.14486  0.03449  0.67697  Biso   1.000  C
  C176     1.0000 0.14482  0.03443  0.67697  Biso   1.000  C
  H188     1.0000 0.90872  0.76498  0.61298  Biso   1.000  H
  C177     1.0000 0.91929  0.75962  0.65276  Biso   1.000  C
  H189     1.0000 0.85954  0.92770  0.65367  Biso   1.000  H
  C178     1.0000 0.88963  0.85514  0.67697  Biso   1.000  C
  H190     1.0000 0.85951  0.92763  0.65367  Biso   1.000  H
  C179     1.0000 0.68841  0.00587  0.72616  Biso   1.000  C
  C180     1.0000 0.82283  0.08034  0.75096  Biso   1.000  C
  C181     1.0000 0.20834  0.12114  0.67707  Biso   1.000  C
  H191     1.0000 0.28324  0.21806  0.65237  Biso   1.000  H
  H192     1.0000 0.12183  0.00599  0.69316  Biso   1.000  H
  H193     1.0000 0.12179  0.00593  0.69316  Biso   1.000  H
  H194     1.0000 0.93487  0.71678  0.65237  Biso   1.000  H
  C182     1.0000 0.91282  0.79163  0.67707  Biso   1.000  C
  H195     1.0000 0.88413  0.87815  0.69316  Biso   1.000  H
  H196     1.0000 0.63447  0.95110  0.72396  Biso   1.000  H
  H197     1.0000 0.63443  0.95103  0.72396  Biso   1.000  H
  C183     1.0000 0.73686  0.00006  0.75003  Biso   1.000  C
  H198     1.0000 0.67385  0.05107  0.72916  Biso   1.000  H
  C184     1.0000 0.73683  0.00000  0.75003  Biso   1.000  C
  H199     1.0000 0.85641  0.07626  0.76567  Biso   1.000  H
  H200     1.0000 0.81464  0.12956  0.75437  Biso   1.000  H
  B14      1.0000 0.24153  0.17317  0.70316  Biso   1.000  B
  B15      1.0000 0.93164  0.75848  0.70316  Biso   1.000  B
  C185     1.0000 0.68254  0.99413  0.77383  Biso   1.000  C
  C186     1.0000 0.74246  0.91960  0.74905  Biso   1.000  C
  O29      1.0000 0.28535  0.26027  0.70193  Biso   1.000  O
  O30      1.0000 0.22454  0.12937  0.72665  Biso   1.000  O
  O31      1.0000 0.97495  0.71467  0.70193  Biso   1.000  O
  O32      1.0000 0.90484  0.77544  0.72665  Biso   1.000  O
  O33      1.0000 0.71469  0.97494  0.79806  Biso   1.000  O
  H201     1.0000 0.62278  0.94893  0.77083  Biso   1.000  H
  H202     1.0000 0.68337  0.04890  0.77603  Biso   1.000  H
  O34      1.0000 0.77543  0.90481  0.77336  Biso   1.000  O
  H203     1.0000 0.78015  0.92374  0.73434  Biso   1.000  H
  H204     1.0000 0.68508  0.87044  0.74564  Biso   1.000  H
  C187     1.0000 0.31739  0.31153  0.72616  Biso   1.000  C
  C188     1.0000 0.25753  0.17713  0.75096  Biso   1.000  C
  C189     1.0000 0.99411  0.68254  0.72616  Biso   1.000  C
  C190     1.0000 0.91966  0.74247  0.75096  Biso   1.000  C
  B16      1.0000 0.75845  0.93159  0.79683  Biso   1.000  B
  C191     1.0000 0.26310  0.26314  0.74998  Biso   1.000  C
  H205     1.0000 0.31662  0.36554  0.72396  Biso   1.000  H
  H206     1.0000 0.37720  0.32613  0.72916  Biso   1.000  H
  H207     1.0000 0.31493  0.18535  0.75437  Biso   1.000  H
  H208     1.0000 0.21980  0.14352  0.76567  Biso   1.000  H
  H209     1.0000 0.94891  0.62273  0.72916  Biso   1.000  H
  C192     1.0000 0.00002  0.73686  0.74998  Biso   1.000  C
  H210     1.0000 0.04892  0.68337  0.72396  Biso   1.000  H
  H211     1.0000 0.92370  0.78015  0.76567  Biso   1.000  H
  H212     1.0000 0.87043  0.68509  0.75437  Biso   1.000  H
  H213     1.0000 0.87040  0.68502  0.75437  Biso   1.000  H
  C193     1.0000 0.79165  0.91284  0.82294  Biso   1.000  C
  C194     1.0000 0.17719  0.25753  0.74905  Biso   1.000  C
  C195     1.0000 0.31158  0.31746  0.77383  Biso   1.000  C
  C196     1.0000 0.31154  0.31740  0.77383  Biso   1.000  C
  C197     1.0000 0.00582  0.68840  0.77383  Biso   1.000  C
  C198     1.0000 0.08037  0.82281  0.74905  Biso   1.000  C
  C199     1.0000 0.75967  0.91934  0.84723  Biso   1.000  C
  C200     1.0000 0.85514  0.88963  0.82304  Biso   1.000  C
  H214     1.0000 0.14355  0.21985  0.73434  Biso   1.000  H
  H215     1.0000 0.18534  0.31491  0.74564  Biso   1.000  H
  O35      1.0000 0.12937  0.22450  0.77336  Biso   1.000  O
  O36      1.0000 0.26028  0.28533  0.79806  Biso   1.000  O
  H216     1.0000 0.32615  0.37721  0.77083  Biso   1.000  H
  H217     1.0000 0.36555  0.31663  0.77603  Biso   1.000  H
  H218     1.0000 0.95108  0.63446  0.77603  Biso   1.000  H
  H219     1.0000 0.95105  0.63440  0.77603  Biso   1.000  H
  O37      1.0000 0.02508  0.73973  0.79806  Biso   1.000  O
  H220     1.0000 0.05104  0.67380  0.77083  Biso   1.000  H
  O38      1.0000 0.09517  0.87063  0.77336  Biso   1.000  O
  H221     1.0000 0.07625  0.85641  0.73434  Biso   1.000  H
  H222     1.0000 0.12955  0.81458  0.74564  Biso   1.000  H
  H223     1.0000 0.71678  0.93484  0.84764  Biso   1.000  H
  C201     1.0000 0.78807  0.90391  0.87083  Biso   1.000  C
  C202     1.0000 0.88436  0.87452  0.84654  Biso   1.000  C
  H224     1.0000 0.87819  0.88415  0.80683  Biso   1.000  H
  H225     1.0000 0.87815  0.88408  0.80683  Biso   1.000  H
  B17      1.0000 0.17316  0.24152  0.79683  Biso   1.000  B
  B18      1.0000 0.06836  0.82683  0.79683  Biso   1.000  B
  C203     1.0000 0.85088  0.88121  0.87034  Biso   1.000  C
  H226     1.0000 0.76495  0.90870  0.88703  Biso   1.000  H
  H227     1.0000 0.92767  0.85954  0.84632  Biso   1.000  H
  C204     1.0000 0.12116  0.20831  0.82294  Biso   1.000  C
  C205     1.0000 0.08719  0.87886  0.82294  Biso   1.000  C
  C206     1.0000 0.08716  0.87879  0.82294  Biso   1.000  C
  C207     1.0000 0.88676  0.86872  0.89543  Biso   1.000  C
  C208     1.0000 0.15964  0.24031  0.84723  Biso   1.000  C
  C209     1.0000 0.03447  0.14480  0.82304  Biso   1.000  C
  C210     1.0000 0.08069  0.84034  0.84723  Biso   1.000  C
  C211     1.0000 0.11036  0.96551  0.82304  Biso   1.000  C
  N22      1.0000 0.85196  0.86241  0.91715  Biso   1.000  N
  H228     1.0000 0.93746  0.86553  0.89472  Biso   1.000  H
  H229     1.0000 0.21809  0.28322  0.84764  Biso   1.000  H
  C212     1.0000 0.11585  0.21194  0.87083  Biso   1.000  C
  H230     1.0000 0.00598  0.12185  0.80683  Biso   1.000  H
  C213     1.0000 0.99019  0.11566  0.84654  Biso   1.000  C
  C214     1.0000 0.99016  0.11560  0.84654  Biso   1.000  C
  H231     1.0000 0.06518  0.78194  0.84764  Biso   1.000  H
  C215     1.0000 0.09608  0.88415  0.87083  Biso   1.000  C
  C216     1.0000 0.09605  0.88408  0.87083  Biso   1.000  C
  C217     1.0000 0.12545  0.00982  0.84654  Biso   1.000  C
  H232     1.0000 0.11583  0.99401  0.80683  Biso   1.000  H
  C218     1.0000 0.89217  0.84972  0.94073  Biso   1.000  C
  H233     1.0000 0.14374  0.23502  0.88703  Biso   1.000  H
  C219     1.0000 0.03039  0.14914  0.87034  Biso   1.000  C
  H234     1.0000 0.93185  0.07230  0.84632  Biso   1.000  H
  H235     1.0000 0.09128  0.85622  0.88703  Biso   1.000  H
  C220     1.0000 0.11878  0.96965  0.87034  Biso   1.000  C
  C221     1.0000 0.11875  0.96959  0.87034  Biso   1.000  C
  H236     1.0000 0.14045  0.06810  0.84632  Biso   1.000  H
  H237     1.0000 0.85108  0.79603  0.94964  Biso   1.000  H
  H238     1.0000 0.94239  0.84513  0.93553  Biso   1.000  H
  C222     1.0000 0.92018  0.92585  0.95974  Biso   1.000  C
  C223     1.0000 0.98196  0.11324  0.89543  Biso   1.000  C
  C224     1.0000 0.13127  0.01804  0.89543  Biso   1.000  C
  N23      1.0000 0.99997  0.99994  0.95074  Biso   1.000  N
  H239     1.0000 0.92845  0.90914  0.97754  Biso   1.000  H
  H240     1.0000 0.87488  0.94115  0.96074  Biso   1.000  H
  H241     1.0000 0.87485  0.94109  0.96074  Biso   1.000  H
  H242     1.0000 0.92807  0.06255  0.89472  Biso   1.000  H
  H243     1.0000 0.92804  0.06249  0.89472  Biso   1.000  H
  N24      1.0000 0.01044  0.14799  0.91715  Biso   1.000  N
  H244     1.0000 0.13447  0.07192  0.89472  Biso   1.000  H
  N25      1.0000 0.13757  0.98954  0.91715  Biso   1.000  N
  C225     1.0000 0.00568  0.07983  0.95974  Biso   1.000  C
  C226     1.0000 0.07414  0.99433  0.95974  Biso   1.000  C
  C227     1.0000 0.95755  0.10782  0.94073  Biso   1.000  C
  C228     1.0000 0.15028  0.04246  0.94073  Biso   1.000  C
  C229     1.0000 0.15025  0.04240  0.94073  Biso   1.000  C
  H245     1.0000 0.98066  0.07154  0.97754  Biso   1.000  H
  H246     1.0000 0.06628  0.12516  0.96074  Biso   1.000  H
  H247     1.0000 0.06625  0.12510  0.96074  Biso   1.000  H
  H248     1.0000 0.09089  0.01932  0.97754  Biso   1.000  H
  H249     1.0000 0.05887  0.93375  0.96074  Biso   1.000  H
  H250     1.0000 0.05884  0.93369  0.96074  Biso   1.000  H
  H251     1.0000 0.94499  0.14894  0.94964  Biso   1.000  H
  H252     1.0000 0.90276  0.05764  0.93553  Biso   1.000  H
  H253     1.0000 0.20399  0.05503  0.94964  Biso   1.000  H
  H254     1.0000 0.15486  0.09723  0.93553  Biso   1.000  H
  C230     1.0000 0.54122  0.32352  0.48681  Biso   1.000  C
  C231     1.0000 0.54789  0.36369  0.46301  Biso   1.000  C
  H255     1.0000 0.52618  0.26518  0.48700  Biso   1.000  H
  C232     1.0000 0.55628  0.36777  0.51031  Biso   1.000  C
  C233     1.0000 0.53539  0.31530  0.43790  Biso   1.000  C
  C234     1.0000 0.57059  0.44919  0.46250  Biso   1.000  C
  C235     1.0000 0.57948  0.45448  0.51041  Biso   1.000  C
  H256     1.0000 0.55081  0.33927  0.52650  Biso   1.000  H
  N26      1.0000 0.52910  0.34380  0.41618  Biso   1.000  N
  H257     1.0000 0.53220  0.26142  0.43860  Biso   1.000  H
  C236     1.0000 0.58598  0.49300  0.48610  Biso   1.000  C
  H258     1.0000 0.57539  0.47712  0.44629  Biso   1.000  H
  B19      1.0000 0.59831  0.50651  0.53650  Biso   1.000  B
  C237     1.0000 0.51639  0.29087  0.39260  Biso   1.000  C
  H259     1.0000 0.60149  0.55140  0.48571  Biso   1.000  H
  O39      1.0000 0.64159  0.59361  0.53527  Biso   1.000  O
  O40      1.0000 0.57150  0.46271  0.55999  Biso   1.000  O
  C238     1.0000 0.59253  0.33901  0.37360  Biso   1.000  C
  H260     1.0000 0.46268  0.27831  0.38371  Biso   1.000  H
  H261     1.0000 0.51181  0.23610  0.39779  Biso   1.000  H
  C239     1.0000 0.66081  0.64487  0.55949  Biso   1.000  C
  C240     1.0000 0.58630  0.51053  0.58427  Biso   1.000  C
  N27      1.0000 0.66669  0.33328  0.38261  Biso   1.000  N
  H262     1.0000 0.57578  0.31402  0.35579  Biso   1.000  H
  H263     1.0000 0.60780  0.39959  0.37260  Biso   1.000  H
  C241     1.0000 0.66665  0.59648  0.58337  Biso   1.000  C
  H264     1.0000 0.61560  0.65947  0.56250  Biso   1.000  H
  H265     1.0000 0.71559  0.69888  0.55730  Biso   1.000  H
  H266     1.0000 0.59042  0.47693  0.59901  Biso   1.000  H
  H267     1.0000 0.53709  0.51869  0.58771  Biso   1.000  H
  C242     1.0000 0.74649  0.40749  0.37360  Biso   1.000  C
  C243     1.0000 0.66099  0.25351  0.37360  Biso   1.000  C
  C244     1.0000 0.67253  0.65074  0.60717  Biso   1.000  C
  C245     1.0000 0.74701  0.59087  0.58239  Biso   1.000  C
  C246     1.0000 0.77450  0.48362  0.39260  Biso   1.000  C
  H268     1.0000 0.73822  0.42420  0.35579  Biso   1.000  H
  H269     1.0000 0.79179  0.39219  0.37260  Biso   1.000  H
  C247     1.0000 0.70912  0.22552  0.39260  Biso   1.000  C
  H270     1.0000 0.68601  0.26180  0.35579  Biso   1.000  H
  H271     1.0000 0.60039  0.20818  0.37260  Biso   1.000  H
  O41      1.0000 0.69172  0.61867  0.63140  Biso   1.000  O
  H272     1.0000 0.71772  0.71055  0.60417  Biso   1.000  H
  H273     1.0000 0.61775  0.64997  0.60937  Biso   1.000  H
  O42      1.0000 0.76180  0.55784  0.60668  Biso   1.000  O
  H274     1.0000 0.74296  0.55319  0.56768  Biso   1.000  H
  H275     1.0000 0.79624  0.64825  0.57898  Biso   1.000  H
  N28      1.0000 0.81467  0.47087  0.41618  Biso   1.000  N
  H276     1.0000 0.81559  0.53731  0.38371  Biso   1.000  H
  H277     1.0000 0.72428  0.48821  0.39779  Biso   1.000  H
  N29      1.0000 0.65620  0.18529  0.41618  Biso   1.000  N
  H278     1.0000 0.72168  0.18440  0.38371  Biso   1.000  H
  H279     1.0000 0.76391  0.27570  0.39779  Biso   1.000  H
  B20      1.0000 0.73503  0.57486  0.63016  Biso   1.000  B
  C248     1.0000 0.77991  0.46462  0.43790  Biso   1.000  C
  C249     1.0000 0.68471  0.22010  0.43790  Biso   1.000  C
  C250     1.0000 0.75382  0.54164  0.65628  Biso   1.000  C
  C251     1.0000 0.81579  0.45212  0.46301  Biso   1.000  C
  H280     1.0000 0.72921  0.46781  0.43860  Biso   1.000  H
  C252     1.0000 0.63628  0.18420  0.46301  Biso   1.000  C
  H281     1.0000 0.73860  0.27079  0.43860  Biso   1.000  H
  C253     1.0000 0.74735  0.57365  0.68056  Biso   1.000  C
  C254     1.0000 0.77700  0.47814  0.65637  Biso   1.000  C
  C255     1.0000 0.87860  0.42943  0.46250  Biso   1.000  C
  C256     1.0000 0.78231  0.45882  0.48681  Biso   1.000  C
  C257     1.0000 0.55082  0.12140  0.46250  Biso   1.000  C
  C258     1.0000 0.67648  0.21768  0.48681  Biso   1.000  C
  H282     1.0000 0.73180  0.61656  0.68098  Biso   1.000  H
  C259     1.0000 0.76276  0.54528  0.70417  Biso   1.000  C
  C260     1.0000 0.79211  0.44894  0.67986  Biso   1.000  C
  H283     1.0000 0.78253  0.45519  0.64017  Biso   1.000  H
  C261     1.0000 0.90700  0.41400  0.48610  Biso   1.000  C
  H284     1.0000 0.90169  0.42458  0.44629  Biso   1.000  H
  H285     1.0000 0.73900  0.47380  0.48700  Biso   1.000  H
  C262     1.0000 0.81153  0.44371  0.51031  Biso   1.000  C
  C263     1.0000 0.50703  0.09303  0.48610  Biso   1.000  C
  H286     1.0000 0.52293  0.09832  0.44629  Biso   1.000  H
  H287     1.0000 0.73479  0.26097  0.48700  Biso   1.000  H
  C264     1.0000 0.63217  0.18848  0.51031  Biso   1.000  C
  H288     1.0000 0.75795  0.56836  0.72037  Biso   1.000  H
  C265     1.0000 0.78541  0.48247  0.70367  Biso   1.000  C
  H289     1.0000 0.80713  0.40564  0.67966  Biso   1.000  H
  C266     1.0000 0.87502  0.42050  0.51041  Biso   1.000  C
  H290     1.0000 0.94989  0.39850  0.48571  Biso   1.000  H
  H291     1.0000 0.78848  0.44919  0.52650  Biso   1.000  H
  C267     1.0000 0.54548  0.12497  0.51041  Biso   1.000  C
  H292     1.0000 0.44858  0.05012  0.48571  Biso   1.000  H
  H293     1.0000 0.66069  0.21149  0.52650  Biso   1.000  H
  C268     1.0000 0.79794  0.44658  0.72877  Biso   1.000  C
  B21      1.0000 0.90819  0.40169  0.53650  Biso   1.000  B
  B22      1.0000 0.49351  0.09181  0.53650  Biso   1.000  B
  N30      1.0000 0.80425  0.48139  0.75049  Biso   1.000  N
  H294     1.0000 0.80115  0.39589  0.72806  Biso   1.000  H
  O43      1.0000 0.95198  0.35840  0.53527  Biso   1.000  O
  O44      1.0000 0.89121  0.42847  0.55999  Biso   1.000  O
  O45      1.0000 0.40639  0.04801  0.53527  Biso   1.000  O
  O46      1.0000 0.53727  0.10878  0.55999  Biso   1.000  O
  C269     1.0000 0.81693  0.44116  0.77407  Biso   1.000  C
  C270     1.0000 0.98412  0.33921  0.55949  Biso   1.000  C
  C271     1.0000 0.92418  0.41368  0.58427  Biso   1.000  C
  C272     1.0000 0.35509  0.01588  0.55949  Biso   1.000  C
  C273     1.0000 0.48948  0.07581  0.58427  Biso   1.000  C
  H295     1.0000 0.87063  0.48228  0.78297  Biso   1.000  H
  H296     1.0000 0.82155  0.39098  0.76887  Biso   1.000  H
  C274     1.0000 0.74082  0.41317  0.79306  Biso   1.000  C
  C275     1.0000 0.92981  0.33328  0.58329  Biso   1.000  C
  H297     1.0000 0.98327  0.28437  0.55730  Biso   1.000  H
  H298     1.0000 0.04389  0.38441  0.56250  Biso   1.000  H
  H299     1.0000 0.88652  0.40960  0.59901  Biso   1.000  H
  H300     1.0000 0.98159  0.46290  0.58771  Biso   1.000  H
  C276     1.0000 0.40352  0.07020  0.58329  Biso   1.000  C
  H301     1.0000 0.30112  0.01671  0.55730  Biso   1.000  H
  H302     1.0000 0.34049  0.95607  0.56250  Biso   1.000  H
  H303     1.0000 0.52312  0.11349  0.59901  Biso   1.000  H
  H304     1.0000 0.48133  0.01843  0.58771  Biso   1.000  H
  N31      1.0000 0.66672  0.33334  0.78407  Biso   1.000  N
  H305     1.0000 0.75755  0.40488  0.81087  Biso   1.000  H
  H306     1.0000 0.72552  0.45844  0.79406  Biso   1.000  H
  C277     1.0000 0.97826  0.32747  0.60717  Biso   1.000  C
  C278     1.0000 0.84381  0.25294  0.58239  Biso   1.000  C
  C279     1.0000 0.34925  0.02174  0.60717  Biso   1.000  C
  C280     1.0000 0.40911  0.15615  0.58239  Biso   1.000  C
  C281     1.0000 0.67233  0.25919  0.79306  Biso   1.000  C
  C282     1.0000 0.58686  0.32766  0.79306  Biso   1.000  C
  O47      1.0000 0.92692  0.30828  0.63140  Biso   1.000  O
  H307     1.0000 0.99282  0.28227  0.60417  Biso   1.000  H
  H308     1.0000 0.03220  0.38224  0.60937  Biso   1.000  H
  O48      1.0000 0.79605  0.23815  0.60668  Biso   1.000  O
  H309     1.0000 0.81026  0.25708  0.56768  Biso   1.000  H
  H310     1.0000 0.85203  0.20378  0.57898  Biso   1.000  H
  O49      1.0000 0.38132  0.07307  0.63140  Biso   1.000  O
  H311     1.0000 0.28943  0.00714  0.60417  Biso   1.000  H
  H312     1.0000 0.35002  0.96774  0.60937  Biso   1.000  H
  O50      1.0000 0.44213  0.20397  0.60668  Biso   1.000  O
  H313     1.0000 0.44684  0.18975  0.56768  Biso   1.000  H
  H314     1.0000 0.35174  0.14799  0.57898  Biso   1.000  H
  C283     1.0000 0.62422  0.18306  0.77407  Biso   1.000  C
  H315     1.0000 0.64736  0.24248  0.81087  Biso   1.000  H
  H316     1.0000 0.73294  0.27449  0.79406  Biso   1.000  H
  C284     1.0000 0.55883  0.37574  0.77407  Biso   1.000  C
  H317     1.0000 0.59510  0.35266  0.81087  Biso   1.000  H
  H318     1.0000 0.54155  0.26709  0.79406  Biso   1.000  H
  B23      1.0000 0.83984  0.26499  0.63016  Biso   1.000  B
  B24      1.0000 0.42514  0.16017  0.63016  Biso   1.000  B
  N32      1.0000 0.67711  0.19574  0.75049  Biso   1.000  N
  H319     1.0000 0.61162  0.12937  0.78297  Biso   1.000  H
  H320     1.0000 0.56941  0.17847  0.76887  Biso   1.000  H
  N33      1.0000 0.51865  0.32288  0.75049  Biso   1.000  N
  H321     1.0000 0.51771  0.38836  0.78297  Biso   1.000  H
  H322     1.0000 0.60905  0.43057  0.76887  Biso   1.000  H
  C285     1.0000 0.78786  0.24618  0.65628  Biso   1.000  C
  C286     1.0000 0.45833  0.21219  0.65628  Biso   1.000  C
  C287     1.0000 0.64863  0.20206  0.72877  Biso   1.000  C
  C288     1.0000 0.55344  0.35138  0.72877  Biso   1.000  C
  C289     1.0000 0.82634  0.25268  0.68056  Biso   1.000  C
  C290     1.0000 0.70116  0.22297  0.65637  Biso   1.000  C
  C291     1.0000 0.42632  0.17368  0.68056  Biso   1.000  C
  C292     1.0000 0.52181  0.29884  0.65637  Biso   1.000  C
  C293     1.0000 0.69701  0.21455  0.70367  Biso   1.000  C
  H323     1.0000 0.59474  0.19887  0.72806  Biso   1.000  H
  C294     1.0000 0.51754  0.30299  0.70367  Biso   1.000  C
  H324     1.0000 0.60412  0.40526  0.72806  Biso   1.000  H
  H325     1.0000 0.88472  0.26818  0.68098  Biso   1.000  H
  C295     1.0000 0.78251  0.23725  0.70417  Biso   1.000  C
  C296     1.0000 0.65683  0.20786  0.67986  Biso   1.000  C
  H326     1.0000 0.67263  0.21749  0.64017  Biso   1.000  H
  H327     1.0000 0.38343  0.11528  0.68098  Biso   1.000  H
  C297     1.0000 0.45474  0.21749  0.70417  Biso   1.000  C
  C298     1.0000 0.55104  0.34316  0.67986  Biso   1.000  C
  H328     1.0000 0.54484  0.32735  0.64017  Biso   1.000  H
  H329     1.0000 0.81045  0.24210  0.72037  Biso   1.000  H
  H330     1.0000 0.59854  0.19288  0.67966  Biso   1.000  H
  H331     1.0000 0.43161  0.18956  0.72037  Biso   1.000  H
  H332     1.0000 0.59431  0.40144  0.67966  Biso   1.000  H
  C299     1.0000 0.32766  0.58685  0.70693  Biso   1.000  C
  N34      1.0000 0.33337  0.66674  0.71594  Biso   1.000  N
  C300     1.0000 0.37579  0.55886  0.72594  Biso   1.000  C
  H333     1.0000 0.35268  0.59514  0.68914  Biso   1.000  H
  H334     1.0000 0.26706  0.54152  0.70593  Biso   1.000  H
  C301     1.0000 0.25920  0.67235  0.70693  Biso   1.000  C
  C302     1.0000 0.41315  0.74083  0.70693  Biso   1.000  C
  N35      1.0000 0.32287  0.51863  0.74950  Biso   1.000  N
  H335     1.0000 0.38835  0.51773  0.71704  Biso   1.000  H
  H336     1.0000 0.43058  0.60904  0.73114  Biso   1.000  H
  C303     1.0000 0.18306  0.62421  0.72594  Biso   1.000  C
  H337     1.0000 0.24245  0.64736  0.68914  Biso   1.000  H
  H338     1.0000 0.27447  0.73293  0.70593  Biso   1.000  H
  C304     1.0000 0.44117  0.81696  0.72594  Biso   1.000  C
  H339     1.0000 0.40489  0.75754  0.68914  Biso   1.000  H
  H340     1.0000 0.45846  0.72553  0.70593  Biso   1.000  H
  C305     1.0000 0.35137  0.55344  0.77124  Biso   1.000  C
  N36      1.0000 0.19577  0.67714  0.74950  Biso   1.000  N
  H341     1.0000 0.12935  0.61165  0.71704  Biso   1.000  H
  H342     1.0000 0.17848  0.56944  0.73114  Biso   1.000  H
  N37      1.0000 0.48134  0.80421  0.74950  Biso   1.000  N
  H343     1.0000 0.48226  0.87065  0.71704  Biso   1.000  H
  H344     1.0000 0.39095  0.82155  0.73114  Biso   1.000  H
  C306     1.0000 0.30295  0.51754  0.79634  Biso   1.000  C
  H345     1.0000 0.40527  0.60413  0.77193  Biso   1.000  H
  C307     1.0000 0.20206  0.64863  0.77124  Biso   1.000  C
  C308     1.0000 0.44658  0.79796  0.77124  Biso   1.000  C
  C309     1.0000 0.21749  0.45474  0.79583  Biso   1.000  C
  C310     1.0000 0.34315  0.55102  0.82013  Biso   1.000  C
  C311     1.0000 0.21456  0.69703  0.79634  Biso   1.000  C
  H346     1.0000 0.19887  0.59476  0.77193  Biso   1.000  H
  C312     1.0000 0.48246  0.78546  0.79634  Biso   1.000  C
  H347     1.0000 0.39588  0.80115  0.77193  Biso   1.000  H
  C313     1.0000 0.17367  0.42630  0.81943  Biso   1.000  C
  H348     1.0000 0.18960  0.43166  0.77964  Biso   1.000  H
  H349     1.0000 0.40146  0.59431  0.82033  Biso   1.000  H
  C314     1.0000 0.29884  0.52181  0.84364  Biso   1.000  C
  C315     1.0000 0.23726  0.78253  0.79583  Biso   1.000  C
  C316     1.0000 0.20789  0.65686  0.82013  Biso   1.000  C
  C317     1.0000 0.54524  0.76270  0.79583  Biso   1.000  C
  C318     1.0000 0.44898  0.79216  0.82013  Biso   1.000  C
  C319     1.0000 0.21215  0.45831  0.84373  Biso   1.000  C
  H350     1.0000 0.11525  0.38345  0.81903  Biso   1.000  H
  H351     1.0000 0.32736  0.54483  0.85984  Biso   1.000  H
  C320     1.0000 0.25265  0.82633  0.81943  Biso   1.000  C
  H352     1.0000 0.24206  0.81046  0.77964  Biso   1.000  H
  H353     1.0000 0.19285  0.59852  0.82033  Biso   1.000  H
  C321     1.0000 0.22295  0.70111  0.84364  Biso   1.000  C
  C322     1.0000 0.57367  0.74734  0.81943  Biso   1.000  C
  H354     1.0000 0.56836  0.75792  0.77964  Biso   1.000  H
  H355     1.0000 0.40567  0.80714  0.82033  Biso   1.000  H
  C323     1.0000 0.47820  0.77705  0.84364  Biso   1.000  C
  B25      1.0000 0.16018  0.42515  0.86983  Biso   1.000  B
  C324     1.0000 0.24615  0.78782  0.84373  Biso   1.000  C
  H356     1.0000 0.26816  0.88474  0.81903  Biso   1.000  H
  H357     1.0000 0.21747  0.67261  0.85984  Biso   1.000  H
  C325     1.0000 0.54169  0.75384  0.84373  Biso   1.000  C
  H358     1.0000 0.61656  0.73184  0.81903  Biso   1.000  H
  H359     1.0000 0.45515  0.78253  0.85984  Biso   1.000  H
  O51      1.0000 0.07306  0.38135  0.86861  Biso   1.000  O
  O52      1.0000 0.20394  0.44211  0.89331  Biso   1.000  O
  B26      1.0000 0.26498  0.83985  0.86983  Biso   1.000  B
  B27      1.0000 0.57486  0.73503  0.86983  Biso   1.000  B
  C326     1.0000 0.02176  0.34922  0.89284  Biso   1.000  C
  C327     1.0000 0.15615  0.40915  0.91762  Biso   1.000  C
  O53      1.0000 0.30826  0.92695  0.86861  Biso   1.000  O
  O54      1.0000 0.23817  0.79605  0.89331  Biso   1.000  O
  O55      1.0000 0.61865  0.69174  0.86861  Biso   1.000  O
  O56      1.0000 0.55788  0.76181  0.89331  Biso   1.000  O
  C328     1.0000 0.07021  0.40348  0.91670  Biso   1.000  C
  H360     1.0000 0.00716  0.28941  0.89584  Biso   1.000  H
  H361     1.0000 0.96779  0.35004  0.89062  Biso   1.000  H
  H362     1.0000 0.18979  0.44683  0.93233  Biso   1.000  H
  H363     1.0000 0.14797  0.35170  0.92103  Biso   1.000  H
  C329     1.0000 0.32748  0.97821  0.89284  Biso   1.000  C
  C330     1.0000 0.25294  0.84380  0.91762  Biso   1.000  C
  C331     1.0000 0.65079  0.67254  0.89284  Biso   1.000  C
  C332     1.0000 0.59085  0.74702  0.91762  Biso   1.000  C
  C333     1.0000 0.01592  0.35508  0.94050  Biso   1.000  C
  C334     1.0000 0.07578  0.48949  0.91572  Biso   1.000  C
  C335     1.0000 0.33332  0.92982  0.91670  Biso   1.000  C
  H364     1.0000 0.28227  0.99281  0.89584  Biso   1.000  H
  H365     1.0000 0.38226  0.03222  0.89062  Biso   1.000  H
  H366     1.0000 0.25706  0.81020  0.93233  Biso   1.000  H
  H367     1.0000 0.20376  0.85203  0.92103  Biso   1.000  H
  C336     1.0000 0.59648  0.66661  0.91664  Biso   1.000  C
  H368     1.0000 0.71056  0.71775  0.89584  Biso   1.000  H
  H369     1.0000 0.64994  0.61771  0.89062  Biso   1.000  H
  H370     1.0000 0.55319  0.74294  0.93233  Biso   1.000  H
  H371     1.0000 0.64826  0.79624  0.92103  Biso   1.000  H
  O57      1.0000 0.04799  0.40641  0.96473  Biso   1.000  O
  H372     1.0000 0.01669  0.30108  0.94269  Biso   1.000  H
  H373     1.0000 0.95610  0.34048  0.93749  Biso   1.000  H
  O58      1.0000 0.10880  0.53731  0.94002  Biso   1.000  O
  H374     1.0000 0.11351  0.52309  0.90100  Biso   1.000  H
  H375     1.0000 0.01841  0.48133  0.91230  Biso   1.000  H
  C337     1.0000 0.33920  0.98408  0.94050  Biso   1.000  C
  C338     1.0000 0.41368  0.92421  0.91572  Biso   1.000  C
  C339     1.0000 0.64493  0.66081  0.94050  Biso   1.000  C
  C340     1.0000 0.51048  0.58628  0.91572  Biso   1.000  C
  B28      1.0000 0.09181  0.49351  0.96351  Biso   1.000  B
  O59      1.0000 0.35839  0.95201  0.96473  Biso   1.000  O
  H376     1.0000 0.28442  0.98331  0.94269  Biso   1.000  H
  H377     1.0000 0.38439  0.04388  0.93749  Biso   1.000  H
  O60      1.0000 0.42847  0.89118  0.94002  Biso   1.000  O
  H378     1.0000 0.40963  0.88652  0.90100  Biso   1.000  H
  H379     1.0000 0.46291  0.98159  0.91230  Biso   1.000  H
  O61      1.0000 0.59359  0.64162  0.96473  Biso   1.000  O
  H380     1.0000 0.65949  0.61561  0.93749  Biso   1.000  H
  H381     1.0000 0.69887  0.71558  0.94269  Biso   1.000  H
  O62      1.0000 0.46272  0.57148  0.94002  Biso   1.000  O
  H382     1.0000 0.47693  0.59042  0.90100  Biso   1.000  H
  H383     1.0000 0.51870  0.53712  0.91230  Biso   1.000  H
  C341     1.0000 0.12497  0.54547  0.98960  Biso   1.000  C
  B29      1.0000 0.40170  0.90820  0.96351  Biso   1.000  B
  B30      1.0000 0.50651  0.59833  0.96351  Biso   1.000  B
  C342     1.0000 0.18848  0.63218  0.98970  Biso   1.000  C
  C343     1.0000 0.09299  0.50702  0.01389  Biso   1.000  C
  C344     1.0000 0.42048  0.87498  0.98960  Biso   1.000  C
  C345     1.0000 0.45453  0.57952  0.98960  Biso   1.000  C
  H384     1.0000 0.21151  0.66069  0.97349  Biso   1.000  H
  C346     1.0000 0.21771  0.67650  0.01320  Biso   1.000  C
  H385     1.0000 0.05010  0.44862  0.01430  Biso   1.000  H
  C347     1.0000 0.12141  0.55083  0.03749  Biso   1.000  C
  C348     1.0000 0.44367  0.81148  0.98970  Biso   1.000  C
  C349     1.0000 0.41401  0.90699  0.01389  Biso   1.000  C
  C350     1.0000 0.36783  0.55631  0.98970  Biso   1.000  C
  C351     1.0000 0.49301  0.58602  0.01389  Biso   1.000  C
  C352     1.0000 0.18421  0.63633  0.03700  Biso   1.000  C
  H386     1.0000 0.26098  0.73477  0.01301  Biso   1.000  H
  H387     1.0000 0.09828  0.52290  0.05370  Biso   1.000  H
  H388     1.0000 0.44920  0.78852  0.97349  Biso   1.000  H
  C353     1.0000 0.45878  0.78228  0.01320  Biso   1.000  C
  H389     1.0000 0.39847  0.94990  0.01430  Biso   1.000  H
  C354     1.0000 0.42942  0.87862  0.03749  Biso   1.000  C
  H390     1.0000 0.33930  0.55083  0.97349  Biso   1.000  H
  C355     1.0000 0.32350  0.54120  0.01320  Biso   1.000  C
  H391     1.0000 0.55139  0.60152  0.01430  Biso   1.000  H
  C356     1.0000 0.44918  0.57059  0.03749  Biso   1.000  C
  C357     1.0000 0.22011  0.68472  0.06209  Biso   1.000  C
  C358     1.0000 0.45208  0.81581  0.03700  Biso   1.000  C
  H392     1.0000 0.47380  0.73898  0.01301  Biso   1.000  H
  H393     1.0000 0.42462  0.90170  0.05370  Biso   1.000  H
  C359     1.0000 0.36368  0.54789  0.03700  Biso   1.000  C
  H394     1.0000 0.26521  0.52621  0.01301  Biso   1.000  H
  H395     1.0000 0.47708  0.57537  0.05370  Biso   1.000  H
  N38      1.0000 0.18532  0.65622  0.08381  Biso   1.000  N
  H396     1.0000 0.27079  0.73860  0.06141  Biso   1.000  H
  C360     1.0000 0.46461  0.77992  0.06209  Biso   1.000  C
  C361     1.0000 0.31530  0.53540  0.06209  Biso   1.000  C
  C362     1.0000 0.22549  0.70908  0.10739  Biso   1.000  C
  N39      1.0000 0.47092  0.81473  0.08381  Biso   1.000  N
  H397     1.0000 0.46782  0.72923  0.06141  Biso   1.000  H
  N40      1.0000 0.34378  0.52908  0.08381  Biso   1.000  N
  H398     1.0000 0.26141  0.53221  0.06141  Biso   1.000  H
  H399     1.0000 0.18437  0.72170  0.11630  Biso   1.000  H
  H400     1.0000 0.27572  0.76391  0.10220  Biso   1.000  H
  C363     1.0000 0.25353  0.66100  0.12641  Biso   1.000  C
  C364     1.0000 0.48360  0.77450  0.10739  Biso   1.000  C
  C365     1.0000 0.29089  0.51640  0.10739  Biso   1.000  C
  N41      1.0000 0.33328  0.66668  0.11740  Biso   1.000  N
  H401     1.0000 0.26177  0.68600  0.14420  Biso   1.000  H
  H402     1.0000 0.20822  0.60043  0.12741  Biso   1.000  H
  H403     1.0000 0.53730  0.81562  0.11630  Biso   1.000  H
  H404     1.0000 0.48822  0.72432  0.10220  Biso   1.000  H
  C366     1.0000 0.40749  0.74651  0.12641  Biso   1.000  C
  H405     1.0000 0.27829  0.46271  0.11630  Biso   1.000  H
  H406     1.0000 0.23608  0.51180  0.10220  Biso   1.000  H
  C367     1.0000 0.33900  0.59253  0.12641  Biso   1.000  C
  H407     1.0000 0.42422  0.73822  0.14420  Biso   1.000  H
  H408     1.0000 0.39219  0.79178  0.12741  Biso   1.000  H
  H409     1.0000 0.31403  0.57582  0.14420  Biso   1.000  H
  H410     1.0000 0.39961  0.60783  0.12741  Biso   1.000  H
  C368     1.0000 0.58685  0.25919  0.29307  Biso   1.000  C
  C369     1.0000 0.55884  0.18306  0.27406  Biso   1.000  C
  N42      1.0000 0.66664  0.33328  0.28406  Biso   1.000  N
  H411     1.0000 0.59512  0.24248  0.31086  Biso   1.000  H
  H412     1.0000 0.54155  0.27449  0.29407  Biso   1.000  H
  N43      1.0000 0.51863  0.19574  0.25050  Biso   1.000  N
  H413     1.0000 0.51775  0.12937  0.28296  Biso   1.000  H
  H414     1.0000 0.60906  0.17847  0.26886  Biso   1.000  H
  C370     1.0000 0.74081  0.32766  0.29307  Biso   1.000  C
  C371     1.0000 0.67235  0.41317  0.29307  Biso   1.000  C
  C372     1.0000 0.55343  0.20206  0.22876  Biso   1.000  C
  C373     1.0000 0.81691  0.37574  0.27406  Biso   1.000  C
  H415     1.0000 0.75756  0.35266  0.31086  Biso   1.000  H
  H416     1.0000 0.72554  0.26709  0.29407  Biso   1.000  H
  C374     1.0000 0.62422  0.44116  0.27406  Biso   1.000  C
  H417     1.0000 0.64733  0.40488  0.31086  Biso   1.000  H
  H418     1.0000 0.73292  0.45844  0.29407  Biso   1.000  H
  C375     1.0000 0.51755  0.21455  0.20366  Biso   1.000  C
  H419     1.0000 0.60413  0.19887  0.22807  Biso   1.000  H
  N44      1.0000 0.80424  0.32288  0.25050  Biso   1.000  N
  H420     1.0000 0.87066  0.38836  0.28296  Biso   1.000  H
  H421     1.0000 0.82153  0.43057  0.26886  Biso   1.000  H
  N45      1.0000 0.67714  0.48139  0.25050  Biso   1.000  N
  H422     1.0000 0.61166  0.48228  0.28296  Biso   1.000  H
  H423     1.0000 0.56943  0.39098  0.26886  Biso   1.000  H
  C376     1.0000 0.45474  0.23725  0.20417  Biso   1.000  C
  C377     1.0000 0.55103  0.20786  0.17987  Biso   1.000  C
  C378     1.0000 0.79794  0.35138  0.22876  Biso   1.000  C
  C379     1.0000 0.64863  0.44658  0.22876  Biso   1.000  C
  C380     1.0000 0.42634  0.25268  0.18057  Biso   1.000  C
  H424     1.0000 0.43165  0.24210  0.22036  Biso   1.000  H
  C381     1.0000 0.52181  0.22297  0.15636  Biso   1.000  C
  H425     1.0000 0.59434  0.19288  0.17967  Biso   1.000  H
  C382     1.0000 0.78545  0.30299  0.20366  Biso   1.000  C
  H426     1.0000 0.80114  0.40526  0.22807  Biso   1.000  H
  C383     1.0000 0.69706  0.48247  0.20366  Biso   1.000  C
  H427     1.0000 0.59474  0.39589  0.22807  Biso   1.000  H
  C384     1.0000 0.45832  0.24618  0.15627  Biso   1.000  C
  H428     1.0000 0.38345  0.26818  0.18097  Biso   1.000  H
  H429     1.0000 0.54486  0.21749  0.14016  Biso   1.000  H
  C385     1.0000 0.76275  0.21749  0.20417  Biso   1.000  C
  C386     1.0000 0.79212  0.34316  0.17987  Biso   1.000  C
  C387     1.0000 0.78252  0.54528  0.20417  Biso   1.000  C
  C388     1.0000 0.65683  0.44894  0.17987  Biso   1.000  C
  B31      1.0000 0.42515  0.26499  0.13017  Biso   1.000  B
  C389     1.0000 0.74736  0.17368  0.18057  Biso   1.000  C
  H430     1.0000 0.75795  0.18956  0.22036  Biso   1.000  H
  H431     1.0000 0.80712  0.40144  0.17967  Biso   1.000  H
  C390     1.0000 0.77703  0.29884  0.15636  Biso   1.000  C
  C391     1.0000 0.82631  0.57365  0.18057  Biso   1.000  C
  H432     1.0000 0.81041  0.56836  0.22036  Biso   1.000  H
  H433     1.0000 0.59851  0.40564  0.17967  Biso   1.000  H
  C392     1.0000 0.70113  0.47814  0.15636  Biso   1.000  C
  O63      1.0000 0.38136  0.30828  0.13139  Biso   1.000  O
  O64      1.0000 0.44210  0.23815  0.10669  Biso   1.000  O
  C393     1.0000 0.75386  0.21219  0.15627  Biso   1.000  C
  H434     1.0000 0.73185  0.11528  0.18097  Biso   1.000  H
  H435     1.0000 0.78250  0.32735  0.14016  Biso   1.000  H
  C394     1.0000 0.78783  0.54164  0.15627  Biso   1.000  C
  H436     1.0000 0.88476  0.61656  0.18097  Biso   1.000  H
  H437     1.0000 0.67265  0.45519  0.14016  Biso   1.000  H
  C395     1.0000 0.34921  0.32747  0.10716  Biso   1.000  C
  C396     1.0000 0.40913  0.25294  0.08238  Biso   1.000  C
  B32      1.0000 0.73503  0.16017  0.13017  Biso   1.000  B
  B33      1.0000 0.83983  0.57486  0.13017  Biso   1.000  B
  C397     1.0000 0.40350  0.33334  0.08336  Biso   1.000  C
  H438     1.0000 0.28945  0.28227  0.10416  Biso   1.000  H
  H439     1.0000 0.35004  0.38224  0.10938  Biso   1.000  H
  H440     1.0000 0.44682  0.25708  0.06767  Biso   1.000  H
  H441     1.0000 0.35175  0.20378  0.07897  Biso   1.000  H
  O65      1.0000 0.69175  0.07307  0.13139  Biso   1.000  O
  O66      1.0000 0.76184  0.20397  0.10669  Biso   1.000  O
  O67      1.0000 0.92695  0.61867  0.13139  Biso   1.000  O
  O68      1.0000 0.79604  0.55784  0.10669  Biso   1.000  O
  C398     1.0000 0.35508  0.33921  0.05950  Biso   1.000  C
  C399     1.0000 0.48950  0.41368  0.08428  Biso   1.000  C
  C400     1.0000 0.67249  0.02174  0.10716  Biso   1.000  C
  C401     1.0000 0.74704  0.15615  0.08238  Biso   1.000  C
  C402     1.0000 0.97821  0.65074  0.10716  Biso   1.000  C
  C403     1.0000 0.84386  0.59087  0.08238  Biso   1.000  C
  O69      1.0000 0.40642  0.35840  0.03527  Biso   1.000  O
  H442     1.0000 0.34052  0.38441  0.06251  Biso   1.000  H
  H443     1.0000 0.30110  0.28437  0.05731  Biso   1.000  H
  O70      1.0000 0.53726  0.42847  0.05998  Biso   1.000  O
  H444     1.0000 0.52308  0.40960  0.09900  Biso   1.000  H
  H445     1.0000 0.48131  0.46290  0.08770  Biso   1.000  H
  C404     1.0000 0.66668  0.07020  0.08330  Biso   1.000  C
  H446     1.0000 0.71771  0.00714  0.10416  Biso   1.000  H
  H447     1.0000 0.61772  0.96774  0.10938  Biso   1.000  H
  H448     1.0000 0.74292  0.18975  0.06767  Biso   1.000  H
  H449     1.0000 0.79625  0.14799  0.07897  Biso   1.000  H
  C405     1.0000 0.92977  0.59648  0.08330  Biso   1.000  C
  H450     1.0000 0.99282  0.71055  0.10416  Biso   1.000  H
  H451     1.0000 0.03222  0.64997  0.10938  Biso   1.000  H
  H452     1.0000 0.81022  0.55319  0.06767  Biso   1.000  H
  H453     1.0000 0.85201  0.64825  0.07897  Biso   1.000  H
  B34      1.0000 0.49350  0.40169  0.03649  Biso   1.000  B
  C406     1.0000 0.66078  0.01588  0.05950  Biso   1.000  C
  C407     1.0000 0.58633  0.07581  0.08428  Biso   1.000  C
  C408     1.0000 0.98406  0.64487  0.05950  Biso   1.000  C
  C409     1.0000 0.92423  0.51053  0.08428  Biso   1.000  C
  C410     1.0000 0.54548  0.42050  0.01040  Biso   1.000  C
  O71      1.0000 0.64162  0.04801  0.03527  Biso   1.000  O
  H454     1.0000 0.71559  0.01671  0.05731  Biso   1.000  H
  H455     1.0000 0.61558  0.95607  0.06251  Biso   1.000  H
  O72      1.0000 0.57151  0.10878  0.05998  Biso   1.000  O
  H456     1.0000 0.59037  0.11349  0.09900  Biso   1.000  H
  H457     1.0000 0.53710  0.01843  0.08770  Biso   1.000  H
  O73      1.0000 0.95202  0.59361  0.03527  Biso   1.000  O
  H458     1.0000 0.98329  0.69888  0.05731  Biso   1.000  H
  H459     1.0000 0.04387  0.65947  0.06251  Biso   1.000  H
  O74      1.0000 0.89121  0.46271  0.05998  Biso   1.000  O
  H460     1.0000 0.88650  0.47693  0.09900  Biso   1.000  H
  H461     1.0000 0.98160  0.51869  0.08770  Biso   1.000  H
  C411     1.0000 0.63218  0.44371  0.01030  Biso   1.000  C
  C412     1.0000 0.50700  0.41400  0.98611  Biso   1.000  C
  B35      1.0000 0.59831  0.09181  0.03649  Biso   1.000  B
  B36      1.0000 0.90820  0.50651  0.03649  Biso   1.000  B
  H462     1.0000 0.66071  0.44919  0.02651  Biso   1.000  H
  C413     1.0000 0.67651  0.45882  0.98680  Biso   1.000  C
  H463     1.0000 0.44862  0.39850  0.98570  Biso   1.000  H
  C414     1.0000 0.55083  0.42943  0.96251  Biso   1.000  C
  C415     1.0000 0.57949  0.12497  0.01040  Biso   1.000  C
  C416     1.0000 0.87501  0.45448  0.01040  Biso   1.000  C
  C417     1.0000 0.63633  0.45212  0.96300  Biso   1.000  C
  H464     1.0000 0.73480  0.47380  0.98699  Biso   1.000  H
  H465     1.0000 0.52289  0.42458  0.94630  Biso   1.000  H
  C418     1.0000 0.55630  0.18848  0.01030  Biso   1.000  C
  C419     1.0000 0.58599  0.09303  0.98611  Biso   1.000  C
  C420     1.0000 0.81149  0.36777  0.01030  Biso   1.000  C
  C421     1.0000 0.90702  0.49300  0.98611  Biso   1.000  C
  C422     1.0000 0.68471  0.46462  0.93791  Biso   1.000  C
  C423     1.0000 0.54120  0.21768  0.98680  Biso   1.000  C
  H466     1.0000 0.55080  0.21149  0.02651  Biso   1.000  H
  C424     1.0000 0.57058  0.12140  0.96251  Biso   1.000  C
  H467     1.0000 0.60153  0.05012  0.98570  Biso   1.000  H
  C425     1.0000 0.78230  0.32352  0.98680  Biso   1.000  C
  H468     1.0000 0.78846  0.33927  0.02651  Biso   1.000  H
  C426     1.0000 0.87860  0.44919  0.96251  Biso   1.000  C
  H469     1.0000 0.94991  0.55140  0.98570  Biso   1.000  H
  N46      1.0000 0.65620  0.47087  0.91619  Biso   1.000  N
  H470     1.0000 0.73860  0.46781  0.93859  Biso   1.000  H
  C427     1.0000 0.54793  0.18420  0.96300  Biso   1.000  C
  H471     1.0000 0.52618  0.26097  0.98699  Biso   1.000  H
  H472     1.0000 0.57539  0.09832  0.94630  Biso   1.000  H
  C428     1.0000 0.81580  0.36369  0.96300  Biso   1.000  C
  H473     1.0000 0.73900  0.26518  0.98699  Biso   1.000  H
  H474     1.0000 0.90173  0.47712  0.94630  Biso   1.000  H
  C429     1.0000 0.70912  0.48362  0.89261  Biso   1.000  C
  C430     1.0000 0.53540  0.22010  0.93791  Biso   1.000  C
  C431     1.0000 0.77990  0.31530  0.93791  Biso   1.000  C
  H475     1.0000 0.72172  0.53731  0.88370  Biso   1.000  H
  H476     1.0000 0.76393  0.48821  0.89780  Biso   1.000  H
  C432     1.0000 0.66101  0.40749  0.87359  Biso   1.000  C
  N47      1.0000 0.52909  0.18529  0.91619  Biso   1.000  N
  H477     1.0000 0.53219  0.27079  0.93859  Biso   1.000  H
  N48      1.0000 0.81469  0.34380  0.91619  Biso   1.000  N
  H478     1.0000 0.72922  0.26142  0.93859  Biso   1.000  H
  N49      1.0000 0.66669  0.33328  0.88260  Biso   1.000  N
  H479     1.0000 0.68598  0.42420  0.85580  Biso   1.000  H
  H480     1.0000 0.60040  0.39219  0.87259  Biso   1.000  H
  C433     1.0000 0.51640  0.22552  0.89261  Biso   1.000  C
  C434     1.0000 0.77448  0.29087  0.89261  Biso   1.000  C
  C435     1.0000 0.59252  0.25351  0.87359  Biso   1.000  C
  C436     1.0000 0.74648  0.33901  0.87359  Biso   1.000  C
  H481     1.0000 0.46271  0.18440  0.88370  Biso   1.000  H
  H482     1.0000 0.51179  0.27570  0.89780  Biso   1.000  H
  H483     1.0000 0.81563  0.27831  0.88370  Biso   1.000  H
  H484     1.0000 0.72429  0.23610  0.89780  Biso   1.000  H
  H485     1.0000 0.57579  0.26180  0.85580  Biso   1.000  H
  H486     1.0000 0.60779  0.20818  0.87259  Biso   1.000  H
  H487     1.0000 0.73824  0.31402  0.85580  Biso   1.000  H
  H488     1.0000 0.79179  0.39959  0.87259  Biso   1.000  H
  Ne1      1.0000 0.99558  0.00253  0.25315  Biso   1.000  Ne
  He1      1.0000 0.85021  0.01485  0.25778  Biso   1.000  He
  He2      1.0000 0.14534  0.16453  0.23677  Biso   1.000  He
  He3      1.0000 0.01422  0.84029  0.24253  Biso   1.000  He
  Ar1      1.0000 0.00000  0.99997  0.25180  Biso   1.000  Ar
  Ne2      1.0000 0.66667  0.33333  0.08333  Biso   1.000  Ne
  He4      1.0000 0.84784  0.32061  0.07665  Biso   1.000  He
  He5      1.0000 0.49621  0.17734  0.07574  Biso   1.000  He
  He6      1.0000 0.68159  0.49758  0.07549  Biso   1.000  He
  Ar2      1.0000 0.66664  0.33331  0.08333  Biso   1.000  Ar
  Ne3      1.0000 0.33334  0.66667  0.41667  Biso   1.000  Ne
  He7      1.0000 0.51449  0.65393  0.40998  Biso   1.000  He
  He8      1.0000 0.16287  0.51068  0.40907  Biso   1.000  He
  He9      1.0000 0.34828  0.83093  0.40882  Biso   1.000  He
  Ar3      1.0000 0.33331  0.66665  0.41666  Biso   1.000  Ar
  Ne4      1.0000 0.66666  0.33333  0.58333  Biso   1.000  Ne
  He10     1.0000 0.65405  0.13790  0.58995  Biso   1.000  He
  He11     1.0000 0.52017  0.35092  0.59447  Biso   1.000  He
  He12     1.0000 0.83682  0.48896  0.59094  Biso   1.000  He
  Ar4      1.0000 0.66667  0.33331  0.58333  Biso   1.000  Ar
  Ne5      1.0000 0.00482  0.00476  0.75122  Biso   1.000  Ne
  He13     1.0000 0.82954  0.84400  0.74242  Biso   1.000  He
  He14     1.0000 0.01493  0.16425  0.74217  Biso   1.000  He
  He15     1.0000 0.18116  0.98726  0.74333  Biso   1.000  He
  Ar5      1.0000 0.99997  0.99997  0.75001  Biso   1.000  Ar
  Ne6      1.0000 0.33333  0.66667  0.91667  Biso   1.000  Ne
  He16     1.0000 0.32074  0.47126  0.92327  Biso   1.000  He
  He17     1.0000 0.18355  0.68154  0.92446  Biso   1.000  He
  He18     1.0000 0.50347  0.82230  0.92427  Biso   1.000  He
  Ar6      1.0000 0.33334  0.66665  0.91666  Biso   1.000  Ar
