data_image0
_cell_length_a       13.204
_cell_length_b       19.146
_cell_length_c       28.835
_cell_angle_alpha    90
_cell_angle_beta     90
_cell_angle_gamma    90

_symmetry_space_group_name_H-M    "P 1"
_symmetry_int_tables_number       1

loop_
  _symmetry_equiv_pos_as_xyz
  'x, y, z'

loop_
  _atom_site_label
  _atom_site_occupancy
  _atom_site_fract_x
  _atom_site_fract_y
  _atom_site_fract_z
  _atom_site_thermal_displace_type
  _atom_site_B_iso_or_equiv
  _atom_site_type_symbol
  C1       1.0000 0.49470  0.40348  0.49821  Biso   1.000  C
  C2       1.0000 0.47137  0.34811  0.45909  Biso   1.000  C
  H1       1.0000 0.48887  0.45090  0.48569  Biso   1.000  H
  O1       1.0000 0.41927  0.39230  0.53432  Biso   1.000  O
  C3       1.0000 0.59527  0.39188  0.51580  Biso   1.000  C
  C4       1.0000 0.55097  0.35658  0.42310  Biso   1.000  C
  H2       1.0000 0.47417  0.30079  0.47210  Biso   1.000  H
  O2       1.0000 0.37640  0.36049  0.44051  Biso   1.000  O
  H3       1.0000 0.43979  0.40881  0.55880  Biso   1.000  H
  C5       1.0000 0.67669  0.40108  0.47650  Biso   1.000  C
  H4       1.0000 0.60012  0.34472  0.52891  Biso   1.000  H
  O3       1.0000 0.61762  0.44171  0.55041  Biso   1.000  O
  O4       1.0000 0.54461  0.42500  0.40042  Biso   1.000  O
  H5       1.0000 0.54097  0.32048  0.39951  Biso   1.000  H
  O5       1.0000 0.65518  0.35062  0.43992  Biso   1.000  O
  H6       1.0000 0.38087  0.38990  0.42001  Biso   1.000  H
  H7       1.0000 0.67381  0.44871  0.46398  Biso   1.000  H
  C6       1.0000 0.78241  0.38290  0.48899  Biso   1.000  C
  C7       1.0000 0.64859  0.41701  0.59490  Biso   1.000  C
  C8       1.0000 0.52257  0.42871  0.35089  Biso   1.000  C
  H8       1.0000 0.80741  0.41889  0.50980  Biso   1.000  H
  H9       1.0000 0.82278  0.38530  0.46100  Biso   1.000  H
  O6       1.0000 0.79983  0.32242  0.50858  Biso   1.000  O
  H10      1.0000 0.63587  0.36671  0.59729  Biso   1.000  H
  C9       1.0000 0.58619  0.45639  0.63191  Biso   1.000  C
  O7       1.0000 0.75242  0.43142  0.60409  Biso   1.000  O
  C10      1.0000 0.43987  0.48303  0.34690  Biso   1.000  C
  C11      1.0000 0.61459  0.44960  0.32561  Biso   1.000  C
  H11      1.0000 0.49833  0.38342  0.33959  Biso   1.000  H
  H12      1.0000 0.86057  0.31850  0.51389  Biso   1.000  H
  H13      1.0000 0.60012  0.43612  0.66239  Biso   1.000  H
  O8       1.0000 0.47690  0.44448  0.62001  Biso   1.000  O
  C12      1.0000 0.60520  0.53301  0.63392  Biso   1.000  C
  C13      1.0000 0.78067  0.50261  0.60271  Biso   1.000  C
  C14      1.0000 0.41919  0.49681  0.29610  Biso   1.000  C
  H14      1.0000 0.46122  0.52632  0.36220  Biso   1.000  H
  O9       1.0000 0.34482  0.45931  0.36629  Biso   1.000  O
  O10      1.0000 0.58990  0.46521  0.27800  Biso   1.000  O
  H15      1.0000 0.64011  0.49258  0.33990  Biso   1.000  H
  C15      1.0000 0.69812  0.39810  0.32572  Biso   1.000  C
  H16      1.0000 0.44797  0.42672  0.64221  Biso   1.000  H
  H17      1.0000 0.58157  0.55448  0.60499  Biso   1.000  H
  O11      1.0000 0.55559  0.56419  0.67109  Biso   1.000  O
  C16      1.0000 0.72228  0.54460  0.63860  Biso   1.000  C
  H18      1.0000 0.76091  0.52047  0.57212  Biso   1.000  H
  C17      1.0000 0.89427  0.50689  0.60531  Biso   1.000  C
  C18      1.0000 0.51553  0.51880  0.27189  Biso   1.000  C
  H19      1.0000 0.39223  0.45451  0.28150  Biso   1.000  H
  O12      1.0000 0.34686  0.55327  0.29142  Biso   1.000  O
  H20      1.0000 0.35603  0.43121  0.38720  Biso   1.000  H
  H21      1.0000 0.72274  0.39188  0.35720  Biso   1.000  H
  H22      1.0000 0.75371  0.41560  0.30699  Biso   1.000  H
  O13      1.0000 0.66639  0.33532  0.30851  Biso   1.000  O
  H23      1.0000 0.58558  0.60002  0.67852  Biso   1.000  H
  H24      1.0000 0.74470  0.53170  0.66992  Biso   1.000  H
  O14      1.0000 0.73788  0.61590  0.63132  Biso   1.000  O
  H25      1.0000 0.91699  0.55442  0.59979  Biso   1.000  H
  H26      1.0000 0.92510  0.47650  0.58242  Biso   1.000  H
  O15      1.0000 0.92093  0.48491  0.65119  Biso   1.000  O
  H27      1.0000 0.50189  0.52470  0.23870  Biso   1.000  H
  O16      1.0000 0.55248  0.58169  0.29020  Biso   1.000  O
  H28      1.0000 0.37527  0.58769  0.28060  Biso   1.000  H
  H29      1.0000 0.61989  0.34159  0.29020  Biso   1.000  H
  C19      1.0000 0.80127  0.65298  0.66301  Biso   1.000  C
  H30      1.0000 0.96327  0.51170  0.66190  Biso   1.000  H
  C20      1.0000 0.57672  0.63757  0.25771  Biso   1.000  C
  H31      1.0000 0.82081  0.62321  0.68909  Biso   1.000  H
  C21      1.0000 0.73728  0.71832  0.68022  Biso   1.000  C
  O17      1.0000 0.88700  0.67758  0.63929  Biso   1.000  O
  C22      1.0000 0.51053  0.69618  0.26711  Biso   1.000  C
  H32      1.0000 0.56490  0.62112  0.22601  Biso   1.000  H
  C23      1.0000 0.68729  0.65528  0.26340  Biso   1.000  C
  H33      1.0000 0.77840  0.74548  0.70199  Biso   1.000  H
  O18      1.0000 0.64753  0.69231  0.70449  Biso   1.000  O
  C24      1.0000 0.70963  0.76371  0.64030  Biso   1.000  C
  C25      1.0000 0.86678  0.72172  0.60031  Biso   1.000  C
  C26      1.0000 0.54400  0.76287  0.24169  Biso   1.000  C
  H34      1.0000 0.51409  0.70579  0.30050  Biso   1.000  H
  O19      1.0000 0.40609  0.68019  0.25622  Biso   1.000  O
  H35      1.0000 0.70062  0.66270  0.29651  Biso   1.000  H
  O20      1.0000 0.71327  0.71728  0.23929  Biso   1.000  O
  C27      1.0000 0.75947  0.59919  0.24581  Biso   1.000  C
  H36      1.0000 0.62822  0.65601  0.69221  Biso   1.000  H
  H37      1.0000 0.66442  0.73859  0.61911  Biso   1.000  H
  O21      1.0000 0.66071  0.82289  0.65819  Biso   1.000  O
  C28      1.0000 0.80710  0.78450  0.61509  Biso   1.000  C
  H38      1.0000 0.82346  0.69498  0.57909  Biso   1.000  H
  C29      1.0000 0.96297  0.73342  0.57631  Biso   1.000  C
  C30      1.0000 0.65079  0.77369  0.25108  Biso   1.000  C
  H39      1.0000 0.53552  0.75561  0.20829  Biso   1.000  H
  O22      1.0000 0.48849  0.82122  0.25452  Biso   1.000  O
  H40      1.0000 0.39132  0.64201  0.26721  Biso   1.000  H
  H41      1.0000 0.74879  0.59328  0.21280  Biso   1.000  H
  H42      1.0000 0.74228  0.55531  0.26069  Biso   1.000  H
  O23      1.0000 0.85913  0.61198  0.25310  Biso   1.000  O
  H43      1.0000 0.65011  0.85078  0.63721  Biso   1.000  H
  O24      1.0000 0.77280  0.82090  0.57371  Biso   1.000  O
  H44      1.0000 0.84838  0.81542  0.63461  Biso   1.000  H
  H45      1.0000 0.95070  0.74982  0.54489  Biso   1.000  H
  H46      1.0000 0.00114  0.69012  0.57451  Biso   1.000  H
  O25      1.0000 0.01946  0.78492  0.60191  Biso   1.000  O
  H47      1.0000 0.67321  0.81443  0.23319  Biso   1.000  H
  O26      1.0000 0.66177  0.79040  0.30040  Biso   1.000  O
  H48      1.0000 0.44138  0.82660  0.23631  Biso   1.000  H
  H49      1.0000 0.89291  0.58028  0.24200  Biso   1.000  H
  C31      1.0000 0.79817  0.89058  0.57080  Biso   1.000  C
  C32      1.0000 0.10520  0.81030  0.58360  Biso   1.000  C
  C33      1.0000 0.71819  0.84999  0.31431  Biso   1.000  C
  C34      1.0000 0.71092  0.93482  0.55141  Biso   1.000  C
  O27      1.0000 0.88413  0.90301  0.54260  Biso   1.000  O
  H50      1.0000 0.81347  0.90729  0.60218  Biso   1.000  H
  C35      1.0000 0.15064  0.78789  0.54091  Biso   1.000  C
  C36      1.0000 0.15064  0.86530  0.60770  Biso   1.000  C
  C37      1.0000 0.64677  0.89648  0.34201  Biso   1.000  C
  H51      1.0000 0.74212  0.87512  0.28680  Biso   1.000  H
  C38      1.0000 0.80710  0.82900  0.34378  Biso   1.000  C
  C39      1.0000 0.68911  0.91351  0.50331  Biso   1.000  C
  H52      1.0000 0.72910  0.98438  0.55231  Biso   1.000  H
  O28      1.0000 0.62383  0.92118  0.58321  Biso   1.000  O
  C40      1.0000 0.86822  0.87830  0.49371  Biso   1.000  C
  H53      1.0000 0.12012  0.75410  0.52249  Biso   1.000  H
  C41      1.0000 0.23690  0.81699  0.52880  Biso   1.000  C
  C42      1.0000 0.23243  0.89752  0.59098  Biso   1.000  C
  H54      1.0000 0.12330  0.87982  0.63579  Biso   1.000  H
  C43      1.0000 0.70062  0.95921  0.36109  Biso   1.000  C
  H55      1.0000 0.61671  0.86969  0.36750  Biso   1.000  H
  O29      1.0000 0.56596  0.92369  0.31160  Biso   1.000  O
  H56      1.0000 0.78310  0.79928  0.36920  Biso   1.000  H
  O30      1.0000 0.85792  0.89079  0.36352  Biso   1.000  O
  C44      1.0000 0.88042  0.78821  0.31469  Biso   1.000  C
  C45      1.0000 0.78090  0.92333  0.47359  Biso   1.000  C
  H57      1.0000 0.66896  0.86420  0.50279  Biso   1.000  H
  O31      1.0000 0.60747  0.95607  0.48379  Biso   1.000  O
  H58      1.0000 0.64102  0.89329  0.60319  Biso   1.000  H
  H59      1.0000 0.84921  0.82879  0.49350  Biso   1.000  H
  C46      1.0000 0.96630  0.88828  0.46901  Biso   1.000  C
  H60      1.0000 0.27052  0.79792  0.50342  Biso   1.000  H
  C47      1.0000 0.28158  0.87271  0.55020  Biso   1.000  C
  H61      1.0000 0.25780  0.93659  0.60621  Biso   1.000  H
  C48      1.0000 0.79234  0.93419  0.38949  Biso   1.000  C
  H62      1.0000 0.72501  0.98773  0.33518  Biso   1.000  H
  O32      1.0000 0.63791  0.00219  0.39060  Biso   1.000  O
  H63      1.0000 0.52893  0.94960  0.32662  Biso   1.000  H
  O33      1.0000 0.96062  0.76178  0.35301  Biso   1.000  O
  O34      1.0000 0.91896  0.83098  0.28011  Biso   1.000  O
  O35      1.0000 0.75689  0.89512  0.42878  Biso   1.000  O
  H64      1.0000 0.80014  0.97258  0.47161  Biso   1.000  H
  H65      1.0000 0.55301  0.93670  0.48830  Biso   1.000  H
  H66      1.0000 0.96138  0.93168  0.45171  Biso   1.000  H
  O36      1.0000 0.99773  0.84258  0.44179  Biso   1.000  O
  H67      1.0000 0.01810  0.89512  0.49239  Biso   1.000  H
  C49      1.0000 0.37261  0.91131  0.53432  Biso   1.000  C
  H68      1.0000 0.83020  0.97498  0.40049  Biso   1.000  H
  H69      1.0000 0.63413  0.98438  0.41640  Biso   1.000  H
  H70      1.0000 0.96100  0.78909  0.37489  Biso   1.000  H
  H71      1.0000 0.96789  0.84608  0.41689  Biso   1.000  H
  H72      1.0000 0.39677  0.94861  0.55179  Biso   1.000  H
  O37      1.0000 0.41783  0.89402  0.49721  Biso   1.000  O
  C50      1.0000 0.46630  0.61172  0.53099  Biso   1.000  C
  C51      1.0000 0.36822  0.62170  0.50629  Biso   1.000  C
  H73      1.0000 0.51810  0.60488  0.50761  Biso   1.000  H
  H74      1.0000 0.46138  0.56832  0.54829  Biso   1.000  H
  O38      1.0000 0.49773  0.65742  0.55821  Biso   1.000  O
  O39      1.0000 0.38413  0.59699  0.45740  Biso   1.000  O
  C52      1.0000 0.28090  0.57667  0.52641  Biso   1.000  C
  H75      1.0000 0.34921  0.67121  0.50650  Biso   1.000  H
  H76      1.0000 0.46789  0.65392  0.58311  Biso   1.000  H
  C53      1.0000 0.29817  0.60942  0.42920  Biso   1.000  C
  C54      1.0000 0.18911  0.58649  0.49669  Biso   1.000  C
  H77      1.0000 0.30014  0.52742  0.52839  Biso   1.000  H
  O40      1.0000 0.25689  0.60488  0.57122  Biso   1.000  O
  C55      1.0000 0.21092  0.56518  0.44859  Biso   1.000  C
  H78      1.0000 0.31347  0.59271  0.39782  Biso   1.000  H
  O41      1.0000 0.27280  0.67910  0.42629  Biso   1.000  O
  H79      1.0000 0.16896  0.63580  0.49721  Biso   1.000  H
  O42      1.0000 0.10747  0.54393  0.51621  Biso   1.000  O
  C56      1.0000 0.29234  0.56581  0.61051  Biso   1.000  C
  O43      1.0000 0.12383  0.57882  0.41679  Biso   1.000  O
  H80      1.0000 0.22910  0.51562  0.44769  Biso   1.000  H
  C57      1.0000 0.30710  0.71550  0.38491  Biso   1.000  C
  H81      1.0000 0.05301  0.56330  0.51170  Biso   1.000  H
  H82      1.0000 0.33020  0.52502  0.59951  Biso   1.000  H
  C58      1.0000 0.20062  0.54079  0.63891  Biso   1.000  C
  O44      1.0000 0.35792  0.60921  0.63648  Biso   1.000  O
  H83      1.0000 0.14102  0.60671  0.39681  Biso   1.000  H
  C59      1.0000 0.20963  0.73629  0.35970  Biso   1.000  C
  H84      1.0000 0.34838  0.68458  0.36539  Biso   1.000  H
  C60      1.0000 0.36678  0.77828  0.39969  Biso   1.000  C
  H85      1.0000 0.22501  0.51227  0.66482  Biso   1.000  H
  O45      1.0000 0.13791  0.49781  0.60940  Biso   1.000  O
  C61      1.0000 0.14677  0.60352  0.65799  Biso   1.000  C
  C62      1.0000 0.30710  0.67100  0.65622  Biso   1.000  C
  C63      1.0000 0.23728  0.78168  0.31978  Biso   1.000  C
  H86      1.0000 0.16442  0.76141  0.38089  Biso   1.000  H
  O46      1.0000 0.16071  0.67711  0.34181  Biso   1.000  O
  H87      1.0000 0.32346  0.80502  0.42091  Biso   1.000  H
  O47      1.0000 0.38700  0.82242  0.36071  Biso   1.000  O
  C64      1.0000 0.46297  0.76658  0.42369  Biso   1.000  C
  H88      1.0000 0.13413  0.51562  0.58360  Biso   1.000  H
  H89      1.0000 0.11671  0.63031  0.63250  Biso   1.000  H
  O48      1.0000 0.06596  0.57631  0.68840  Biso   1.000  O
  C65      1.0000 0.21819  0.65001  0.68569  Biso   1.000  C
  H90      1.0000 0.28310  0.70072  0.63080  Biso   1.000  H
  C66      1.0000 0.38042  0.71179  0.68531  Biso   1.000  C
  C67      1.0000 0.30127  0.84702  0.33699  Biso   1.000  C
  H91      1.0000 0.27840  0.75452  0.29801  Biso   1.000  H
  O49      1.0000 0.14753  0.80769  0.29551  Biso   1.000  O
  H92      1.0000 0.15011  0.64922  0.36279  Biso   1.000  H
  H93      1.0000 0.45070  0.75018  0.45511  Biso   1.000  H
  H94      1.0000 0.50114  0.80988  0.42549  Biso   1.000  H
  O50      1.0000 0.51946  0.71508  0.39809  Biso   1.000  O
  H95      1.0000 0.02893  0.55040  0.67338  Biso   1.000  H
  H96      1.0000 0.24212  0.62488  0.71320  Biso   1.000  H
  O51      1.0000 0.16177  0.70960  0.69960  Biso   1.000  O
  O52      1.0000 0.46062  0.73822  0.64699  Biso   1.000  O
  O53      1.0000 0.41896  0.66902  0.71989  Biso   1.000  O
  H97      1.0000 0.32081  0.87679  0.31091  Biso   1.000  H
  O54      1.0000 0.23788  0.88410  0.36868  Biso   1.000  O
  H98      1.0000 0.12822  0.84399  0.30779  Biso   1.000  H
  C68      1.0000 0.60520  0.68970  0.41640  Biso   1.000  C
  C69      1.0000 0.15079  0.72631  0.74892  Biso   1.000  C
  H99      1.0000 0.46100  0.71091  0.62511  Biso   1.000  H
  C70      1.0000 0.22228  0.95540  0.36140  Biso   1.000  C
  C71      1.0000 0.65064  0.71211  0.45909  Biso   1.000  C
  C72      1.0000 0.65064  0.63470  0.39230  Biso   1.000  C
  H100     1.0000 0.17321  0.68557  0.76681  Biso   1.000  H
  C73      1.0000 0.04400  0.73713  0.75831  Biso   1.000  C
  O55      1.0000 0.21327  0.78272  0.76071  Biso   1.000  O
  C74      1.0000 0.10520  0.96699  0.36608  Biso   1.000  C
  H101     1.0000 0.24470  0.96830  0.33008  Biso   1.000  H
  C75      1.0000 0.28067  0.99739  0.39729  Biso   1.000  C
  H102     1.0000 0.62012  0.74590  0.47751  Biso   1.000  H
  C76      1.0000 0.73690  0.68301  0.47120  Biso   1.000  C
  C77      1.0000 0.73243  0.60248  0.40902  Biso   1.000  C
  H103     1.0000 0.62330  0.62018  0.36421  Biso   1.000  H
  H104     1.0000 0.03552  0.74439  0.79171  Biso   1.000  H
  C78      1.0000 0.01053  0.80382  0.73289  Biso   1.000  C
  O56      1.0000 0.98849  0.67878  0.74548  Biso   1.000  O
  C79      1.0000 0.18729  0.84472  0.73660  Biso   1.000  C
  H105     1.0000 0.08157  0.94552  0.39501  Biso   1.000  H
  O57      1.0000 0.05559  0.93581  0.32891  Biso   1.000  O
  C80      1.0000 0.08619  0.04361  0.36809  Biso   1.000  C
  H106     1.0000 0.26091  0.97953  0.42788  Biso   1.000  H
  C81      1.0000 0.39427  0.99311  0.39469  Biso   1.000  C
  O58      1.0000 0.25242  0.06858  0.39591  Biso   1.000  O
  H107     1.0000 0.77052  0.70208  0.49658  Biso   1.000  H
  C82      1.0000 0.78158  0.62729  0.44980  Biso   1.000  C
  H108     1.0000 0.75780  0.56341  0.39379  Biso   1.000  H
  H109     1.0000 0.01409  0.79421  0.69950  Biso   1.000  H
  C83      1.0000 0.07672  0.86243  0.74229  Biso   1.000  C
  O59      1.0000 0.90609  0.81981  0.74378  Biso   1.000  O
  H110     1.0000 0.94138  0.67340  0.76369  Biso   1.000  H
  H111     1.0000 0.20062  0.83730  0.70349  Biso   1.000  H
  C84      1.0000 0.25947  0.90081  0.75419  Biso   1.000  C
  H112     1.0000 0.08558  0.89998  0.32148  Biso   1.000  H
  O60      1.0000 0.97690  0.05552  0.37999  Biso   1.000  O
  C85      1.0000 0.14859  0.08299  0.40510  Biso   1.000  C
  H113     1.0000 0.10012  0.06388  0.33761  Biso   1.000  H
  H114     1.0000 0.41699  0.94558  0.40021  Biso   1.000  H
  H115     1.0000 0.42510  0.02350  0.41758  Biso   1.000  H
  O61      1.0000 0.42093  0.01509  0.34881  Biso   1.000  O
  C86      1.0000 0.87261  0.58869  0.46568  Biso   1.000  C
  H116     1.0000 0.06490  0.87888  0.77399  Biso   1.000  H
  O62      1.0000 0.05248  0.91831  0.70980  Biso   1.000  O
  H117     1.0000 0.89132  0.85799  0.73279  Biso   1.000  H
  H118     1.0000 0.24879  0.90672  0.78720  Biso   1.000  H
  H119     1.0000 0.24228  0.94469  0.73931  Biso   1.000  H
  O63      1.0000 0.35913  0.88802  0.74690  Biso   1.000  O
  H120     1.0000 0.94797  0.07328  0.35779  Biso   1.000  H
  H121     1.0000 0.13587  0.13329  0.40271  Biso   1.000  H
  O64      1.0000 0.11762  0.05829  0.44959  Biso   1.000  O
  H122     1.0000 0.46327  0.98830  0.33810  Biso   1.000  H
  H123     1.0000 0.89677  0.55139  0.44821  Biso   1.000  H
  O65      1.0000 0.91783  0.60598  0.50279  Biso   1.000  O
  C87      1.0000 0.01553  0.98120  0.72811  Biso   1.000  C
  H124     1.0000 0.39291  0.91972  0.75800  Biso   1.000  H
  C88      1.0000 0.09527  0.10812  0.48420  Biso   1.000  C
  H125     1.0000 0.00189  0.97530  0.76130  Biso   1.000  H
  C89      1.0000 0.91919  0.00319  0.70390  Biso   1.000  C
  O66      1.0000 0.08990  0.03479  0.72200  Biso   1.000  O
  C90      1.0000 0.99470  0.09652  0.50179  Biso   1.000  C
  H126     1.0000 0.10012  0.15528  0.47109  Biso   1.000  H
  C91      1.0000 0.17669  0.09892  0.52350  Biso   1.000  C
  O67      1.0000 0.84686  0.94673  0.70858  Biso   1.000  O
  H127     1.0000 0.89223  0.04549  0.71850  Biso   1.000  H
  C92      1.0000 0.93987  0.01697  0.65310  Biso   1.000  C
  C93      1.0000 0.11459  0.05040  0.67439  Biso   1.000  C
  C94      1.0000 0.97137  0.15189  0.54091  Biso   1.000  C
  H128     1.0000 0.98887  0.04910  0.51431  Biso   1.000  H
  O68      1.0000 0.91927  0.10770  0.46568  Biso   1.000  O
  H129     1.0000 0.17381  0.05129  0.53602  Biso   1.000  H
  O69      1.0000 0.15518  0.14938  0.56008  Biso   1.000  O
  C95      1.0000 0.28241  0.11710  0.51101  Biso   1.000  C
  H130     1.0000 0.87527  0.91231  0.71940  Biso   1.000  H
  H131     1.0000 0.96122  0.97368  0.63780  Biso   1.000  H
  O70      1.0000 0.84482  0.04069  0.63371  Biso   1.000  O
  C96      1.0000 0.02257  0.07129  0.64911  Biso   1.000  C
  H132     1.0000 0.14011  0.00742  0.66010  Biso   1.000  H
  C97      1.0000 0.19812  0.10190  0.67428  Biso   1.000  C
  H133     1.0000 0.97417  0.19921  0.52790  Biso   1.000  H
  O71      1.0000 0.87640  0.13951  0.55949  Biso   1.000  O
  C98      1.0000 0.05097  0.14342  0.57690  Biso   1.000  C
  H134     1.0000 0.93979  0.09119  0.44120  Biso   1.000  H
  H135     1.0000 0.30741  0.08111  0.49020  Biso   1.000  H
  H136     1.0000 0.32278  0.11470  0.53900  Biso   1.000  H
  O72      1.0000 0.29983  0.17758  0.49142  Biso   1.000  O
  H137     1.0000 0.85603  0.06879  0.61280  Biso   1.000  H
  O73      1.0000 0.04461  0.07500  0.59958  Biso   1.000  O
  H138     1.0000 0.99833  0.11658  0.66041  Biso   1.000  H
  H139     1.0000 0.22274  0.10812  0.64280  Biso   1.000  H
  H140     1.0000 0.25371  0.08440  0.69301  Biso   1.000  H
  O74      1.0000 0.16639  0.16468  0.69149  Biso   1.000  O
  H141     1.0000 0.88087  0.11010  0.57999  Biso   1.000  H
  H142     1.0000 0.04097  0.17952  0.60049  Biso   1.000  H
  H143     1.0000 0.36057  0.18150  0.48611  Biso   1.000  H
  H144     1.0000 0.11989  0.15841  0.70980  Biso   1.000  H
  O75      1.0000 0.64087  0.38802  0.75311  Biso   1.000  O
  C99      1.0000 0.74053  0.40081  0.74580  Biso   1.000  C
  H145     1.0000 0.60709  0.41972  0.74201  Biso   1.000  H
  C100     1.0000 0.81271  0.34472  0.76341  Biso   1.000  C
  H146     1.0000 0.75121  0.40672  0.71281  Biso   1.000  H
  H147     1.0000 0.75772  0.44469  0.76071  Biso   1.000  H
  C101     1.0000 0.92328  0.36243  0.75769  Biso   1.000  C
  H148     1.0000 0.79938  0.33730  0.79650  Biso   1.000  H
  O76      1.0000 0.78673  0.28272  0.73931  Biso   1.000  O
  C102     1.0000 0.98947  0.30382  0.76709  Biso   1.000  C
  H149     1.0000 0.93510  0.37888  0.72599  Biso   1.000  H
  O77      1.0000 0.94752  0.41831  0.79019  Biso   1.000  O
  C103     1.0000 0.84921  0.22631  0.75110  Biso   1.000  C
  C104     1.0000 0.95600  0.23713  0.74170  Biso   1.000  C
  H150     1.0000 0.98591  0.29421  0.80049  Biso   1.000  H
  O78      1.0000 0.09391  0.31981  0.75620  Biso   1.000  O
  C105     1.0000 0.98447  0.48120  0.77191  Biso   1.000  C
  H151     1.0000 0.82679  0.18557  0.73321  Biso   1.000  H
  O79      1.0000 0.83823  0.20960  0.80042  Biso   1.000  O
  H152     1.0000 0.96448  0.24439  0.70831  Biso   1.000  H
  O80      1.0000 0.01151  0.17878  0.75450  Biso   1.000  O
  H153     1.0000 0.10868  0.35799  0.76719  Biso   1.000  H
  H154     1.0000 0.99811  0.47530  0.73869  Biso   1.000  H
  O81      1.0000 0.91010  0.53479  0.77801  Biso   1.000  O
  C106     1.0000 0.08081  0.50319  0.79612  Biso   1.000  C
  C107     1.0000 0.78181  0.15001  0.81429  Biso   1.000  C
  H155     1.0000 0.05862  0.17340  0.73629  Biso   1.000  H
  C108     1.0000 0.88541  0.55040  0.82559  Biso   1.000  C
  H156     1.0000 0.10777  0.54549  0.78152  Biso   1.000  H
  O82      1.0000 0.15314  0.44673  0.79140  Biso   1.000  O
  C109     1.0000 0.06013  0.51697  0.84689  Biso   1.000  C
  C110     1.0000 0.85323  0.10352  0.84200  Biso   1.000  C
  H157     1.0000 0.75788  0.12488  0.78679  Biso   1.000  H
  C111     1.0000 0.69290  0.17100  0.84380  Biso   1.000  C
  C112     1.0000 0.97743  0.57129  0.85091  Biso   1.000  C
  H158     1.0000 0.85989  0.50742  0.83992  Biso   1.000  H
  C113     1.0000 0.80188  0.60190  0.82570  Biso   1.000  C
  H159     1.0000 0.12473  0.41231  0.78061  Biso   1.000  H
  H160     1.0000 0.03878  0.47368  0.86222  Biso   1.000  H
  O83      1.0000 0.15518  0.54069  0.86631  Biso   1.000  O
  C114     1.0000 0.79938  0.04079  0.86111  Biso   1.000  C
  H161     1.0000 0.88329  0.13031  0.86749  Biso   1.000  H
  O84      1.0000 0.93404  0.07631  0.81158  Biso   1.000  O
  H162     1.0000 0.71690  0.20072  0.86919  Biso   1.000  H
  O85      1.0000 0.64208  0.10921  0.86350  Biso   1.000  O
  C115     1.0000 0.61958  0.21179  0.81470  Biso   1.000  C
  O86      1.0000 0.95539  0.57500  0.90040  Biso   1.000  O
  H163     1.0000 0.00167  0.61658  0.83960  Biso   1.000  H
  H164     1.0000 0.77726  0.60812  0.85719  Biso   1.000  H
  H165     1.0000 0.74629  0.58440  0.80701  Biso   1.000  H
  O87      1.0000 0.83361  0.66468  0.80850  Biso   1.000  O
  H166     1.0000 0.14397  0.56879  0.88719  Biso   1.000  H
  C116     1.0000 0.70766  0.06581  0.88951  Biso   1.000  C
  H167     1.0000 0.77499  0.01227  0.83520  Biso   1.000  H
  O88      1.0000 0.86209  0.99781  0.89058  Biso   1.000  O
  H168     1.0000 0.97107  0.05040  0.82660  Biso   1.000  H
  O89      1.0000 0.53938  0.23822  0.85299  Biso   1.000  O
  O90      1.0000 0.58104  0.16902  0.78009  Biso   1.000  O
  C117     1.0000 0.94903  0.64342  0.92311  Biso   1.000  C
  H169     1.0000 0.88011  0.65841  0.79019  Biso   1.000  H
  H170     1.0000 0.66980  0.02502  0.90050  Biso   1.000  H
  O91      1.0000 0.74311  0.10488  0.92880  Biso   1.000  O
  H171     1.0000 0.86587  0.01562  0.91639  Biso   1.000  H
  H172     1.0000 0.53900  0.21091  0.87491  Biso   1.000  H
  H173     1.0000 0.95903  0.67952  0.89950  Biso   1.000  H
  O92      1.0000 0.84482  0.64938  0.93990  Biso   1.000  O
  C118     1.0000 0.02863  0.65189  0.95911  Biso   1.000  C
  C119     1.0000 0.71910  0.07667  0.97361  Biso   1.000  C
  C120     1.0000 0.82331  0.59892  0.97649  Biso   1.000  C
  H174     1.0000 0.02583  0.69921  0.97212  Biso   1.000  H
  O93      1.0000 0.12360  0.63951  0.94049  Biso   1.000  O
  C121     1.0000 0.00530  0.59652  0.99820  Biso   1.000  C
  H175     1.0000 0.69986  0.02742  0.97160  Biso   1.000  H
  C122     1.0000 0.63178  0.12170  0.99369  Biso   1.000  C
  C123     1.0000 0.81089  0.08649  0.00329  Biso   1.000  C
  H176     1.0000 0.82619  0.55129  0.96400  Biso   1.000  H
  C124     1.0000 0.71759  0.61710  0.98901  Biso   1.000  C
  C125     1.0000 0.90473  0.60812  0.01581  Biso   1.000  C
  H177     1.0000 0.11913  0.61010  0.91999  Biso   1.000  H
  H178     1.0000 0.01113  0.54910  0.98571  Biso   1.000  H
  O94      1.0000 0.08073  0.60770  0.03430  Biso   1.000  O
  H179     1.0000 0.65079  0.17121  0.99351  Biso   1.000  H
  C126     1.0000 0.53370  0.11172  0.96900  Biso   1.000  C
  O95      1.0000 0.61587  0.09699  0.04259  Biso   1.000  O
  O96      1.0000 0.89253  0.04393  0.98380  Biso   1.000  O
  C127     1.0000 0.78908  0.06518  0.05140  Biso   1.000  C
  H180     1.0000 0.83104  0.13580  0.00281  Biso   1.000  H
  H181     1.0000 0.67722  0.61470  0.96098  Biso   1.000  H
  H182     1.0000 0.69259  0.58111  0.00981  Biso   1.000  H
  O97      1.0000 0.70017  0.67758  0.00860  Biso   1.000  O
  H183     1.0000 0.89988  0.65528  0.02889  Biso   1.000  H
  O98      1.0000 0.88238  0.55829  0.05039  Biso   1.000  O
  H184     1.0000 0.06021  0.59119  0.05878  Biso   1.000  H
  H185     1.0000 0.48190  0.10488  0.99241  Biso   1.000  H
  H186     1.0000 0.53862  0.06832  0.95169  Biso   1.000  H
  O99      1.0000 0.50227  0.15742  0.94181  Biso   1.000  O
  C128     1.0000 0.70183  0.10942  0.07082  Biso   1.000  C
  H187     1.0000 0.94699  0.06330  0.98831  Biso   1.000  H
  H188     1.0000 0.77090  0.01562  0.05230  Biso   1.000  H
  O100     1.0000 0.87617  0.07882  0.08320  Biso   1.000  O
  H189     1.0000 0.63943  0.68150  0.01391  Biso   1.000  H
  C129     1.0000 0.85141  0.58299  0.09488  Biso   1.000  C
  H190     1.0000 0.53211  0.15392  0.91691  Biso   1.000  H
  H191     1.0000 0.68653  0.09271  0.10220  Biso   1.000  H
  O101     1.0000 0.72720  0.17910  0.07370  Biso   1.000  O
  H192     1.0000 0.85898  0.10671  0.10321  Biso   1.000  H
  H193     1.0000 0.86413  0.63329  0.09731  Biso   1.000  H
  C130     1.0000 0.91381  0.54361  0.13189  Biso   1.000  C
  O102     1.0000 0.74758  0.56858  0.10411  Biso   1.000  O
  C131     1.0000 0.69290  0.21550  0.11510  Biso   1.000  C
  H194     1.0000 0.89988  0.56388  0.16241  Biso   1.000  H
  C132     1.0000 0.89480  0.46699  0.13390  Biso   1.000  C
  O103     1.0000 0.02310  0.55552  0.11999  Biso   1.000  O
  C133     1.0000 0.71933  0.49739  0.10269  Biso   1.000  C
  C134     1.0000 0.79037  0.23629  0.14032  Biso   1.000  C
  H195     1.0000 0.65162  0.18458  0.13459  Biso   1.000  H
  C135     1.0000 0.63322  0.27828  0.10029  Biso   1.000  C
  H196     1.0000 0.91843  0.44552  0.10501  Biso   1.000  H
  O104     1.0000 0.94441  0.43581  0.17111  Biso   1.000  O
  C136     1.0000 0.77772  0.45540  0.13862  Biso   1.000  C
  H197     1.0000 0.05203  0.57328  0.14219  Biso   1.000  H
  H198     1.0000 0.73909  0.47953  0.07210  Biso   1.000  H
  C137     1.0000 0.60573  0.49311  0.10529  Biso   1.000  C
  C138     1.0000 0.76272  0.28168  0.18020  Biso   1.000  C
  H199     1.0000 0.83558  0.26141  0.11909  Biso   1.000  H
  O105     1.0000 0.83929  0.17711  0.15821  Biso   1.000  O
  H200     1.0000 0.67654  0.30502  0.07911  Biso   1.000  H
  O106     1.0000 0.61300  0.32242  0.13931  Biso   1.000  O
  C139     1.0000 0.53703  0.26658  0.07630  Biso   1.000  C
  H201     1.0000 0.91442  0.39998  0.17850  Biso   1.000  H
  H202     1.0000 0.75530  0.46830  0.16990  Biso   1.000  H
  O107     1.0000 0.76212  0.38410  0.13130  Biso   1.000  O
  H203     1.0000 0.58301  0.44558  0.09981  Biso   1.000  H
  H204     1.0000 0.57490  0.52350  0.08240  Biso   1.000  H
  O108     1.0000 0.57907  0.51509  0.15121  Biso   1.000  O
  C140     1.0000 0.69873  0.34702  0.16300  Biso   1.000  C
  H205     1.0000 0.72160  0.25452  0.20201  Biso   1.000  H
  O109     1.0000 0.85247  0.30769  0.20451  Biso   1.000  O
  H206     1.0000 0.84989  0.14922  0.13719  Biso   1.000  H
  H207     1.0000 0.54930  0.25018  0.04491  Biso   1.000  H
  H208     1.0000 0.49886  0.30988  0.07449  Biso   1.000  H
  O110     1.0000 0.48054  0.21508  0.10189  Biso   1.000  O
  H209     1.0000 0.53673  0.48830  0.16189  Biso   1.000  H
  H210     1.0000 0.67919  0.37679  0.18911  Biso   1.000  H
  H211     1.0000 0.87178  0.34399  0.19220  Biso   1.000  H
  C141     1.0000 0.39480  0.18970  0.08361  Biso   1.000  C
  C142     1.0000 0.34936  0.21211  0.04089  Biso   1.000  C
  C143     1.0000 0.34936  0.13470  0.10772  Biso   1.000  C
  H212     1.0000 0.37988  0.24590  0.02251  Biso   1.000  H
  C144     1.0000 0.26310  0.18301  0.02878  Biso   1.000  C
  C145     1.0000 0.26757  0.10248  0.09100  Biso   1.000  C
  H213     1.0000 0.37670  0.12018  0.13581  Biso   1.000  H
  H214     1.0000 0.22948  0.20208  0.00340  Biso   1.000  H
  C146     1.0000 0.21842  0.12729  0.05022  Biso   1.000  C
  H215     1.0000 0.24220  0.06341  0.10619  Biso   1.000  H
  C147     1.0000 0.12739  0.08869  0.03430  Biso   1.000  C
  O111     1.0000 0.08217  0.10598  0.99719  Biso   1.000  O
  H216     1.0000 0.10323  0.05139  0.05181  Biso   1.000  H
  O112     1.0000 0.51151  0.32122  0.24550  Biso   1.000  O
  C148     1.0000 0.45600  0.26287  0.25830  Biso   1.000  C
  H217     1.0000 0.55862  0.32660  0.26371  Biso   1.000  H
  C149     1.0000 0.34921  0.27369  0.24890  Biso   1.000  C
  H218     1.0000 0.46448  0.25561  0.29169  Biso   1.000  H
  C150     1.0000 0.48947  0.19618  0.23291  Biso   1.000  C
  O113     1.0000 0.28673  0.21728  0.26069  Biso   1.000  O
  H219     1.0000 0.32679  0.31443  0.26679  Biso   1.000  H
  O114     1.0000 0.33823  0.29040  0.19958  Biso   1.000  O
  C151     1.0000 0.42328  0.13757  0.24231  Biso   1.000  C
  H220     1.0000 0.48591  0.20579  0.19951  Biso   1.000  H
  O115     1.0000 0.59391  0.18019  0.24380  Biso   1.000  O
  C152     1.0000 0.31271  0.15528  0.23659  Biso   1.000  C
  C153     1.0000 0.28181  0.34999  0.18571  Biso   1.000  C
  H221     1.0000 0.43510  0.12112  0.27401  Biso   1.000  H
  O116     1.0000 0.44752  0.08169  0.20981  Biso   1.000  O
  H222     1.0000 0.60868  0.14201  0.23281  Biso   1.000  H
  H223     1.0000 0.29938  0.16270  0.20350  Biso   1.000  H
  C154     1.0000 0.24053  0.09919  0.25420  Biso   1.000  C
  C155     1.0000 0.35323  0.39648  0.15800  Biso   1.000  C
  H224     1.0000 0.25788  0.37512  0.21321  Biso   1.000  H
  C156     1.0000 0.19290  0.32900  0.15620  Biso   1.000  C
  C157     1.0000 0.48447  0.01880  0.22809  Biso   1.000  C
  H225     1.0000 0.25121  0.09328  0.28719  Biso   1.000  H
  H226     1.0000 0.25772  0.05531  0.23929  Biso   1.000  H
  O117     1.0000 0.14087  0.11198  0.24689  Biso   1.000  O
  C158     1.0000 0.29938  0.45921  0.13889  Biso   1.000  C
  H227     1.0000 0.38329  0.36969  0.13251  Biso   1.000  H
  O118     1.0000 0.43404  0.42369  0.18842  Biso   1.000  O
  H228     1.0000 0.21690  0.29928  0.13081  Biso   1.000  H
  O119     1.0000 0.14208  0.39079  0.13650  Biso   1.000  O
  C159     1.0000 0.11958  0.28821  0.18530  Biso   1.000  C
  H229     1.0000 0.49811  0.02470  0.26131  Biso   1.000  H
  C160     1.0000 0.58081  0.99681  0.20388  Biso   1.000  C
  O120     1.0000 0.41010  0.96521  0.22199  Biso   1.000  O
  H230     1.0000 0.10709  0.08028  0.25799  Biso   1.000  H
  C161     1.0000 0.20766  0.43419  0.11049  Biso   1.000  C
  H231     1.0000 0.27499  0.48773  0.16480  Biso   1.000  H
  O121     1.0000 0.36209  0.50219  0.10942  Biso   1.000  O
  H232     1.0000 0.47107  0.44960  0.17340  Biso   1.000  H
  O122     1.0000 0.03938  0.26178  0.14701  Biso   1.000  O
  O123     1.0000 0.08104  0.33098  0.21991  Biso   1.000  O
  O124     1.0000 0.65314  0.05327  0.20860  Biso   1.000  O
  H233     1.0000 0.60777  0.95451  0.21848  Biso   1.000  H
  C162     1.0000 0.56013  0.98303  0.15311  Biso   1.000  C
  C163     1.0000 0.38541  0.94960  0.17441  Biso   1.000  C
  H234     1.0000 0.16980  0.47498  0.09950  Biso   1.000  H
  O125     1.0000 0.24311  0.39512  0.07120  Biso   1.000  O
  H235     1.0000 0.36587  0.48438  0.08361  Biso   1.000  H
  H236     1.0000 0.03900  0.28909  0.12509  Biso   1.000  H
  H237     1.0000 0.62473  0.08769  0.21939  Biso   1.000  H
  H238     1.0000 0.53878  0.02632  0.13778  Biso   1.000  H
  O126     1.0000 0.65518  0.95931  0.13369  Biso   1.000  O
  C164     1.0000 0.47743  0.92871  0.14909  Biso   1.000  C
  H239     1.0000 0.35989  0.99258  0.16008  Biso   1.000  H
  C165     1.0000 0.30188  0.89810  0.17430  Biso   1.000  C
  C166     1.0000 0.21910  0.42333  0.02639  Biso   1.000  C
  H240     1.0000 0.64397  0.93121  0.11281  Biso   1.000  H
  H241     1.0000 0.50167  0.88342  0.16040  Biso   1.000  H
  O127     1.0000 0.45539  0.92500  0.09960  Biso   1.000  O
  H242     1.0000 0.27726  0.89188  0.14281  Biso   1.000  H
  H243     1.0000 0.24629  0.91560  0.19299  Biso   1.000  H
  O128     1.0000 0.33361  0.83532  0.19150  Biso   1.000  O
  H244     1.0000 0.19986  0.47258  0.02840  Biso   1.000  H
  C167     1.0000 0.13178  0.37830  0.00631  Biso   1.000  C
  C168     1.0000 0.31089  0.41351  0.99671  Biso   1.000  C
  C169     1.0000 0.44903  0.85658  0.07689  Biso   1.000  C
  H245     1.0000 0.38011  0.84159  0.20981  Biso   1.000  H
  H246     1.0000 0.15079  0.32879  0.00649  Biso   1.000  H
  C170     1.0000 0.03370  0.38828  0.03100  Biso   1.000  C
  O129     1.0000 0.11587  0.40301  0.95741  Biso   1.000  O
  O130     1.0000 0.39253  0.45607  0.01620  Biso   1.000  O
  C171     1.0000 0.28908  0.43482  0.94860  Biso   1.000  C
  H247     1.0000 0.33104  0.36420  0.99719  Biso   1.000  H
  H248     1.0000 0.45903  0.82048  0.10050  Biso   1.000  H
  C172     1.0000 0.52863  0.84811  0.04089  Biso   1.000  C
  O131     1.0000 0.34482  0.85062  0.06010  Biso   1.000  O
  H249     1.0000 0.03862  0.43168  0.04831  Biso   1.000  H
  O132     1.0000 0.00227  0.34258  0.05819  Biso   1.000  O
  H250     1.0000 0.98190  0.39512  0.00759  Biso   1.000  H
  C173     1.0000 0.20183  0.39058  0.92918  Biso   1.000  C
  H251     1.0000 0.44699  0.43670  0.01169  Biso   1.000  H
  H252     1.0000 0.27090  0.48438  0.94770  Biso   1.000  H
  O133     1.0000 0.37617  0.42118  0.91680  Biso   1.000  O
  H253     1.0000 0.52583  0.80079  0.02788  Biso   1.000  H
  O134     1.0000 0.62360  0.86049  0.05951  Biso   1.000  O
  C174     1.0000 0.50530  0.90348  0.00180  Biso   1.000  C
  C175     1.0000 0.32331  0.90108  0.02351  Biso   1.000  C
  H254     1.0000 0.03211  0.34608  0.08309  Biso   1.000  H
  H255     1.0000 0.18653  0.40729  0.89780  Biso   1.000  H
  O135     1.0000 0.22720  0.32090  0.92630  Biso   1.000  O
  H256     1.0000 0.35898  0.39329  0.89679  Biso   1.000  H
  H257     1.0000 0.61913  0.88990  0.08001  Biso   1.000  H
  O136     1.0000 0.58073  0.89230  0.96570  Biso   1.000  O
  C176     1.0000 0.40473  0.89188  0.98419  Biso   1.000  C
  H258     1.0000 0.51113  0.95090  0.01429  Biso   1.000  H
  H259     1.0000 0.32619  0.94871  0.03600  Biso   1.000  H
  C177     1.0000 0.21759  0.88290  0.01099  Biso   1.000  C
  C178     1.0000 0.19290  0.28450  0.88490  Biso   1.000  C
  H260     1.0000 0.56021  0.90881  0.94122  Biso   1.000  H
  H261     1.0000 0.39988  0.84472  0.97111  Biso   1.000  H
  O137     1.0000 0.38238  0.94171  0.94961  Biso   1.000  O
  H262     1.0000 0.19259  0.91889  0.99019  Biso   1.000  H
  O138     1.0000 0.20017  0.82242  0.99140  Biso   1.000  O
  H263     1.0000 0.17722  0.88530  0.03902  Biso   1.000  H
  C179     1.0000 0.29037  0.26371  0.85968  Biso   1.000  C
  H264     1.0000 0.15162  0.31542  0.86541  Biso   1.000  H
  C180     1.0000 0.13322  0.22172  0.89971  Biso   1.000  C
  C181     1.0000 0.35141  0.91701  0.90512  Biso   1.000  C
  H265     1.0000 0.13943  0.81850  0.98609  Biso   1.000  H
  C182     1.0000 0.26272  0.21832  0.81980  Biso   1.000  C
  H266     1.0000 0.33558  0.23859  0.88091  Biso   1.000  H
  O139     1.0000 0.33929  0.32289  0.84179  Biso   1.000  O
  H267     1.0000 0.17654  0.19498  0.92089  Biso   1.000  H
  O140     1.0000 0.11300  0.17758  0.86069  Biso   1.000  O
  C183     1.0000 0.03703  0.23342  0.92370  Biso   1.000  C
  H268     1.0000 0.36413  0.86671  0.90269  Biso   1.000  H
  C184     1.0000 0.41381  0.95639  0.86811  Biso   1.000  C
  O141     1.0000 0.24758  0.93142  0.89589  Biso   1.000  O
  C185     1.0000 0.19873  0.15298  0.83700  Biso   1.000  C
  H269     1.0000 0.22160  0.24548  0.79799  Biso   1.000  H
  O142     1.0000 0.35247  0.19231  0.79549  Biso   1.000  O
  H270     1.0000 0.34989  0.35078  0.86281  Biso   1.000  H
  H271     1.0000 0.99886  0.19012  0.92551  Biso   1.000  H
  O143     1.0000 0.98054  0.28492  0.89811  Biso   1.000  O
  H272     1.0000 0.04930  0.24982  0.95509  Biso   1.000  H
  H273     1.0000 0.39988  0.93612  0.83759  Biso   1.000  H
  O144     1.0000 0.52310  0.94448  0.88001  Biso   1.000  O
  C186     1.0000 0.39480  0.03301  0.86610  Biso   1.000  C
  C187     1.0000 0.21933  0.00261  0.89731  Biso   1.000  C
  H274     1.0000 0.17919  0.12321  0.81089  Biso   1.000  H
  O145     1.0000 0.26212  0.11590  0.86870  Biso   1.000  O
  H275     1.0000 0.37178  0.15601  0.80780  Biso   1.000  H
  C188     1.0000 0.89480  0.31030  0.91639  Biso   1.000  C
  H276     1.0000 0.55203  0.92672  0.85781  Biso   1.000  H
  H277     1.0000 0.41843  0.05448  0.89499  Biso   1.000  H
  O146     1.0000 0.44441  0.06419  0.82889  Biso   1.000  O
  C189     1.0000 0.27772  0.04460  0.86138  Biso   1.000  C
  H278     1.0000 0.23909  0.02047  0.92790  Biso   1.000  H
  C190     1.0000 0.10573  0.00689  0.89471  Biso   1.000  C
  C191     1.0000 0.84936  0.28789  0.95911  Biso   1.000  C
  C192     1.0000 0.84936  0.36530  0.89228  Biso   1.000  C
  H279     1.0000 0.41442  0.10002  0.82150  Biso   1.000  H
  H280     1.0000 0.25530  0.03170  0.83010  Biso   1.000  H
  H281     1.0000 0.07490  0.97650  0.91760  Biso   1.000  H
  O147     1.0000 0.07907  0.98491  0.84879  Biso   1.000  O
  H282     1.0000 0.08301  0.05442  0.90019  Biso   1.000  H
  H283     1.0000 0.87988  0.25410  0.97749  Biso   1.000  H
  C193     1.0000 0.76310  0.31699  0.97122  Biso   1.000  C
  C194     1.0000 0.76757  0.39752  0.90900  Biso   1.000  C
  H284     1.0000 0.87670  0.37982  0.86419  Biso   1.000  H
  H285     1.0000 0.03673  0.01170  0.83811  Biso   1.000  H
  H286     1.0000 0.72948  0.29792  0.99660  Biso   1.000  H
  C195     1.0000 0.71842  0.37271  0.94978  Biso   1.000  C
  H287     1.0000 0.74220  0.43659  0.89381  Biso   1.000  H
  C196     1.0000 0.62739  0.41131  0.96570  Biso   1.000  C
  H288     1.0000 0.60323  0.44861  0.94819  Biso   1.000  H
  O148     1.0000 0.58217  0.39402  0.00281  Biso   1.000  O
  Ne1      1.0000 0.27041  0.16833  0.04048  Biso   1.000  Ne
  He1      1.0000 0.21333  0.13617  0.04949  Biso   1.000  He
  He2      1.0000 0.31404  0.15630  0.04102  Biso   1.000  He
  Ar1      1.0000 0.28299  0.15010  0.04363  Biso   1.000  Ar
  Ne2      1.0000 0.72959  0.66833  0.45952  Biso   1.000  Ne
  He3      1.0000 0.69175  0.65512  0.45848  Biso   1.000  He
  He4      1.0000 0.79422  0.63376  0.45070  Biso   1.000  He
  Ar2      1.0000 0.71700  0.65009  0.45636  Biso   1.000  Ar
  Ne3      1.0000 0.22959  0.83167  0.54048  Biso   1.000  Ne
  He5      1.0000 0.38766  0.90009  0.54773  Biso   1.000  He
  He6      1.0000 0.20372  0.84727  0.54252  Biso   1.000  He
  Ar3      1.0000 0.21700  0.84991  0.54364  Biso   1.000  Ar
  Ne4      1.0000 0.77041  0.33167  0.95952  Biso   1.000  Ne
  He7      1.0000 0.93799  0.33639  0.96700  Biso   1.000  He
  He8      1.0000 0.59214  0.40486  0.95193  Biso   1.000  He
  Ar4      1.0000 0.95030  0.32321  0.95685  Biso   1.000  Ar
