data_image0
_cell_length_a       24.348
_cell_length_b       24.348
_cell_length_c       24.348
_cell_angle_alpha    90
_cell_angle_beta     90
_cell_angle_gamma    90

_symmetry_space_group_name_H-M    "P 1"
_symmetry_int_tables_number       1

loop_
  _symmetry_equiv_pos_as_xyz
  'x, y, z'

loop_
  _atom_site_label
  _atom_site_occupancy
  _atom_site_fract_x
  _atom_site_fract_y
  _atom_site_fract_z
  _atom_site_thermal_displace_type
  _atom_site_B_iso_or_equiv
  _atom_site_type_symbol
  C1       1.0000 0.38250  0.36455  0.30512  Biso   1.000  C
  C2       1.0000 0.39621  0.31838  0.33769  Biso   1.000  C
  H1       1.0000 0.40418  0.37371  0.27399  Biso   1.000  H
  C3       1.0000 0.33769  0.39621  0.31838  Biso   1.000  C
  C4       1.0000 0.36455  0.30512  0.38250  Biso   1.000  C
  C5       1.0000 0.44439  0.28429  0.32389  Biso   1.000  C
  C6       1.0000 0.30512  0.38250  0.36455  Biso   1.000  C
  C7       1.0000 0.32389  0.44439  0.28429  Biso   1.000  C
  H2       1.0000 0.37371  0.27399  0.40418  Biso   1.000  H
  C8       1.0000 0.31838  0.33769  0.39621  Biso   1.000  C
  N1       1.0000 0.47955  0.29830  0.28729  Biso   1.000  N
  H3       1.0000 0.44961  0.25062  0.34290  Biso   1.000  H
  H4       1.0000 0.27399  0.40418  0.37371  Biso   1.000  H
  N2       1.0000 0.28729  0.47955  0.29830  Biso   1.000  N
  H5       1.0000 0.34290  0.44961  0.25062  Biso   1.000  H
  C9       1.0000 0.28429  0.32389  0.44439  Biso   1.000  C
  C10      1.0000 0.52538  0.26068  0.27928  Biso   1.000  C
  C11      1.0000 0.27928  0.52538  0.26068  Biso   1.000  C
  N3       1.0000 0.29830  0.28729  0.47955  Biso   1.000  N
  H6       1.0000 0.25062  0.34290  0.44961  Biso   1.000  H
  C12      1.0000 0.52538  0.23928  0.22072  Biso   1.000  C
  H7       1.0000 0.52218  0.22959  0.30528  Biso   1.000  H
  H8       1.0000 0.56042  0.27998  0.28688  Biso   1.000  H
  H9       1.0000 0.30528  0.52218  0.22959  Biso   1.000  H
  H10      1.0000 0.28688  0.56042  0.27998  Biso   1.000  H
  C13      1.0000 0.22072  0.52538  0.23928  Biso   1.000  C
  C14      1.0000 0.26068  0.27928  0.52538  Biso   1.000  C
  N4       1.0000 0.47955  0.20170  0.21271  Biso   1.000  N
  H11      1.0000 0.52218  0.27041  0.19472  Biso   1.000  H
  H12      1.0000 0.56042  0.22002  0.21312  Biso   1.000  H
  N5       1.0000 0.21271  0.47955  0.20170  Biso   1.000  N
  H13      1.0000 0.19472  0.52218  0.27041  Biso   1.000  H
  H14      1.0000 0.21312  0.56042  0.22002  Biso   1.000  H
  H15      1.0000 0.22959  0.30528  0.52218  Biso   1.000  H
  H16      1.0000 0.27998  0.28688  0.56042  Biso   1.000  H
  C15      1.0000 0.23928  0.22072  0.52538  Biso   1.000  C
  C16      1.0000 0.44439  0.21571  0.17611  Biso   1.000  C
  C17      1.0000 0.17611  0.44439  0.21571  Biso   1.000  C
  N6       1.0000 0.20170  0.21271  0.47955  Biso   1.000  N
  H17      1.0000 0.27041  0.19472  0.52218  Biso   1.000  H
  H18      1.0000 0.22002  0.21312  0.56042  Biso   1.000  H
  C18      1.0000 0.39621  0.18162  0.16227  Biso   1.000  C
  H19      1.0000 0.44961  0.24938  0.15710  Biso   1.000  H
  C19      1.0000 0.16227  0.39621  0.18162  Biso   1.000  C
  H20      1.0000 0.15710  0.44961  0.24938  Biso   1.000  H
  C20      1.0000 0.21571  0.17611  0.44439  Biso   1.000  C
  C21      1.0000 0.36455  0.19488  0.11750  Biso   1.000  C
  C22      1.0000 0.38250  0.13541  0.19488  Biso   1.000  C
  C23      1.0000 0.19488  0.38250  0.13541  Biso   1.000  C
  C24      1.0000 0.11750  0.36455  0.19488  Biso   1.000  C
  C25      1.0000 0.18162  0.16227  0.39621  Biso   1.000  C
  H21      1.0000 0.24938  0.15710  0.44961  Biso   1.000  H
  H22      1.0000 0.37371  0.22601  0.09582  Biso   1.000  H
  C26      1.0000 0.31838  0.16227  0.10379  Biso   1.000  C
  H23      1.0000 0.40418  0.12629  0.22601  Biso   1.000  H
  C27      1.0000 0.33769  0.10379  0.18162  Biso   1.000  C
  H24      1.0000 0.22601  0.40418  0.12629  Biso   1.000  H
  C28      1.0000 0.18162  0.33769  0.10379  Biso   1.000  C
  H25      1.0000 0.09582  0.37371  0.22601  Biso   1.000  H
  C29      1.0000 0.10379  0.31838  0.16227  Biso   1.000  C
  C30      1.0000 0.19488  0.11750  0.36455  Biso   1.000  C
  C31      1.0000 0.13541  0.19488  0.38250  Biso   1.000  C
  C32      1.0000 0.30512  0.11750  0.13541  Biso   1.000  C
  C33      1.0000 0.28429  0.17611  0.05561  Biso   1.000  C
  C34      1.0000 0.32389  0.05561  0.21571  Biso   1.000  C
  C35      1.0000 0.21571  0.32389  0.05561  Biso   1.000  C
  C36      1.0000 0.13541  0.30512  0.11750  Biso   1.000  C
  C37      1.0000 0.05561  0.28429  0.17611  Biso   1.000  C
  C38      1.0000 0.16227  0.10379  0.31838  Biso   1.000  C
  H26      1.0000 0.22601  0.09582  0.37371  Biso   1.000  H
  H27      1.0000 0.12629  0.22601  0.40418  Biso   1.000  H
  C39      1.0000 0.10379  0.18162  0.33769  Biso   1.000  C
  H28      1.0000 0.27399  0.09582  0.12629  Biso   1.000  H
  N7       1.0000 0.29830  0.21271  0.02045  Biso   1.000  N
  H29      1.0000 0.25062  0.15710  0.05039  Biso   1.000  H
  N8       1.0000 0.28729  0.02045  0.20170  Biso   1.000  N
  H30      1.0000 0.34290  0.05039  0.24938  Biso   1.000  H
  N9       1.0000 0.20170  0.28729  0.02045  Biso   1.000  N
  H31      1.0000 0.24938  0.34290  0.05039  Biso   1.000  H
  H32      1.0000 0.12629  0.27399  0.09582  Biso   1.000  H
  N10      1.0000 0.02045  0.29830  0.21271  Biso   1.000  N
  H33      1.0000 0.05039  0.25062  0.15710  Biso   1.000  H
  C40      1.0000 0.11750  0.13541  0.30512  Biso   1.000  C
  C41      1.0000 0.17611  0.05561  0.28429  Biso   1.000  C
  C42      1.0000 0.05561  0.21571  0.32389  Biso   1.000  C
  C43      1.0000 0.26068  0.22072  0.97462  Biso   1.000  C
  C44      1.0000 0.27928  0.97462  0.23928  Biso   1.000  C
  C45      1.0000 0.23928  0.27928  0.97462  Biso   1.000  C
  C46      1.0000 0.97462  0.26068  0.22072  Biso   1.000  C
  H34      1.0000 0.09582  0.12629  0.27399  Biso   1.000  H
  N11      1.0000 0.21271  0.02045  0.29830  Biso   1.000  N
  H35      1.0000 0.15710  0.05039  0.25062  Biso   1.000  H
  N12      1.0000 0.02045  0.20170  0.28729  Biso   1.000  N
  H36      1.0000 0.05039  0.24938  0.34290  Biso   1.000  H
  H37      1.0000 0.22959  0.19472  0.97778  Biso   1.000  H
  H38      1.0000 0.27998  0.21312  0.93958  Biso   1.000  H
  H39      1.0000 0.30528  0.97778  0.27041  Biso   1.000  H
  H40      1.0000 0.28688  0.93958  0.22002  Biso   1.000  H
  C47      1.0000 0.22072  0.97462  0.26068  Biso   1.000  C
  H41      1.0000 0.27041  0.30528  0.97778  Biso   1.000  H
  H42      1.0000 0.22002  0.28688  0.93958  Biso   1.000  H
  C48      1.0000 0.97462  0.23928  0.27928  Biso   1.000  C
  H43      1.0000 0.97778  0.22959  0.19472  Biso   1.000  H
  H44      1.0000 0.93958  0.27998  0.21312  Biso   1.000  H
  H45      1.0000 0.19472  0.97778  0.22959  Biso   1.000  H
  H46      1.0000 0.21312  0.93958  0.27998  Biso   1.000  H
  H47      1.0000 0.97778  0.27041  0.30528  Biso   1.000  H
  H48      1.0000 0.93958  0.22002  0.28688  Biso   1.000  H
  C49      1.0000 0.43199  0.41334  0.14576  Biso   1.000  C
  C50      1.0000 0.44501  0.36796  0.11377  Biso   1.000  C
  C51      1.0000 0.46554  0.42562  0.19435  Biso   1.000  C
  C52      1.0000 0.38623  0.44501  0.13200  Biso   1.000  C
  H49      1.0000 0.47589  0.34598  0.12309  Biso   1.000  H
  C53      1.0000 0.41334  0.35424  0.06801  Biso   1.000  C
  N13      1.0000 0.45326  0.46386  0.22803  Biso   1.000  N
  H50      1.0000 0.49758  0.40430  0.20088  Biso   1.000  H
  C54      1.0000 0.35424  0.43199  0.08662  Biso   1.000  C
  H51      1.0000 0.37691  0.47589  0.15398  Biso   1.000  H
  C55      1.0000 0.42562  0.30565  0.03446  Biso   1.000  C
  C56      1.0000 0.36796  0.38623  0.05495  Biso   1.000  C
  C57      1.0000 0.42562  0.30565  0.03442  Biso   1.000  C
  C58      1.0000 0.48940  0.47059  0.27526  Biso   1.000  C
  C59      1.0000 0.30565  0.46554  0.07438  Biso   1.000  C
  H52      1.0000 0.34598  0.37691  0.02411  Biso   1.000  H
  H53      1.0000 0.40430  0.29908  0.00238  Biso   1.000  H
  N14      1.0000 0.46386  0.27197  0.04670  Biso   1.000  N
  C60      1.0000 0.51056  0.52941  0.27526  Biso   1.000  C
  H54      1.0000 0.46899  0.46308  0.30959  Biso   1.000  H
  H55      1.0000 0.52049  0.44460  0.27288  Biso   1.000  H
  H56      1.0000 0.29908  0.49758  0.09570  Biso   1.000  H
  N15      1.0000 0.27197  0.45326  0.03614  Biso   1.000  N
  N16      1.0000 0.27197  0.45326  0.03610  Biso   1.000  N
  C61      1.0000 0.47059  0.22474  0.01060  Biso   1.000  C
  C62      1.0000 0.47059  0.22474  0.01056  Biso   1.000  C
  N17      1.0000 0.54670  0.53614  0.22803  Biso   1.000  N
  H57      1.0000 0.53101  0.53688  0.30959  Biso   1.000  H
  H58      1.0000 0.47951  0.55540  0.27288  Biso   1.000  H
  C63      1.0000 0.22474  0.48940  0.02941  Biso   1.000  C
  H59      1.0000 0.46308  0.19041  0.03101  Biso   1.000  H
  C64      1.0000 0.52941  0.22474  0.98940  Biso   1.000  C
  H60      1.0000 0.44460  0.22708  0.97951  Biso   1.000  H
  C65      1.0000 0.53442  0.57438  0.19435  Biso   1.000  C
  H61      1.0000 0.22708  0.52049  0.05540  Biso   1.000  H
  H62      1.0000 0.19041  0.46899  0.03688  Biso   1.000  H
  C66      1.0000 0.22474  0.51056  0.97059  Biso   1.000  C
  H63      1.0000 0.55540  0.22708  0.02049  Biso   1.000  H
  N18      1.0000 0.53614  0.27197  0.95326  Biso   1.000  N
  H64      1.0000 0.53688  0.19041  0.96899  Biso   1.000  H
  C67      1.0000 0.56801  0.58662  0.14576  Biso   1.000  C
  H65      1.0000 0.50238  0.59570  0.20088  Biso   1.000  H
  N19      1.0000 0.27197  0.54670  0.96386  Biso   1.000  N
  H66      1.0000 0.22708  0.47951  0.94460  Biso   1.000  H
  H67      1.0000 0.19041  0.53101  0.96312  Biso   1.000  H
  H68      1.0000 0.19041  0.53101  0.96308  Biso   1.000  H
  C68      1.0000 0.57438  0.30565  0.96554  Biso   1.000  C
  C69      1.0000 0.55499  0.63204  0.11377  Biso   1.000  C
  C70      1.0000 0.61377  0.55499  0.13200  Biso   1.000  C
  C71      1.0000 0.30565  0.53442  0.92562  Biso   1.000  C
  C72      1.0000 0.58662  0.35424  0.93199  Biso   1.000  C
  H69      1.0000 0.59570  0.29908  0.99758  Biso   1.000  H
  C73      1.0000 0.58662  0.64576  0.06801  Biso   1.000  C
  H70      1.0000 0.52411  0.65398  0.12309  Biso   1.000  H
  C74      1.0000 0.64576  0.56801  0.08662  Biso   1.000  C
  H71      1.0000 0.62309  0.52411  0.15398  Biso   1.000  H
  H72      1.0000 0.29908  0.50238  0.90430  Biso   1.000  H
  C75      1.0000 0.35424  0.56801  0.91334  Biso   1.000  C
  C76      1.0000 0.63204  0.38623  0.94501  Biso   1.000  C
  C77      1.0000 0.55499  0.36796  0.88623  Biso   1.000  C
  C78      1.0000 0.57438  0.69435  0.03446  Biso   1.000  C
  C79      1.0000 0.63204  0.61377  0.05495  Biso   1.000  C
  C80      1.0000 0.57438  0.69435  0.03442  Biso   1.000  C
  C81      1.0000 0.69435  0.53442  0.07438  Biso   1.000  C
  C82      1.0000 0.36796  0.61377  0.94501  Biso   1.000  C
  C83      1.0000 0.38623  0.55499  0.86796  Biso   1.000  C
  H73      1.0000 0.65398  0.37691  0.97589  Biso   1.000  H
  C84      1.0000 0.64576  0.43199  0.91334  Biso   1.000  C
  H74      1.0000 0.52411  0.34598  0.87691  Biso   1.000  H
  C85      1.0000 0.56801  0.41334  0.85424  Biso   1.000  C
  H75      1.0000 0.65398  0.62309  0.02411  Biso   1.000  H
  H76      1.0000 0.59570  0.70088  0.00238  Biso   1.000  H
  N20      1.0000 0.53614  0.72803  0.04670  Biso   1.000  N
  H77      1.0000 0.70088  0.50238  0.09570  Biso   1.000  H
  N21      1.0000 0.72803  0.54670  0.03614  Biso   1.000  N
  N22      1.0000 0.72803  0.54670  0.03610  Biso   1.000  N
  H78      1.0000 0.34598  0.62309  0.97589  Biso   1.000  H
  C86      1.0000 0.41334  0.64576  0.93199  Biso   1.000  C
  C87      1.0000 0.43199  0.58662  0.85424  Biso   1.000  C
  H79      1.0000 0.37691  0.52411  0.84598  Biso   1.000  H
  C88      1.0000 0.61377  0.44501  0.86796  Biso   1.000  C
  C89      1.0000 0.69435  0.46554  0.92562  Biso   1.000  C
  C90      1.0000 0.53442  0.42562  0.80565  Biso   1.000  C
  C91      1.0000 0.52941  0.77526  0.01060  Biso   1.000  C
  C92      1.0000 0.52941  0.77526  0.01056  Biso   1.000  C
  C93      1.0000 0.77526  0.51056  0.02941  Biso   1.000  C
  C94      1.0000 0.42562  0.69435  0.96554  Biso   1.000  C
  C95      1.0000 0.44501  0.63204  0.88623  Biso   1.000  C
  C96      1.0000 0.46554  0.57438  0.80565  Biso   1.000  C
  H80      1.0000 0.62309  0.47589  0.84598  Biso   1.000  H
  N23      1.0000 0.72803  0.45326  0.96386  Biso   1.000  N
  H81      1.0000 0.70088  0.49758  0.90430  Biso   1.000  H
  N24      1.0000 0.54670  0.46386  0.77197  Biso   1.000  N
  H82      1.0000 0.50238  0.40430  0.79912  Biso   1.000  H
  H83      1.0000 0.50238  0.40430  0.79908  Biso   1.000  H
  H84      1.0000 0.53688  0.80959  0.03101  Biso   1.000  H
  H85      1.0000 0.55540  0.77288  0.97951  Biso   1.000  H
  C97      1.0000 0.47059  0.77526  0.98940  Biso   1.000  C
  C98      1.0000 0.77526  0.48940  0.97059  Biso   1.000  C
  H86      1.0000 0.77288  0.47951  0.05540  Biso   1.000  H
  H87      1.0000 0.80959  0.53101  0.03688  Biso   1.000  H
  N25      1.0000 0.46386  0.72803  0.95326  Biso   1.000  N
  H88      1.0000 0.40430  0.70088  0.99758  Biso   1.000  H
  H89      1.0000 0.47589  0.65398  0.87691  Biso   1.000  H
  N26      1.0000 0.45326  0.53614  0.77197  Biso   1.000  N
  H90      1.0000 0.49758  0.59570  0.79912  Biso   1.000  H
  H91      1.0000 0.49758  0.59570  0.79908  Biso   1.000  H
  C99      1.0000 0.51056  0.47059  0.72474  Biso   1.000  C
  H92      1.0000 0.44460  0.77288  0.02049  Biso   1.000  H
  H93      1.0000 0.46308  0.80959  0.96899  Biso   1.000  H
  H94      1.0000 0.77288  0.52049  0.94460  Biso   1.000  H
  H95      1.0000 0.80959  0.46899  0.96312  Biso   1.000  H
  H96      1.0000 0.80959  0.46899  0.96308  Biso   1.000  H
  C100     1.0000 0.48940  0.52941  0.72474  Biso   1.000  C
  H97      1.0000 0.47951  0.44460  0.72708  Biso   1.000  H
  H98      1.0000 0.53101  0.46308  0.69041  Biso   1.000  H
  H99      1.0000 0.52049  0.55540  0.72708  Biso   1.000  H
  H100     1.0000 0.46899  0.53688  0.69041  Biso   1.000  H
  C101     1.0000 0.41334  0.14576  0.43199  Biso   1.000  C
  C102     1.0000 0.44501  0.13200  0.38623  Biso   1.000  C
  C103     1.0000 0.36796  0.11377  0.44501  Biso   1.000  C
  C104     1.0000 0.42562  0.19435  0.46554  Biso   1.000  C
  C105     1.0000 0.43199  0.08662  0.35424  Biso   1.000  C
  H101     1.0000 0.47589  0.15398  0.37691  Biso   1.000  H
  C106     1.0000 0.35424  0.06801  0.41334  Biso   1.000  C
  H102     1.0000 0.34598  0.12309  0.47589  Biso   1.000  H
  N27      1.0000 0.46386  0.22803  0.45326  Biso   1.000  N
  H103     1.0000 0.40430  0.20088  0.49758  Biso   1.000  H
  C107     1.0000 0.46554  0.07438  0.30565  Biso   1.000  C
  C108     1.0000 0.38623  0.05495  0.36796  Biso   1.000  C
  C109     1.0000 0.30565  0.03446  0.42562  Biso   1.000  C
  C110     1.0000 0.30565  0.03442  0.42562  Biso   1.000  C
  C111     1.0000 0.47059  0.27526  0.48940  Biso   1.000  C
  H104     1.0000 0.49758  0.09570  0.29908  Biso   1.000  H
  N28      1.0000 0.45326  0.03614  0.27197  Biso   1.000  N
  N29      1.0000 0.45326  0.03610  0.27197  Biso   1.000  N
  H105     1.0000 0.37691  0.02411  0.34598  Biso   1.000  H
  H106     1.0000 0.29908  0.00238  0.40430  Biso   1.000  H
  N30      1.0000 0.27197  0.04670  0.46386  Biso   1.000  N
  C112     1.0000 0.52941  0.27526  0.51056  Biso   1.000  C
  H107     1.0000 0.46308  0.30959  0.46899  Biso   1.000  H
  H108     1.0000 0.44460  0.27288  0.52049  Biso   1.000  H
  C113     1.0000 0.48940  0.02941  0.22474  Biso   1.000  C
  C114     1.0000 0.22474  0.01060  0.47059  Biso   1.000  C
  C115     1.0000 0.22474  0.01056  0.47059  Biso   1.000  C
  N31      1.0000 0.53614  0.22803  0.54670  Biso   1.000  N
  H109     1.0000 0.53688  0.30959  0.53101  Biso   1.000  H
  H110     1.0000 0.55540  0.27288  0.47951  Biso   1.000  H
  H111     1.0000 0.52049  0.05540  0.22708  Biso   1.000  H
  H112     1.0000 0.46899  0.03688  0.19041  Biso   1.000  H
  C116     1.0000 0.51056  0.97059  0.22474  Biso   1.000  C
  H113     1.0000 0.19041  0.03101  0.46308  Biso   1.000  H
  C117     1.0000 0.22474  0.98940  0.52941  Biso   1.000  C
  H114     1.0000 0.22708  0.97951  0.44460  Biso   1.000  H
  C118     1.0000 0.57438  0.19435  0.53442  Biso   1.000  C
  N32      1.0000 0.54670  0.96386  0.27197  Biso   1.000  N
  H115     1.0000 0.47951  0.94460  0.22708  Biso   1.000  H
  H116     1.0000 0.53101  0.96312  0.19041  Biso   1.000  H
  H117     1.0000 0.53101  0.96308  0.19041  Biso   1.000  H
  H118     1.0000 0.22708  0.02049  0.55540  Biso   1.000  H
  N33      1.0000 0.27197  0.95326  0.53614  Biso   1.000  N
  H119     1.0000 0.19041  0.96899  0.53688  Biso   1.000  H
  C119     1.0000 0.58662  0.14576  0.56801  Biso   1.000  C
  H120     1.0000 0.59570  0.20088  0.50238  Biso   1.000  H
  C120     1.0000 0.53442  0.92562  0.30565  Biso   1.000  C
  C121     1.0000 0.30565  0.96554  0.57438  Biso   1.000  C
  C122     1.0000 0.63204  0.11377  0.55499  Biso   1.000  C
  C123     1.0000 0.55499  0.13200  0.61377  Biso   1.000  C
  H121     1.0000 0.50238  0.90430  0.29908  Biso   1.000  H
  C124     1.0000 0.56801  0.91334  0.35424  Biso   1.000  C
  C125     1.0000 0.35424  0.93199  0.58662  Biso   1.000  C
  H122     1.0000 0.29908  0.99758  0.59570  Biso   1.000  H
  C126     1.0000 0.64576  0.06801  0.58662  Biso   1.000  C
  H123     1.0000 0.65398  0.12309  0.52411  Biso   1.000  H
  C127     1.0000 0.56801  0.08662  0.64576  Biso   1.000  C
  H124     1.0000 0.52411  0.15398  0.62309  Biso   1.000  H
  C128     1.0000 0.61377  0.94501  0.36796  Biso   1.000  C
  C129     1.0000 0.55499  0.86796  0.38623  Biso   1.000  C
  C130     1.0000 0.38623  0.94501  0.63204  Biso   1.000  C
  C131     1.0000 0.36796  0.88623  0.55499  Biso   1.000  C
  C132     1.0000 0.69435  0.03446  0.57438  Biso   1.000  C
  C133     1.0000 0.61377  0.05495  0.63204  Biso   1.000  C
  C134     1.0000 0.69435  0.03442  0.57438  Biso   1.000  C
  C135     1.0000 0.53442  0.07438  0.69435  Biso   1.000  C
  H125     1.0000 0.62309  0.97589  0.34598  Biso   1.000  H
  C136     1.0000 0.64576  0.93199  0.41334  Biso   1.000  C
  C137     1.0000 0.58662  0.85424  0.43199  Biso   1.000  C
  H126     1.0000 0.52411  0.84598  0.37691  Biso   1.000  H
  H127     1.0000 0.37691  0.97589  0.65398  Biso   1.000  H
  C138     1.0000 0.43199  0.91334  0.64576  Biso   1.000  C
  H128     1.0000 0.34598  0.87691  0.52411  Biso   1.000  H
  C139     1.0000 0.41334  0.85424  0.56801  Biso   1.000  C
  H129     1.0000 0.62309  0.02411  0.65398  Biso   1.000  H
  H130     1.0000 0.70088  0.00238  0.59570  Biso   1.000  H
  N34      1.0000 0.72803  0.04670  0.53614  Biso   1.000  N
  H131     1.0000 0.50238  0.09570  0.70088  Biso   1.000  H
  N35      1.0000 0.54670  0.03614  0.72803  Biso   1.000  N
  N36      1.0000 0.54670  0.03610  0.72803  Biso   1.000  N
  C140     1.0000 0.69435  0.96554  0.42562  Biso   1.000  C
  C141     1.0000 0.63204  0.88623  0.44501  Biso   1.000  C
  C142     1.0000 0.57438  0.80565  0.46554  Biso   1.000  C
  C143     1.0000 0.44501  0.86796  0.61377  Biso   1.000  C
  C144     1.0000 0.46554  0.92562  0.69435  Biso   1.000  C
  C145     1.0000 0.42562  0.80565  0.53442  Biso   1.000  C
  C146     1.0000 0.77526  0.01060  0.52941  Biso   1.000  C
  C147     1.0000 0.77526  0.01056  0.52941  Biso   1.000  C
  C148     1.0000 0.51056  0.02941  0.77526  Biso   1.000  C
  N37      1.0000 0.72803  0.95326  0.46386  Biso   1.000  N
  H132     1.0000 0.70088  0.99758  0.40430  Biso   1.000  H
  H133     1.0000 0.65398  0.87691  0.47589  Biso   1.000  H
  N38      1.0000 0.53614  0.77197  0.45326  Biso   1.000  N
  H134     1.0000 0.59570  0.79912  0.49758  Biso   1.000  H
  H135     1.0000 0.59570  0.79908  0.49758  Biso   1.000  H
  H136     1.0000 0.47589  0.84598  0.62309  Biso   1.000  H
  N39      1.0000 0.45326  0.96386  0.72803  Biso   1.000  N
  H137     1.0000 0.49758  0.90430  0.70088  Biso   1.000  H
  N40      1.0000 0.46386  0.77197  0.54670  Biso   1.000  N
  H138     1.0000 0.40430  0.79912  0.50238  Biso   1.000  H
  H139     1.0000 0.40430  0.79908  0.50238  Biso   1.000  H
  C149     1.0000 0.77526  0.98940  0.47059  Biso   1.000  C
  H140     1.0000 0.80959  0.03101  0.53688  Biso   1.000  H
  H141     1.0000 0.77288  0.97951  0.55540  Biso   1.000  H
  C150     1.0000 0.48940  0.97059  0.77526  Biso   1.000  C
  H142     1.0000 0.47951  0.05540  0.77288  Biso   1.000  H
  H143     1.0000 0.53101  0.03688  0.80959  Biso   1.000  H
  C151     1.0000 0.52941  0.72474  0.48940  Biso   1.000  C
  C152     1.0000 0.47059  0.72474  0.51056  Biso   1.000  C
  H144     1.0000 0.77288  0.02049  0.44460  Biso   1.000  H
  H145     1.0000 0.80959  0.96899  0.46308  Biso   1.000  H
  H146     1.0000 0.52049  0.94460  0.77288  Biso   1.000  H
  H147     1.0000 0.46899  0.96312  0.80959  Biso   1.000  H
  H148     1.0000 0.46899  0.96308  0.80959  Biso   1.000  H
  H149     1.0000 0.55540  0.72708  0.52049  Biso   1.000  H
  H150     1.0000 0.53688  0.69041  0.46899  Biso   1.000  H
  H151     1.0000 0.44460  0.72708  0.47951  Biso   1.000  H
  H152     1.0000 0.46308  0.69041  0.53101  Biso   1.000  H
  C153     1.0000 0.14576  0.43199  0.41334  Biso   1.000  C
  C154     1.0000 0.11377  0.44501  0.36796  Biso   1.000  C
  C155     1.0000 0.19435  0.46554  0.42562  Biso   1.000  C
  C156     1.0000 0.13200  0.38623  0.44501  Biso   1.000  C
  H153     1.0000 0.12309  0.47589  0.34598  Biso   1.000  H
  C157     1.0000 0.06801  0.41334  0.35424  Biso   1.000  C
  N41      1.0000 0.22803  0.45326  0.46386  Biso   1.000  N
  H154     1.0000 0.20088  0.49758  0.40430  Biso   1.000  H
  C158     1.0000 0.08662  0.35424  0.43199  Biso   1.000  C
  H155     1.0000 0.15398  0.37691  0.47589  Biso   1.000  H
  C159     1.0000 0.03446  0.42562  0.30565  Biso   1.000  C
  C160     1.0000 0.05495  0.36796  0.38623  Biso   1.000  C
  C161     1.0000 0.03442  0.42562  0.30565  Biso   1.000  C
  C162     1.0000 0.27526  0.48940  0.47059  Biso   1.000  C
  C163     1.0000 0.07438  0.30565  0.46554  Biso   1.000  C
  H156     1.0000 0.02411  0.34598  0.37691  Biso   1.000  H
  H157     1.0000 0.00238  0.40430  0.29908  Biso   1.000  H
  N42      1.0000 0.04670  0.46386  0.27197  Biso   1.000  N
  C164     1.0000 0.27526  0.51056  0.52941  Biso   1.000  C
  H158     1.0000 0.30959  0.46899  0.46308  Biso   1.000  H
  H159     1.0000 0.27288  0.52049  0.44460  Biso   1.000  H
  H160     1.0000 0.09570  0.29908  0.49758  Biso   1.000  H
  N43      1.0000 0.03614  0.27197  0.45326  Biso   1.000  N
  N44      1.0000 0.03610  0.27197  0.45326  Biso   1.000  N
  C165     1.0000 0.01060  0.47059  0.22474  Biso   1.000  C
  C166     1.0000 0.01056  0.47059  0.22474  Biso   1.000  C
  N45      1.0000 0.22803  0.54670  0.53614  Biso   1.000  N
  H161     1.0000 0.30959  0.53101  0.53688  Biso   1.000  H
  H162     1.0000 0.27288  0.47951  0.55540  Biso   1.000  H
  C167     1.0000 0.02941  0.22474  0.48940  Biso   1.000  C
  H163     1.0000 0.03101  0.46308  0.19041  Biso   1.000  H
  C168     1.0000 0.98940  0.52941  0.22474  Biso   1.000  C
  H164     1.0000 0.97951  0.44460  0.22708  Biso   1.000  H
  C169     1.0000 0.19435  0.53442  0.57438  Biso   1.000  C
  H165     1.0000 0.05540  0.22708  0.52049  Biso   1.000  H
  H166     1.0000 0.03688  0.19041  0.46899  Biso   1.000  H
  C170     1.0000 0.97059  0.22474  0.51056  Biso   1.000  C
  H167     1.0000 0.02049  0.55540  0.22708  Biso   1.000  H
  N46      1.0000 0.95326  0.53614  0.27197  Biso   1.000  N
  H168     1.0000 0.96899  0.53688  0.19041  Biso   1.000  H
  C171     1.0000 0.14576  0.56801  0.58662  Biso   1.000  C
  H169     1.0000 0.20088  0.50238  0.59570  Biso   1.000  H
  N47      1.0000 0.96386  0.27197  0.54670  Biso   1.000  N
  H170     1.0000 0.94460  0.22708  0.47951  Biso   1.000  H
  H171     1.0000 0.96312  0.19041  0.53101  Biso   1.000  H
  H172     1.0000 0.96308  0.19041  0.53101  Biso   1.000  H
  C172     1.0000 0.96554  0.57438  0.30565  Biso   1.000  C
  C173     1.0000 0.11377  0.55499  0.63204  Biso   1.000  C
  C174     1.0000 0.13200  0.61377  0.55499  Biso   1.000  C
  C175     1.0000 0.92562  0.30565  0.53442  Biso   1.000  C
  C176     1.0000 0.93199  0.58662  0.35424  Biso   1.000  C
  H173     1.0000 0.99758  0.59570  0.29908  Biso   1.000  H
  C177     1.0000 0.06801  0.58662  0.64576  Biso   1.000  C
  H174     1.0000 0.12309  0.52411  0.65398  Biso   1.000  H
  C178     1.0000 0.08662  0.64576  0.56801  Biso   1.000  C
  H175     1.0000 0.15398  0.62309  0.52411  Biso   1.000  H
  H176     1.0000 0.90430  0.29908  0.50238  Biso   1.000  H
  C179     1.0000 0.91334  0.35424  0.56801  Biso   1.000  C
  C180     1.0000 0.94501  0.63204  0.38623  Biso   1.000  C
  C181     1.0000 0.88623  0.55499  0.36796  Biso   1.000  C
  C182     1.0000 0.03446  0.57438  0.69435  Biso   1.000  C
  C183     1.0000 0.05495  0.63204  0.61377  Biso   1.000  C
  C184     1.0000 0.03442  0.57438  0.69435  Biso   1.000  C
  C185     1.0000 0.07438  0.69435  0.53442  Biso   1.000  C
  C186     1.0000 0.94501  0.36796  0.61377  Biso   1.000  C
  C187     1.0000 0.86796  0.38623  0.55499  Biso   1.000  C
  H177     1.0000 0.97589  0.65398  0.37691  Biso   1.000  H
  C188     1.0000 0.91334  0.64576  0.43199  Biso   1.000  C
  H178     1.0000 0.87691  0.52411  0.34598  Biso   1.000  H
  C189     1.0000 0.85424  0.56801  0.41334  Biso   1.000  C
  H179     1.0000 0.02411  0.65398  0.62309  Biso   1.000  H
  H180     1.0000 0.00238  0.59570  0.70088  Biso   1.000  H
  N48      1.0000 0.04670  0.53614  0.72803  Biso   1.000  N
  H181     1.0000 0.09570  0.70088  0.50238  Biso   1.000  H
  N49      1.0000 0.03614  0.72803  0.54670  Biso   1.000  N
  N50      1.0000 0.03610  0.72803  0.54670  Biso   1.000  N
  H182     1.0000 0.97589  0.34598  0.62309  Biso   1.000  H
  C190     1.0000 0.93199  0.41334  0.64576  Biso   1.000  C
  C191     1.0000 0.85424  0.43199  0.58662  Biso   1.000  C
  H183     1.0000 0.84598  0.37691  0.52411  Biso   1.000  H
  C192     1.0000 0.86796  0.61377  0.44501  Biso   1.000  C
  C193     1.0000 0.92562  0.69435  0.46554  Biso   1.000  C
  C194     1.0000 0.80565  0.53442  0.42562  Biso   1.000  C
  C195     1.0000 0.01060  0.52941  0.77526  Biso   1.000  C
  C196     1.0000 0.01056  0.52941  0.77526  Biso   1.000  C
  C197     1.0000 0.02941  0.77526  0.51056  Biso   1.000  C
  C198     1.0000 0.96554  0.42562  0.69435  Biso   1.000  C
  C199     1.0000 0.88623  0.44501  0.63204  Biso   1.000  C
  C200     1.0000 0.80565  0.46554  0.57438  Biso   1.000  C
  H184     1.0000 0.84598  0.62309  0.47589  Biso   1.000  H
  N51      1.0000 0.96386  0.72803  0.45326  Biso   1.000  N
  H185     1.0000 0.90430  0.70088  0.49758  Biso   1.000  H
  N52      1.0000 0.77197  0.54670  0.46386  Biso   1.000  N
  H186     1.0000 0.79912  0.50238  0.40430  Biso   1.000  H
  H187     1.0000 0.79908  0.50238  0.40430  Biso   1.000  H
  H188     1.0000 0.03101  0.53688  0.80959  Biso   1.000  H
  H189     1.0000 0.97951  0.55540  0.77288  Biso   1.000  H
  C201     1.0000 0.98940  0.47059  0.77526  Biso   1.000  C
  H190     1.0000 0.05540  0.77288  0.47951  Biso   1.000  H
  H191     1.0000 0.03688  0.80959  0.53101  Biso   1.000  H
  C202     1.0000 0.97059  0.77526  0.48940  Biso   1.000  C
  N53      1.0000 0.95326  0.46386  0.72803  Biso   1.000  N
  H192     1.0000 0.99758  0.40430  0.70088  Biso   1.000  H
  H193     1.0000 0.87691  0.47589  0.65398  Biso   1.000  H
  N54      1.0000 0.77197  0.45326  0.53614  Biso   1.000  N
  H194     1.0000 0.79912  0.49758  0.59570  Biso   1.000  H
  H195     1.0000 0.79908  0.49758  0.59570  Biso   1.000  H
  C203     1.0000 0.72474  0.51056  0.47059  Biso   1.000  C
  H196     1.0000 0.02049  0.44460  0.77288  Biso   1.000  H
  H197     1.0000 0.96899  0.46308  0.80959  Biso   1.000  H
  H198     1.0000 0.94460  0.77288  0.52049  Biso   1.000  H
  H199     1.0000 0.96312  0.80959  0.46899  Biso   1.000  H
  H200     1.0000 0.96308  0.80959  0.46899  Biso   1.000  H
  C204     1.0000 0.72474  0.48940  0.52941  Biso   1.000  C
  H201     1.0000 0.72708  0.47951  0.44460  Biso   1.000  H
  H202     1.0000 0.69041  0.53101  0.46308  Biso   1.000  H
  H203     1.0000 0.72708  0.52049  0.55540  Biso   1.000  H
  H204     1.0000 0.69041  0.46899  0.53688  Biso   1.000  H
  C205     1.0000 0.14576  0.06801  0.08662  Biso   1.000  C
  C206     1.0000 0.08662  0.14576  0.06801  Biso   1.000  C
  H205     1.0000 0.15398  0.12309  0.02411  Biso   1.000  H
  C207     1.0000 0.19435  0.03446  0.07438  Biso   1.000  C
  C208     1.0000 0.19435  0.03442  0.07438  Biso   1.000  C
  C209     1.0000 0.11377  0.05495  0.13200  Biso   1.000  C
  C210     1.0000 0.13200  0.11377  0.05495  Biso   1.000  C
  C211     1.0000 0.07438  0.19435  0.03446  Biso   1.000  C
  C212     1.0000 0.07438  0.19435  0.03442  Biso   1.000  C
  C213     1.0000 0.05495  0.13200  0.11377  Biso   1.000  C
  C214     1.0000 0.06801  0.08662  0.14576  Biso   1.000  C
  H206     1.0000 0.12309  0.02411  0.15398  Biso   1.000  H
  H207     1.0000 0.20088  0.00238  0.09570  Biso   1.000  H
  N55      1.0000 0.22803  0.04670  0.03614  Biso   1.000  N
  N56      1.0000 0.22803  0.04670  0.03610  Biso   1.000  N
  H208     1.0000 0.09570  0.20088  0.00238  Biso   1.000  H
  N57      1.0000 0.03614  0.22803  0.04670  Biso   1.000  N
  N58      1.0000 0.03610  0.22803  0.04670  Biso   1.000  N
  H209     1.0000 0.02411  0.15398  0.12309  Biso   1.000  H
  C215     1.0000 0.03446  0.07438  0.19435  Biso   1.000  C
  C216     1.0000 0.03442  0.07438  0.19435  Biso   1.000  C
  C217     1.0000 0.27526  0.01060  0.02941  Biso   1.000  C
  C218     1.0000 0.27526  0.01056  0.02941  Biso   1.000  C
  C219     1.0000 0.02941  0.27526  0.01060  Biso   1.000  C
  C220     1.0000 0.02941  0.27526  0.01056  Biso   1.000  C
  H210     1.0000 0.00238  0.09570  0.20088  Biso   1.000  H
  N59      1.0000 0.04670  0.03614  0.22803  Biso   1.000  N
  N60      1.0000 0.04670  0.03610  0.22803  Biso   1.000  N
  H211     1.0000 0.30959  0.03101  0.03688  Biso   1.000  H
  C221     1.0000 0.27526  0.98940  0.97059  Biso   1.000  C
  H212     1.0000 0.27288  0.97951  0.05540  Biso   1.000  H
  H213     1.0000 0.03688  0.30959  0.03101  Biso   1.000  H
  C222     1.0000 0.97059  0.27526  0.98940  Biso   1.000  C
  H214     1.0000 0.05540  0.27288  0.97951  Biso   1.000  H
  C223     1.0000 0.01060  0.02941  0.27526  Biso   1.000  C
  C224     1.0000 0.01056  0.02941  0.27526  Biso   1.000  C
  N61      1.0000 0.22803  0.95326  0.96386  Biso   1.000  N
  H215     1.0000 0.30959  0.96899  0.96312  Biso   1.000  H
  H216     1.0000 0.30959  0.96899  0.96308  Biso   1.000  H
  H217     1.0000 0.27288  0.02049  0.94460  Biso   1.000  H
  N62      1.0000 0.96386  0.22803  0.95326  Biso   1.000  N
  H218     1.0000 0.96312  0.30959  0.96899  Biso   1.000  H
  H219     1.0000 0.96308  0.30959  0.96899  Biso   1.000  H
  H220     1.0000 0.94460  0.27288  0.02049  Biso   1.000  H
  H221     1.0000 0.03101  0.03688  0.30959  Biso   1.000  H
  C225     1.0000 0.98940  0.97059  0.27526  Biso   1.000  C
  H222     1.0000 0.97951  0.05540  0.27288  Biso   1.000  H
  C226     1.0000 0.19435  0.96554  0.92562  Biso   1.000  C
  C227     1.0000 0.92562  0.19435  0.96554  Biso   1.000  C
  N63      1.0000 0.95326  0.96386  0.22803  Biso   1.000  N
  H223     1.0000 0.96899  0.96312  0.30959  Biso   1.000  H
  H224     1.0000 0.96899  0.96308  0.30959  Biso   1.000  H
  H225     1.0000 0.02049  0.94460  0.27288  Biso   1.000  H
  C228     1.0000 0.14576  0.93199  0.91334  Biso   1.000  C
  H226     1.0000 0.20088  0.99758  0.90430  Biso   1.000  H
  H227     1.0000 0.90430  0.20088  0.99758  Biso   1.000  H
  C229     1.0000 0.91334  0.14576  0.93199  Biso   1.000  C
  C230     1.0000 0.96554  0.92562  0.19435  Biso   1.000  C
  C231     1.0000 0.11377  0.94501  0.86796  Biso   1.000  C
  C232     1.0000 0.13200  0.88623  0.94501  Biso   1.000  C
  C233     1.0000 0.86796  0.11377  0.94501  Biso   1.000  C
  C234     1.0000 0.94501  0.13200  0.88623  Biso   1.000  C
  C235     1.0000 0.93199  0.91334  0.14576  Biso   1.000  C
  H228     1.0000 0.99758  0.90430  0.20088  Biso   1.000  H
  H229     1.0000 0.12309  0.97589  0.84598  Biso   1.000  H
  C236     1.0000 0.06801  0.91334  0.85424  Biso   1.000  C
  C237     1.0000 0.08662  0.85424  0.93199  Biso   1.000  C
  H230     1.0000 0.15398  0.87691  0.97589  Biso   1.000  H
  H231     1.0000 0.84598  0.12309  0.97589  Biso   1.000  H
  C238     1.0000 0.85424  0.06801  0.91334  Biso   1.000  C
  C239     1.0000 0.93199  0.08662  0.85424  Biso   1.000  C
  H232     1.0000 0.97589  0.15398  0.87691  Biso   1.000  H
  C240     1.0000 0.94501  0.86796  0.11377  Biso   1.000  C
  C241     1.0000 0.88623  0.94501  0.13200  Biso   1.000  C
  C242     1.0000 0.03446  0.92562  0.80565  Biso   1.000  C
  C243     1.0000 0.05495  0.86796  0.88623  Biso   1.000  C
  C244     1.0000 0.03442  0.92562  0.80565  Biso   1.000  C
  C245     1.0000 0.07438  0.80565  0.96554  Biso   1.000  C
  C246     1.0000 0.80565  0.03446  0.92562  Biso   1.000  C
  C247     1.0000 0.88623  0.05495  0.86796  Biso   1.000  C
  C248     1.0000 0.80565  0.03442  0.92562  Biso   1.000  C
  C249     1.0000 0.96554  0.07438  0.80565  Biso   1.000  C
  H233     1.0000 0.97589  0.84598  0.12309  Biso   1.000  H
  C250     1.0000 0.91334  0.85424  0.06801  Biso   1.000  C
  C251     1.0000 0.85424  0.93199  0.08662  Biso   1.000  C
  H234     1.0000 0.87691  0.97589  0.15398  Biso   1.000  H
  H235     1.0000 0.02411  0.84598  0.87691  Biso   1.000  H
  H236     1.0000 0.00238  0.90430  0.79912  Biso   1.000  H
  H237     1.0000 0.00238  0.90430  0.79908  Biso   1.000  H
  N64      1.0000 0.04670  0.96386  0.77197  Biso   1.000  N
  N65      1.0000 0.03614  0.77197  0.95326  Biso   1.000  N
  H238     1.0000 0.09570  0.79912  0.99758  Biso   1.000  H
  H239     1.0000 0.09570  0.79908  0.99758  Biso   1.000  H
  N66      1.0000 0.03610  0.77197  0.95326  Biso   1.000  N
  H240     1.0000 0.87691  0.02411  0.84598  Biso   1.000  H
  H241     1.0000 0.79912  0.00238  0.90430  Biso   1.000  H
  N67      1.0000 0.77197  0.04670  0.96386  Biso   1.000  N
  H242     1.0000 0.79908  0.00238  0.90430  Biso   1.000  H
  N68      1.0000 0.95326  0.03614  0.77197  Biso   1.000  N
  N69      1.0000 0.95326  0.03610  0.77197  Biso   1.000  N
  H243     1.0000 0.99758  0.09570  0.79912  Biso   1.000  H
  H244     1.0000 0.99758  0.09570  0.79908  Biso   1.000  H
  C252     1.0000 0.92562  0.80565  0.03446  Biso   1.000  C
  C253     1.0000 0.86796  0.88623  0.05495  Biso   1.000  C
  C254     1.0000 0.92562  0.80565  0.03442  Biso   1.000  C
  C255     1.0000 0.80565  0.96554  0.07438  Biso   1.000  C
  C256     1.0000 0.01060  0.97059  0.72474  Biso   1.000  C
  C257     1.0000 0.01056  0.97059  0.72474  Biso   1.000  C
  C258     1.0000 0.02941  0.72474  0.98940  Biso   1.000  C
  C259     1.0000 0.72474  0.01060  0.97059  Biso   1.000  C
  C260     1.0000 0.72474  0.01056  0.97059  Biso   1.000  C
  C261     1.0000 0.98940  0.02941  0.72474  Biso   1.000  C
  H245     1.0000 0.84598  0.87691  0.02411  Biso   1.000  H
  H246     1.0000 0.90430  0.79912  0.00238  Biso   1.000  H
  N70      1.0000 0.96386  0.77197  0.04670  Biso   1.000  N
  H247     1.0000 0.90430  0.79908  0.00238  Biso   1.000  H
  N71      1.0000 0.77197  0.95326  0.03614  Biso   1.000  N
  N72      1.0000 0.77197  0.95326  0.03610  Biso   1.000  N
  H248     1.0000 0.79912  0.99758  0.09570  Biso   1.000  H
  H249     1.0000 0.79908  0.99758  0.09570  Biso   1.000  H
  H250     1.0000 0.97951  0.94460  0.72708  Biso   1.000  H
  H251     1.0000 0.03101  0.96312  0.69041  Biso   1.000  H
  H252     1.0000 0.03101  0.96308  0.69041  Biso   1.000  H
  C262     1.0000 0.97059  0.72474  0.01060  Biso   1.000  C
  C263     1.0000 0.97059  0.72474  0.01056  Biso   1.000  C
  H253     1.0000 0.03688  0.69041  0.96899  Biso   1.000  H
  H254     1.0000 0.05540  0.72708  0.02049  Biso   1.000  H
  C264     1.0000 0.72474  0.98940  0.02941  Biso   1.000  C
  H255     1.0000 0.72708  0.97951  0.94460  Biso   1.000  H
  H256     1.0000 0.69041  0.03101  0.96312  Biso   1.000  H
  H257     1.0000 0.69041  0.03101  0.96308  Biso   1.000  H
  H258     1.0000 0.96899  0.03688  0.69041  Biso   1.000  H
  H259     1.0000 0.02049  0.05540  0.72708  Biso   1.000  H
  H260     1.0000 0.94460  0.72708  0.97951  Biso   1.000  H
  H261     1.0000 0.96312  0.69041  0.03101  Biso   1.000  H
  H262     1.0000 0.96308  0.69041  0.03101  Biso   1.000  H
  H263     1.0000 0.69041  0.96899  0.03688  Biso   1.000  H
  H264     1.0000 0.72708  0.02049  0.05540  Biso   1.000  H
  C265     1.0000 0.67611  0.55561  0.28429  Biso   1.000  C
  N73      1.0000 0.71271  0.52045  0.29830  Biso   1.000  N
  C266     1.0000 0.66227  0.60375  0.31838  Biso   1.000  C
  H265     1.0000 0.65710  0.55039  0.25062  Biso   1.000  H
  C267     1.0000 0.72068  0.47462  0.26068  Biso   1.000  C
  C268     1.0000 0.61750  0.63541  0.30512  Biso   1.000  C
  C269     1.0000 0.69488  0.61750  0.36455  Biso   1.000  C
  H266     1.0000 0.69468  0.47778  0.22959  Biso   1.000  H
  H267     1.0000 0.71308  0.43958  0.27998  Biso   1.000  H
  C270     1.0000 0.77928  0.47462  0.23928  Biso   1.000  C
  C271     1.0000 0.60375  0.68162  0.33769  Biso   1.000  C
  H268     1.0000 0.59578  0.62629  0.27399  Biso   1.000  H
  H269     1.0000 0.72601  0.59578  0.37371  Biso   1.000  H
  C272     1.0000 0.68162  0.66227  0.39621  Biso   1.000  C
  N74      1.0000 0.78729  0.52045  0.20170  Biso   1.000  N
  H270     1.0000 0.80528  0.47778  0.27041  Biso   1.000  H
  H271     1.0000 0.78688  0.43958  0.22002  Biso   1.000  H
  C273     1.0000 0.63541  0.69488  0.38250  Biso   1.000  C
  C274     1.0000 0.55561  0.71571  0.32389  Biso   1.000  C
  C275     1.0000 0.71571  0.67611  0.44439  Biso   1.000  C
  C276     1.0000 0.82389  0.55561  0.21571  Biso   1.000  C
  H272     1.0000 0.62629  0.72601  0.40418  Biso   1.000  H
  N75      1.0000 0.52045  0.70170  0.28729  Biso   1.000  N
  H273     1.0000 0.55039  0.74938  0.34290  Biso   1.000  H
  N76      1.0000 0.70170  0.71271  0.47955  Biso   1.000  N
  H274     1.0000 0.74938  0.65710  0.44961  Biso   1.000  H
  C277     1.0000 0.83769  0.60375  0.18162  Biso   1.000  C
  H275     1.0000 0.84290  0.55039  0.24938  Biso   1.000  H
  C278     1.0000 0.47462  0.73928  0.27928  Biso   1.000  C
  C279     1.0000 0.73928  0.72068  0.52538  Biso   1.000  C
  C280     1.0000 0.80508  0.61750  0.13541  Biso   1.000  C
  C281     1.0000 0.88245  0.63541  0.19488  Biso   1.000  C
  C282     1.0000 0.47462  0.76068  0.22072  Biso   1.000  C
  H276     1.0000 0.47778  0.77041  0.30528  Biso   1.000  H
  H277     1.0000 0.43958  0.71998  0.28688  Biso   1.000  H
  H278     1.0000 0.77041  0.69468  0.52218  Biso   1.000  H
  H279     1.0000 0.71998  0.71308  0.56042  Biso   1.000  H
  C283     1.0000 0.76068  0.77928  0.52538  Biso   1.000  C
  H280     1.0000 0.77399  0.59578  0.12629  Biso   1.000  H
  C284     1.0000 0.81838  0.66227  0.10379  Biso   1.000  C
  H281     1.0000 0.90418  0.62629  0.22601  Biso   1.000  H
  C285     1.0000 0.89621  0.68162  0.16227  Biso   1.000  C
  N77      1.0000 0.52045  0.79830  0.21271  Biso   1.000  N
  H282     1.0000 0.47778  0.72959  0.19472  Biso   1.000  H
  H283     1.0000 0.43958  0.77998  0.21312  Biso   1.000  H
  N78      1.0000 0.79830  0.78729  0.47955  Biso   1.000  N
  H284     1.0000 0.72959  0.80528  0.52218  Biso   1.000  H
  H285     1.0000 0.77998  0.78688  0.56042  Biso   1.000  H
  C286     1.0000 0.78429  0.67611  0.05561  Biso   1.000  C
  C287     1.0000 0.86455  0.69488  0.11750  Biso   1.000  C
  C288     1.0000 0.94439  0.71571  0.17611  Biso   1.000  C
  C289     1.0000 0.55561  0.78429  0.17611  Biso   1.000  C
  C290     1.0000 0.78429  0.82389  0.44439  Biso   1.000  C
  N79      1.0000 0.79830  0.71271  0.02045  Biso   1.000  N
  H286     1.0000 0.75057  0.65710  0.05039  Biso   1.000  H
  H287     1.0000 0.87371  0.72601  0.09582  Biso   1.000  H
  N80      1.0000 0.97955  0.70170  0.21271  Biso   1.000  N
  H288     1.0000 0.94961  0.74938  0.15710  Biso   1.000  H
  C291     1.0000 0.60375  0.81838  0.16227  Biso   1.000  C
  H289     1.0000 0.55039  0.75057  0.15710  Biso   1.000  H
  C292     1.0000 0.81838  0.83769  0.39621  Biso   1.000  C
  H290     1.0000 0.75057  0.84290  0.44961  Biso   1.000  H
  C293     1.0000 0.76068  0.72068  0.97462  Biso   1.000  C
  C294     1.0000 0.02538  0.73928  0.22072  Biso   1.000  C
  C295     1.0000 0.63541  0.80508  0.11750  Biso   1.000  C
  C296     1.0000 0.61750  0.86455  0.19488  Biso   1.000  C
  C297     1.0000 0.80508  0.88245  0.36455  Biso   1.000  C
  C298     1.0000 0.86455  0.80508  0.38250  Biso   1.000  C
  C299     1.0000 0.73928  0.77928  0.97462  Biso   1.000  C
  H291     1.0000 0.72959  0.69468  0.97778  Biso   1.000  H
  H292     1.0000 0.77998  0.71308  0.93958  Biso   1.000  H
  C300     1.0000 0.02538  0.76068  0.27928  Biso   1.000  C
  H293     1.0000 0.02218  0.77041  0.19472  Biso   1.000  H
  H294     1.0000 0.06037  0.71998  0.21312  Biso   1.000  H
  C301     1.0000 0.68162  0.83769  0.10379  Biso   1.000  C
  H295     1.0000 0.62629  0.77399  0.09582  Biso   1.000  H
  H296     1.0000 0.59578  0.87371  0.22601  Biso   1.000  H
  C302     1.0000 0.66227  0.89621  0.18162  Biso   1.000  C
  C303     1.0000 0.83769  0.89621  0.31838  Biso   1.000  C
  H297     1.0000 0.77399  0.90418  0.37371  Biso   1.000  H
  C304     1.0000 0.89621  0.81838  0.33769  Biso   1.000  C
  H298     1.0000 0.87371  0.77399  0.40418  Biso   1.000  H
  N81      1.0000 0.70170  0.78729  0.02045  Biso   1.000  N
  H299     1.0000 0.77041  0.80528  0.97778  Biso   1.000  H
  H300     1.0000 0.71998  0.78688  0.93958  Biso   1.000  H
  N82      1.0000 0.97955  0.79830  0.28729  Biso   1.000  N
  H301     1.0000 0.02218  0.72959  0.30528  Biso   1.000  H
  H302     1.0000 0.06037  0.77998  0.28688  Biso   1.000  H
  C305     1.0000 0.71571  0.82389  0.05561  Biso   1.000  C
  C306     1.0000 0.69488  0.88245  0.13541  Biso   1.000  C
  C307     1.0000 0.67611  0.94439  0.21571  Biso   1.000  C
  C308     1.0000 0.88245  0.86455  0.30512  Biso   1.000  C
  C309     1.0000 0.82389  0.94439  0.28429  Biso   1.000  C
  C310     1.0000 0.94439  0.78429  0.32389  Biso   1.000  C
  H303     1.0000 0.74938  0.84290  0.05039  Biso   1.000  H
  H304     1.0000 0.72601  0.90418  0.12629  Biso   1.000  H
  N83      1.0000 0.71271  0.97955  0.20170  Biso   1.000  N
  H305     1.0000 0.65710  0.94961  0.24938  Biso   1.000  H
  H306     1.0000 0.90418  0.87371  0.27399  Biso   1.000  H
  N84      1.0000 0.78729  0.97955  0.29830  Biso   1.000  N
  H307     1.0000 0.84290  0.94961  0.25062  Biso   1.000  H
  H308     1.0000 0.94961  0.75057  0.34290  Biso   1.000  H
  C311     1.0000 0.72068  0.02538  0.23928  Biso   1.000  C
  C312     1.0000 0.77928  0.02538  0.26068  Biso   1.000  C
  H309     1.0000 0.69468  0.02218  0.27041  Biso   1.000  H
  H310     1.0000 0.71308  0.06037  0.22002  Biso   1.000  H
  H311     1.0000 0.80528  0.02218  0.22959  Biso   1.000  H
  H312     1.0000 0.78688  0.06037  0.27998  Biso   1.000  H
  C313     1.0000 0.55561  0.28429  0.67611  Biso   1.000  C
  N85      1.0000 0.52045  0.29830  0.71271  Biso   1.000  N
  C314     1.0000 0.60375  0.31838  0.66227  Biso   1.000  C
  H313     1.0000 0.55039  0.25062  0.65710  Biso   1.000  H
  C315     1.0000 0.47462  0.26068  0.72068  Biso   1.000  C
  C316     1.0000 0.63541  0.30512  0.61750  Biso   1.000  C
  C317     1.0000 0.61750  0.36455  0.69488  Biso   1.000  C
  C318     1.0000 0.47462  0.23928  0.77928  Biso   1.000  C
  H314     1.0000 0.47778  0.22959  0.69468  Biso   1.000  H
  H315     1.0000 0.43958  0.27998  0.71308  Biso   1.000  H
  H316     1.0000 0.62629  0.27399  0.59578  Biso   1.000  H
  C319     1.0000 0.68162  0.33769  0.60375  Biso   1.000  C
  H317     1.0000 0.59578  0.37371  0.72601  Biso   1.000  H
  C320     1.0000 0.66227  0.39621  0.68162  Biso   1.000  C
  N86      1.0000 0.52045  0.20170  0.78729  Biso   1.000  N
  H318     1.0000 0.47778  0.27041  0.80528  Biso   1.000  H
  H319     1.0000 0.43958  0.22002  0.78688  Biso   1.000  H
  C321     1.0000 0.69488  0.38250  0.63541  Biso   1.000  C
  C322     1.0000 0.71571  0.32389  0.55561  Biso   1.000  C
  C323     1.0000 0.67611  0.44439  0.71571  Biso   1.000  C
  C324     1.0000 0.55561  0.21571  0.82389  Biso   1.000  C
  H320     1.0000 0.72601  0.40418  0.62629  Biso   1.000  H
  N87      1.0000 0.70170  0.28729  0.52045  Biso   1.000  N
  H321     1.0000 0.74938  0.34290  0.55039  Biso   1.000  H
  N88      1.0000 0.71271  0.47955  0.70170  Biso   1.000  N
  H322     1.0000 0.65710  0.44961  0.74938  Biso   1.000  H
  C325     1.0000 0.60375  0.18162  0.83769  Biso   1.000  C
  H323     1.0000 0.55039  0.24938  0.84290  Biso   1.000  H
  C326     1.0000 0.73928  0.27928  0.47462  Biso   1.000  C
  C327     1.0000 0.72068  0.52538  0.73928  Biso   1.000  C
  C328     1.0000 0.63541  0.19488  0.88245  Biso   1.000  C
  C329     1.0000 0.61750  0.13541  0.80508  Biso   1.000  C
  H324     1.0000 0.77041  0.30528  0.47778  Biso   1.000  H
  H325     1.0000 0.71998  0.28688  0.43958  Biso   1.000  H
  C330     1.0000 0.76068  0.22072  0.47462  Biso   1.000  C
  H326     1.0000 0.69468  0.52218  0.77041  Biso   1.000  H
  H327     1.0000 0.71308  0.56042  0.71998  Biso   1.000  H
  C331     1.0000 0.77928  0.52538  0.76068  Biso   1.000  C
  H328     1.0000 0.62629  0.22601  0.90418  Biso   1.000  H
  C332     1.0000 0.68162  0.16227  0.89621  Biso   1.000  C
  H329     1.0000 0.59578  0.12629  0.77399  Biso   1.000  H
  C333     1.0000 0.66227  0.10379  0.81838  Biso   1.000  C
  N89      1.0000 0.79830  0.21271  0.52045  Biso   1.000  N
  H330     1.0000 0.72959  0.19472  0.47778  Biso   1.000  H
  H331     1.0000 0.77998  0.21312  0.43958  Biso   1.000  H
  N90      1.0000 0.78729  0.47955  0.79830  Biso   1.000  N
  H332     1.0000 0.80528  0.52218  0.72959  Biso   1.000  H
  H333     1.0000 0.78688  0.56042  0.77998  Biso   1.000  H
  C334     1.0000 0.69488  0.11750  0.86455  Biso   1.000  C
  C335     1.0000 0.71571  0.17611  0.94439  Biso   1.000  C
  C336     1.0000 0.67611  0.05561  0.78429  Biso   1.000  C
  C337     1.0000 0.78429  0.17611  0.55561  Biso   1.000  C
  C338     1.0000 0.82389  0.44439  0.78429  Biso   1.000  C
  H334     1.0000 0.72601  0.09582  0.87371  Biso   1.000  H
  N91      1.0000 0.70170  0.21271  0.97955  Biso   1.000  N
  H335     1.0000 0.74938  0.15710  0.94961  Biso   1.000  H
  N92      1.0000 0.71271  0.02045  0.79830  Biso   1.000  N
  H336     1.0000 0.65710  0.05039  0.75057  Biso   1.000  H
  C339     1.0000 0.81838  0.16227  0.60375  Biso   1.000  C
  H337     1.0000 0.75057  0.15710  0.55039  Biso   1.000  H
  C340     1.0000 0.83769  0.39621  0.81838  Biso   1.000  C
  H338     1.0000 0.84290  0.44961  0.75057  Biso   1.000  H
  C341     1.0000 0.73928  0.22072  0.02538  Biso   1.000  C
  C342     1.0000 0.72068  0.97462  0.76068  Biso   1.000  C
  C343     1.0000 0.80508  0.11750  0.63541  Biso   1.000  C
  C344     1.0000 0.86455  0.19488  0.61750  Biso   1.000  C
  C345     1.0000 0.80508  0.38250  0.86455  Biso   1.000  C
  C346     1.0000 0.88245  0.36455  0.80508  Biso   1.000  C
  H339     1.0000 0.77041  0.19472  0.02218  Biso   1.000  H
  H340     1.0000 0.71998  0.21312  0.06037  Biso   1.000  H
  C347     1.0000 0.76068  0.27928  0.02538  Biso   1.000  C
  H341     1.0000 0.69468  0.97778  0.72959  Biso   1.000  H
  H342     1.0000 0.71308  0.93958  0.77998  Biso   1.000  H
  C348     1.0000 0.77928  0.97462  0.73928  Biso   1.000  C
  C349     1.0000 0.83769  0.10379  0.68162  Biso   1.000  C
  H343     1.0000 0.77399  0.09582  0.62629  Biso   1.000  H
  H344     1.0000 0.87371  0.22601  0.59578  Biso   1.000  H
  C350     1.0000 0.89621  0.18162  0.66227  Biso   1.000  C
  C351     1.0000 0.81838  0.33769  0.89621  Biso   1.000  C
  H345     1.0000 0.77399  0.40418  0.87371  Biso   1.000  H
  H346     1.0000 0.90418  0.37371  0.77399  Biso   1.000  H
  C352     1.0000 0.89621  0.31838  0.83769  Biso   1.000  C
  N93      1.0000 0.79830  0.28729  0.97955  Biso   1.000  N
  H347     1.0000 0.72959  0.30528  0.02218  Biso   1.000  H
  H348     1.0000 0.77998  0.28688  0.06037  Biso   1.000  H
  N94      1.0000 0.78729  0.02045  0.70170  Biso   1.000  N
  H349     1.0000 0.80528  0.97778  0.77041  Biso   1.000  H
  H350     1.0000 0.78688  0.93958  0.71998  Biso   1.000  H
  C353     1.0000 0.82389  0.05561  0.71571  Biso   1.000  C
  C354     1.0000 0.88245  0.13541  0.69488  Biso   1.000  C
  C355     1.0000 0.94439  0.21571  0.67611  Biso   1.000  C
  C356     1.0000 0.78429  0.32389  0.94439  Biso   1.000  C
  C357     1.0000 0.86455  0.30512  0.88245  Biso   1.000  C
  C358     1.0000 0.94439  0.28429  0.82389  Biso   1.000  C
  H351     1.0000 0.84290  0.05039  0.74938  Biso   1.000  H
  H352     1.0000 0.90418  0.12629  0.72601  Biso   1.000  H
  N95      1.0000 0.97955  0.20170  0.71271  Biso   1.000  N
  H353     1.0000 0.94961  0.24938  0.65710  Biso   1.000  H
  H354     1.0000 0.75057  0.34290  0.94961  Biso   1.000  H
  H355     1.0000 0.87371  0.27399  0.90418  Biso   1.000  H
  N96      1.0000 0.97955  0.29830  0.78729  Biso   1.000  N
  H356     1.0000 0.94961  0.25062  0.84290  Biso   1.000  H
  C359     1.0000 0.02538  0.23928  0.72068  Biso   1.000  C
  C360     1.0000 0.02538  0.26068  0.77928  Biso   1.000  C
  H357     1.0000 0.02218  0.27041  0.69468  Biso   1.000  H
  H358     1.0000 0.06037  0.22002  0.71308  Biso   1.000  H
  H359     1.0000 0.02218  0.22959  0.80528  Biso   1.000  H
  H360     1.0000 0.06037  0.27998  0.78688  Biso   1.000  H
  C361     1.0000 0.28429  0.67611  0.55561  Biso   1.000  C
  N97      1.0000 0.29830  0.71271  0.52045  Biso   1.000  N
  C362     1.0000 0.31838  0.66227  0.60375  Biso   1.000  C
  H361     1.0000 0.25062  0.65710  0.55039  Biso   1.000  H
  C363     1.0000 0.26068  0.72068  0.47462  Biso   1.000  C
  C364     1.0000 0.36455  0.69488  0.61750  Biso   1.000  C
  C365     1.0000 0.30512  0.61750  0.63541  Biso   1.000  C
  H362     1.0000 0.22959  0.69468  0.47778  Biso   1.000  H
  H363     1.0000 0.27998  0.71308  0.43958  Biso   1.000  H
  C366     1.0000 0.23928  0.77928  0.47462  Biso   1.000  C
  H364     1.0000 0.37371  0.72601  0.59578  Biso   1.000  H
  C367     1.0000 0.39621  0.68162  0.66227  Biso   1.000  C
  C368     1.0000 0.33769  0.60375  0.68162  Biso   1.000  C
  H365     1.0000 0.27399  0.59578  0.62629  Biso   1.000  H
  N98      1.0000 0.20170  0.78729  0.52045  Biso   1.000  N
  H366     1.0000 0.27041  0.80528  0.47778  Biso   1.000  H
  H367     1.0000 0.22002  0.78688  0.43958  Biso   1.000  H
  C369     1.0000 0.44439  0.71571  0.67611  Biso   1.000  C
  C370     1.0000 0.38250  0.63541  0.69488  Biso   1.000  C
  C371     1.0000 0.32389  0.55561  0.71571  Biso   1.000  C
  C372     1.0000 0.21571  0.82389  0.55561  Biso   1.000  C
  N99      1.0000 0.47955  0.70170  0.71271  Biso   1.000  N
  H368     1.0000 0.44961  0.74938  0.65710  Biso   1.000  H
  H369     1.0000 0.40418  0.62629  0.72601  Biso   1.000  H
  N100     1.0000 0.28729  0.52045  0.70170  Biso   1.000  N
  H370     1.0000 0.34290  0.55039  0.74938  Biso   1.000  H
  C373     1.0000 0.18162  0.83769  0.60375  Biso   1.000  C
  H371     1.0000 0.24938  0.84290  0.55039  Biso   1.000  H
  C374     1.0000 0.52538  0.73928  0.72068  Biso   1.000  C
  C375     1.0000 0.27928  0.47462  0.73928  Biso   1.000  C
  C376     1.0000 0.19488  0.88245  0.63541  Biso   1.000  C
  C377     1.0000 0.13541  0.80508  0.61750  Biso   1.000  C
  C378     1.0000 0.52538  0.76068  0.77928  Biso   1.000  C
  H372     1.0000 0.52218  0.77041  0.69468  Biso   1.000  H
  H373     1.0000 0.56042  0.71998  0.71308  Biso   1.000  H
  H374     1.0000 0.30528  0.47778  0.77041  Biso   1.000  H
  H375     1.0000 0.28688  0.43958  0.71998  Biso   1.000  H
  C379     1.0000 0.22072  0.47462  0.76068  Biso   1.000  C
  C380     1.0000 0.16227  0.89621  0.68162  Biso   1.000  C
  H376     1.0000 0.22601  0.90418  0.62629  Biso   1.000  H
  H377     1.0000 0.12629  0.77399  0.59578  Biso   1.000  H
  C381     1.0000 0.10379  0.81838  0.66227  Biso   1.000  C
  N101     1.0000 0.47955  0.79830  0.78729  Biso   1.000  N
  H378     1.0000 0.52218  0.72959  0.80528  Biso   1.000  H
  H379     1.0000 0.56042  0.77998  0.78688  Biso   1.000  H
  N102     1.0000 0.21271  0.52045  0.79830  Biso   1.000  N
  H380     1.0000 0.19472  0.47778  0.72959  Biso   1.000  H
  H381     1.0000 0.21312  0.43958  0.77998  Biso   1.000  H
  C382     1.0000 0.11750  0.86455  0.69488  Biso   1.000  C
  C383     1.0000 0.17611  0.94439  0.71571  Biso   1.000  C
  C384     1.0000 0.05561  0.78429  0.67611  Biso   1.000  C
  C385     1.0000 0.44439  0.78429  0.82389  Biso   1.000  C
  C386     1.0000 0.17611  0.55561  0.78429  Biso   1.000  C
  H382     1.0000 0.09582  0.87371  0.72601  Biso   1.000  H
  N103     1.0000 0.21271  0.97955  0.70170  Biso   1.000  N
  H383     1.0000 0.15710  0.94961  0.74938  Biso   1.000  H
  N104     1.0000 0.02045  0.79830  0.71271  Biso   1.000  N
  H384     1.0000 0.05039  0.75057  0.65710  Biso   1.000  H
  C387     1.0000 0.39621  0.81838  0.83769  Biso   1.000  C
  H385     1.0000 0.44961  0.75057  0.84290  Biso   1.000  H
  C388     1.0000 0.16227  0.60375  0.81838  Biso   1.000  C
  H386     1.0000 0.15710  0.55039  0.75057  Biso   1.000  H
  C389     1.0000 0.22072  0.02538  0.73928  Biso   1.000  C
  C390     1.0000 0.97462  0.76068  0.72068  Biso   1.000  C
  C391     1.0000 0.36455  0.80508  0.88245  Biso   1.000  C
  C392     1.0000 0.38250  0.86455  0.80508  Biso   1.000  C
  C393     1.0000 0.19488  0.61750  0.86455  Biso   1.000  C
  C394     1.0000 0.11750  0.63541  0.80508  Biso   1.000  C
  C395     1.0000 0.27928  0.02538  0.76068  Biso   1.000  C
  H387     1.0000 0.19472  0.02218  0.77041  Biso   1.000  H
  H388     1.0000 0.21312  0.06037  0.71998  Biso   1.000  H
  H389     1.0000 0.97778  0.72959  0.69468  Biso   1.000  H
  H390     1.0000 0.93958  0.77998  0.71308  Biso   1.000  H
  C396     1.0000 0.97462  0.73928  0.77928  Biso   1.000  C
  H391     1.0000 0.37371  0.77399  0.90418  Biso   1.000  H
  C397     1.0000 0.31838  0.83769  0.89621  Biso   1.000  C
  C398     1.0000 0.33769  0.89621  0.81838  Biso   1.000  C
  H392     1.0000 0.40418  0.87371  0.77399  Biso   1.000  H
  H393     1.0000 0.22601  0.59578  0.87371  Biso   1.000  H
  C399     1.0000 0.18162  0.66227  0.89621  Biso   1.000  C
  C400     1.0000 0.10379  0.68162  0.83769  Biso   1.000  C
  H394     1.0000 0.09582  0.62629  0.77399  Biso   1.000  H
  N105     1.0000 0.28729  0.97955  0.79830  Biso   1.000  N
  H395     1.0000 0.30528  0.02218  0.72959  Biso   1.000  H
  H396     1.0000 0.28688  0.06037  0.77998  Biso   1.000  H
  N106     1.0000 0.02045  0.70170  0.78729  Biso   1.000  N
  H397     1.0000 0.97778  0.77041  0.80528  Biso   1.000  H
  H398     1.0000 0.93958  0.71998  0.78688  Biso   1.000  H
  C401     1.0000 0.30512  0.88245  0.86455  Biso   1.000  C
  C402     1.0000 0.28429  0.82389  0.94439  Biso   1.000  C
  C403     1.0000 0.32389  0.94439  0.78429  Biso   1.000  C
  C404     1.0000 0.13541  0.69488  0.88245  Biso   1.000  C
  C405     1.0000 0.21571  0.67611  0.94439  Biso   1.000  C
  C406     1.0000 0.05561  0.71571  0.82389  Biso   1.000  C
  H399     1.0000 0.27399  0.90418  0.87371  Biso   1.000  H
  N107     1.0000 0.29830  0.78729  0.97955  Biso   1.000  N
  H400     1.0000 0.25062  0.84290  0.94961  Biso   1.000  H
  H401     1.0000 0.34290  0.94961  0.75057  Biso   1.000  H
  H402     1.0000 0.12629  0.72601  0.90418  Biso   1.000  H
  N108     1.0000 0.20170  0.71271  0.97955  Biso   1.000  N
  H403     1.0000 0.24938  0.65710  0.94961  Biso   1.000  H
  H404     1.0000 0.05039  0.74938  0.84290  Biso   1.000  H
  C407     1.0000 0.26068  0.77928  0.02538  Biso   1.000  C
  C408     1.0000 0.23928  0.72068  0.02538  Biso   1.000  C
  H405     1.0000 0.22959  0.80528  0.02218  Biso   1.000  H
  H406     1.0000 0.27998  0.78688  0.06037  Biso   1.000  H
  H407     1.0000 0.27041  0.69468  0.02218  Biso   1.000  H
  H408     1.0000 0.22002  0.71308  0.06037  Biso   1.000  H
