data_image0
_cell_length_a       23.948
_cell_length_b       23.948
_cell_length_c       23.948
_cell_angle_alpha    90
_cell_angle_beta     90
_cell_angle_gamma    90

_symmetry_space_group_name_H-M    "P 1"
_symmetry_int_tables_number       1

loop_
  _symmetry_equiv_pos_as_xyz
  'x, y, z'

loop_
  _atom_site_label
  _atom_site_occupancy
  _atom_site_fract_x
  _atom_site_fract_y
  _atom_site_fract_z
  _atom_site_thermal_displace_type
  _atom_site_B_iso_or_equiv
  _atom_site_type_symbol
  C1       1.0000 0.38559  0.19263  0.36688  Biso   1.000  C
  C2       1.0000 0.39974  0.16018  0.32065  Biso   1.000  C
  C3       1.0000 0.33982  0.17935  0.39974  Biso   1.000  C
  H1       1.0000 0.40759  0.22428  0.37598  Biso   1.000  H
  C4       1.0000 0.44881  0.17296  0.28629  Biso   1.000  C
  C5       1.0000 0.36688  0.11441  0.30737  Biso   1.000  C
  C6       1.0000 0.32704  0.21371  0.44881  Biso   1.000  C
  C7       1.0000 0.30737  0.13308  0.38559  Biso   1.000  C
  N1       1.0000 0.48280  0.21108  0.29894  Biso   1.000  N
  H2       1.0000 0.45519  0.15179  0.25338  Biso   1.000  H
  C8       1.0000 0.32065  0.10026  0.33982  Biso   1.000  C
  H3       1.0000 0.37598  0.09241  0.27568  Biso   1.000  H
  N2       1.0000 0.28892  0.20106  0.48280  Biso   1.000  N
  H4       1.0000 0.34821  0.24662  0.45519  Biso   1.000  H
  H5       1.0000 0.27568  0.12402  0.40759  Biso   1.000  H
  C9       1.0000 0.52931  0.22027  0.26098  Biso   1.000  C
  C10      1.0000 0.28629  0.05115  0.32704  Biso   1.000  C
  C11      1.0000 0.27973  0.23902  0.52931  Biso   1.000  C
  C12      1.0000 0.52931  0.27973  0.23902  Biso   1.000  C
  H6       1.0000 0.52639  0.19371  0.22891  Biso   1.000  H
  C13      1.0000 0.58723  0.21613  0.28625  Biso   1.000  C
  C14      1.0000 0.57541  0.19300  0.30938  Biso   1.000  C
  N3       1.0000 0.29894  0.01716  0.28892  Biso   1.000  N
  H7       1.0000 0.25338  0.04481  0.34821  Biso   1.000  H
  C15      1.0000 0.22027  0.26098  0.52931  Biso   1.000  C
  H8       1.0000 0.30629  0.27109  0.52639  Biso   1.000  H
  C16      1.0000 0.28387  0.21375  0.58723  Biso   1.000  C
  C17      1.0000 0.30700  0.19058  0.57541  Biso   1.000  C
  N4       1.0000 0.48280  0.28892  0.20106  Biso   1.000  N
  H9       1.0000 0.52639  0.30629  0.27109  Biso   1.000  H
  C18      1.0000 0.58723  0.28387  0.21375  Biso   1.000  C
  C19      1.0000 0.57541  0.30700  0.19058  Biso   1.000  C
  H10      1.0000 0.59871  0.17651  0.28821  Biso   1.000  H
  H11      1.0000 0.58660  0.23121  0.32470  Biso   1.000  H
  C20      1.0000 0.63083  0.25000  0.25000  Biso   1.000  C
  C21      1.0000 0.63041  0.20219  0.27639  Biso   1.000  C
  H12      1.0000 0.57491  0.21409  0.34491  Biso   1.000  H
  H13      1.0000 0.56831  0.15300  0.31681  Biso   1.000  H
  C22      1.0000 0.26098  0.97069  0.27973  Biso   1.000  C
  N5       1.0000 0.21108  0.29894  0.48280  Biso   1.000  N
  H14      1.0000 0.19371  0.22891  0.52639  Biso   1.000  H
  C23      1.0000 0.21613  0.28625  0.58723  Biso   1.000  C
  C24      1.0000 0.19300  0.30938  0.57541  Biso   1.000  C
  H15      1.0000 0.32349  0.21179  0.59871  Biso   1.000  H
  H16      1.0000 0.26879  0.17530  0.58660  Biso   1.000  H
  C25      1.0000 0.25000  0.25000  0.63083  Biso   1.000  C
  C26      1.0000 0.29781  0.22361  0.63041  Biso   1.000  C
  H17      1.0000 0.28591  0.15509  0.57491  Biso   1.000  H
  H18      1.0000 0.34700  0.18319  0.56831  Biso   1.000  H
  C27      1.0000 0.44881  0.32704  0.21371  Biso   1.000  C
  H19      1.0000 0.59871  0.32349  0.21179  Biso   1.000  H
  H20      1.0000 0.58660  0.26879  0.17530  Biso   1.000  H
  C28      1.0000 0.63041  0.29781  0.22361  Biso   1.000  C
  H21      1.0000 0.57491  0.28591  0.15509  Biso   1.000  H
  H22      1.0000 0.56831  0.34700  0.18319  Biso   1.000  H
  H23      1.0000 0.65458  0.22528  0.22691  Biso   1.000  H
  H24      1.0000 0.65458  0.27468  0.27309  Biso   1.000  H
  H25      1.0000 0.66231  0.20102  0.30270  Biso   1.000  H
  H26      1.0000 0.63521  0.17150  0.24908  Biso   1.000  H
  C29      1.0000 0.23902  0.97069  0.22027  Biso   1.000  C
  H27      1.0000 0.22891  0.97361  0.30629  Biso   1.000  H
  C30      1.0000 0.28625  0.91277  0.28387  Biso   1.000  C
  C31      1.0000 0.30938  0.92459  0.30700  Biso   1.000  C
  C32      1.0000 0.17296  0.28629  0.44881  Biso   1.000  C
  H28      1.0000 0.17651  0.28821  0.59871  Biso   1.000  H
  H29      1.0000 0.23121  0.32470  0.58660  Biso   1.000  H
  C33      1.0000 0.20219  0.27639  0.63041  Biso   1.000  C
  H30      1.0000 0.21409  0.34491  0.57491  Biso   1.000  H
  H31      1.0000 0.15300  0.31681  0.56831  Biso   1.000  H
  H32      1.0000 0.22528  0.22691  0.65458  Biso   1.000  H
  H33      1.0000 0.27468  0.27309  0.65458  Biso   1.000  H
  H34      1.0000 0.29898  0.19730  0.66231  Biso   1.000  H
  H35      1.0000 0.32850  0.25092  0.63521  Biso   1.000  H
  H36      1.0000 0.45519  0.34821  0.24662  Biso   1.000  H
  C34      1.0000 0.39974  0.33982  0.17935  Biso   1.000  C
  H37      1.0000 0.66231  0.29898  0.19730  Biso   1.000  H
  H38      1.0000 0.63521  0.32850  0.25092  Biso   1.000  H
  N6       1.0000 0.20106  0.01716  0.21108  Biso   1.000  N
  H39      1.0000 0.27109  0.97361  0.19371  Biso   1.000  H
  C35      1.0000 0.21375  0.91277  0.21613  Biso   1.000  C
  C36      1.0000 0.19058  0.92459  0.19300  Biso   1.000  C
  H40      1.0000 0.28821  0.90129  0.32349  Biso   1.000  H
  H41      1.0000 0.32470  0.91340  0.26879  Biso   1.000  H
  C37      1.0000 0.25000  0.86917  0.25000  Biso   1.000  C
  C38      1.0000 0.27639  0.86959  0.29781  Biso   1.000  C
  H42      1.0000 0.34491  0.92509  0.28591  Biso   1.000  H
  H43      1.0000 0.31681  0.93169  0.34700  Biso   1.000  H
  H44      1.0000 0.15179  0.25338  0.45519  Biso   1.000  H
  C39      1.0000 0.16018  0.32065  0.39974  Biso   1.000  C
  H45      1.0000 0.20102  0.30270  0.66231  Biso   1.000  H
  H46      1.0000 0.17150  0.24908  0.63521  Biso   1.000  H
  C40      1.0000 0.38559  0.30737  0.13308  Biso   1.000  C
  C41      1.0000 0.36688  0.38559  0.19263  Biso   1.000  C
  C42      1.0000 0.21371  0.05115  0.17296  Biso   1.000  C
  H47      1.0000 0.21179  0.90129  0.17651  Biso   1.000  H
  H48      1.0000 0.17530  0.91340  0.23121  Biso   1.000  H
  C43      1.0000 0.22361  0.86959  0.20219  Biso   1.000  C
  H49      1.0000 0.15509  0.92509  0.21409  Biso   1.000  H
  H50      1.0000 0.18319  0.93169  0.15300  Biso   1.000  H
  H51      1.0000 0.27309  0.84542  0.22528  Biso   1.000  H
  H52      1.0000 0.22691  0.84542  0.27468  Biso   1.000  H
  H53      1.0000 0.30270  0.83769  0.29898  Biso   1.000  H
  H54      1.0000 0.24908  0.86479  0.32850  Biso   1.000  H
  C44      1.0000 0.19263  0.36688  0.38559  Biso   1.000  C
  C45      1.0000 0.11441  0.30737  0.36688  Biso   1.000  C
  C46      1.0000 0.33982  0.32065  0.10026  Biso   1.000  C
  H55      1.0000 0.40759  0.27568  0.12402  Biso   1.000  H
  C47      1.0000 0.32065  0.39974  0.16018  Biso   1.000  C
  H56      1.0000 0.37598  0.40759  0.22428  Biso   1.000  H
  H57      1.0000 0.24662  0.04481  0.15179  Biso   1.000  H
  C48      1.0000 0.17935  0.10026  0.16018  Biso   1.000  C
  H58      1.0000 0.19730  0.83769  0.20102  Biso   1.000  H
  H59      1.0000 0.25092  0.86479  0.17150  Biso   1.000  H
  C49      1.0000 0.17935  0.39974  0.33982  Biso   1.000  C
  H60      1.0000 0.22428  0.37598  0.40759  Biso   1.000  H
  C50      1.0000 0.10026  0.33982  0.32065  Biso   1.000  C
  H61      1.0000 0.09241  0.27568  0.37598  Biso   1.000  H
  C51      1.0000 0.32704  0.28629  0.05115  Biso   1.000  C
  C52      1.0000 0.30737  0.36688  0.11441  Biso   1.000  C
  C53      1.0000 0.28629  0.44881  0.17296  Biso   1.000  C
  C54      1.0000 0.13308  0.11441  0.19263  Biso   1.000  C
  C55      1.0000 0.19263  0.13308  0.11441  Biso   1.000  C
  C56      1.0000 0.21371  0.44881  0.32704  Biso   1.000  C
  C57      1.0000 0.13308  0.38559  0.30737  Biso   1.000  C
  C58      1.0000 0.05115  0.32704  0.28629  Biso   1.000  C
  N7       1.0000 0.28892  0.29894  0.01716  Biso   1.000  N
  H62      1.0000 0.34821  0.25338  0.04481  Biso   1.000  H
  H63      1.0000 0.27568  0.37598  0.09241  Biso   1.000  H
  N8       1.0000 0.29894  0.48280  0.21108  Biso   1.000  N
  H64      1.0000 0.25338  0.45519  0.15179  Biso   1.000  H
  C59      1.0000 0.10026  0.16018  0.17935  Biso   1.000  C
  H65      1.0000 0.12402  0.09241  0.22428  Biso   1.000  H
  C60      1.0000 0.16018  0.17935  0.10026  Biso   1.000  C
  H66      1.0000 0.22428  0.12402  0.09241  Biso   1.000  H
  N9       1.0000 0.20106  0.48280  0.28892  Biso   1.000  N
  H67      1.0000 0.24662  0.45519  0.34821  Biso   1.000  H
  H68      1.0000 0.12402  0.40759  0.27568  Biso   1.000  H
  N10      1.0000 0.01716  0.28892  0.29894  Biso   1.000  N
  H69      1.0000 0.04481  0.34821  0.25338  Biso   1.000  H
  C61      1.0000 0.27973  0.26098  0.97069  Biso   1.000  C
  C62      1.0000 0.26098  0.52931  0.22027  Biso   1.000  C
  C63      1.0000 0.05115  0.17296  0.21371  Biso   1.000  C
  C64      1.0000 0.11441  0.19263  0.13308  Biso   1.000  C
  C65      1.0000 0.17296  0.21371  0.05115  Biso   1.000  C
  C66      1.0000 0.23902  0.52931  0.27973  Biso   1.000  C
  C67      1.0000 0.97069  0.27973  0.26098  Biso   1.000  C
  C68      1.0000 0.22027  0.23902  0.97069  Biso   1.000  C
  H70      1.0000 0.30629  0.22891  0.97361  Biso   1.000  H
  C69      1.0000 0.28387  0.28625  0.91277  Biso   1.000  C
  C70      1.0000 0.30700  0.30938  0.92459  Biso   1.000  C
  H71      1.0000 0.22891  0.52639  0.19371  Biso   1.000  H
  C71      1.0000 0.28625  0.58723  0.21613  Biso   1.000  C
  C72      1.0000 0.30938  0.57541  0.19300  Biso   1.000  C
  N11      1.0000 0.01716  0.21108  0.20106  Biso   1.000  N
  H72      1.0000 0.04481  0.15179  0.24662  Biso   1.000  H
  H73      1.0000 0.09241  0.22428  0.12402  Biso   1.000  H
  N12      1.0000 0.21108  0.20106  0.01716  Biso   1.000  N
  H74      1.0000 0.15179  0.24662  0.04481  Biso   1.000  H
  H75      1.0000 0.27109  0.52639  0.30629  Biso   1.000  H
  C73      1.0000 0.21375  0.58723  0.28387  Biso   1.000  C
  C74      1.0000 0.19058  0.57541  0.30700  Biso   1.000  C
  C75      1.0000 0.97069  0.22027  0.23902  Biso   1.000  C
  H76      1.0000 0.97361  0.30629  0.22891  Biso   1.000  H
  C76      1.0000 0.91277  0.28387  0.28625  Biso   1.000  C
  C77      1.0000 0.92459  0.30700  0.30938  Biso   1.000  C
  H77      1.0000 0.19371  0.27109  0.97361  Biso   1.000  H
  C78      1.0000 0.21613  0.21375  0.91277  Biso   1.000  C
  C79      1.0000 0.19300  0.19058  0.92459  Biso   1.000  C
  H78      1.0000 0.32349  0.28821  0.90129  Biso   1.000  H
  H79      1.0000 0.26879  0.32470  0.91340  Biso   1.000  H
  C80      1.0000 0.25000  0.25000  0.86917  Biso   1.000  C
  C81      1.0000 0.29781  0.27639  0.86959  Biso   1.000  C
  H80      1.0000 0.28591  0.34491  0.92509  Biso   1.000  H
  H81      1.0000 0.34700  0.31681  0.93169  Biso   1.000  H
  H82      1.0000 0.28821  0.59871  0.17651  Biso   1.000  H
  H83      1.0000 0.32470  0.58660  0.23121  Biso   1.000  H
  C82      1.0000 0.25000  0.63083  0.25000  Biso   1.000  C
  C83      1.0000 0.27639  0.63041  0.20219  Biso   1.000  C
  H84      1.0000 0.34491  0.57491  0.21409  Biso   1.000  H
  H85      1.0000 0.31681  0.56831  0.15300  Biso   1.000  H
  H86      1.0000 0.21179  0.59871  0.32349  Biso   1.000  H
  H87      1.0000 0.17530  0.58660  0.26879  Biso   1.000  H
  C84      1.0000 0.22361  0.63041  0.29781  Biso   1.000  C
  H88      1.0000 0.15509  0.57491  0.28591  Biso   1.000  H
  H89      1.0000 0.18319  0.56831  0.34700  Biso   1.000  H
  H90      1.0000 0.97361  0.19371  0.27109  Biso   1.000  H
  C85      1.0000 0.91277  0.21613  0.21375  Biso   1.000  C
  C86      1.0000 0.92459  0.19300  0.19058  Biso   1.000  C
  C87      1.0000 0.86917  0.25000  0.25000  Biso   1.000  C
  H91      1.0000 0.90129  0.32349  0.28821  Biso   1.000  H
  H92      1.0000 0.91340  0.26879  0.32470  Biso   1.000  H
  C88      1.0000 0.86959  0.29781  0.27639  Biso   1.000  C
  H93      1.0000 0.92509  0.28591  0.34491  Biso   1.000  H
  H94      1.0000 0.93169  0.34700  0.31681  Biso   1.000  H
  H95      1.0000 0.17651  0.21179  0.90129  Biso   1.000  H
  H96      1.0000 0.23121  0.17530  0.91340  Biso   1.000  H
  C89      1.0000 0.20219  0.22361  0.86959  Biso   1.000  C
  H97      1.0000 0.21409  0.15509  0.92509  Biso   1.000  H
  H98      1.0000 0.15300  0.18319  0.93169  Biso   1.000  H
  H99      1.0000 0.22528  0.27309  0.84542  Biso   1.000  H
  H100     1.0000 0.27468  0.22691  0.84542  Biso   1.000  H
  H101     1.0000 0.29898  0.30270  0.83769  Biso   1.000  H
  H102     1.0000 0.32850  0.24908  0.86479  Biso   1.000  H
  H103     1.0000 0.27309  0.65458  0.27468  Biso   1.000  H
  H104     1.0000 0.22691  0.65458  0.22528  Biso   1.000  H
  H105     1.0000 0.30270  0.66231  0.20102  Biso   1.000  H
  H106     1.0000 0.24908  0.63521  0.17150  Biso   1.000  H
  H107     1.0000 0.19730  0.66231  0.29898  Biso   1.000  H
  H108     1.0000 0.25092  0.63521  0.32850  Biso   1.000  H
  H109     1.0000 0.90129  0.17651  0.21179  Biso   1.000  H
  H110     1.0000 0.91340  0.23121  0.17530  Biso   1.000  H
  C90      1.0000 0.86959  0.20219  0.22361  Biso   1.000  C
  H111     1.0000 0.92509  0.21409  0.15509  Biso   1.000  H
  H112     1.0000 0.93169  0.15300  0.18319  Biso   1.000  H
  H113     1.0000 0.84542  0.22528  0.27309  Biso   1.000  H
  H114     1.0000 0.84542  0.27468  0.22691  Biso   1.000  H
  H115     1.0000 0.83769  0.29898  0.30270  Biso   1.000  H
  H116     1.0000 0.86479  0.32850  0.24908  Biso   1.000  H
  H117     1.0000 0.20102  0.19730  0.83769  Biso   1.000  H
  H118     1.0000 0.17150  0.25092  0.86479  Biso   1.000  H
  H119     1.0000 0.83769  0.20102  0.19730  Biso   1.000  H
  H120     1.0000 0.86479  0.17150  0.25092  Biso   1.000  H
  C91      1.0000 0.53762  0.30078  0.42492  Biso   1.000  C
  N13      1.0000 0.54961  0.26766  0.46413  Biso   1.000  N
  H121     1.0000 0.50560  0.29288  0.40279  Biso   1.000  H
  C92      1.0000 0.57061  0.35084  0.41160  Biso   1.000  C
  C93      1.0000 0.51320  0.21893  0.47115  Biso   1.000  C
  C94      1.0000 0.55658  0.38287  0.36583  Biso   1.000  C
  C95      1.0000 0.61709  0.36583  0.44342  Biso   1.000  C
  C96      1.0000 0.48680  0.21893  0.52885  Biso   1.000  C
  H122     1.0000 0.53528  0.18432  0.46609  Biso   1.000  H
  H123     1.0000 0.48351  0.21960  0.44242  Biso   1.000  H
  C97      1.0000 0.58840  0.42939  0.35084  Biso   1.000  C
  H124     1.0000 0.52480  0.37318  0.34420  Biso   1.000  H
  C98      1.0000 0.64916  0.41160  0.42939  Biso   1.000  C
  H125     1.0000 0.62677  0.34420  0.47520  Biso   1.000  H
  N14      1.0000 0.45039  0.26766  0.53583  Biso   1.000  N
  H126     1.0000 0.46472  0.18432  0.53391  Biso   1.000  H
  H127     1.0000 0.51649  0.21960  0.55758  Biso   1.000  H
  C99      1.0000 0.57508  0.46238  0.30078  Biso   1.000  C
  C100     1.0000 0.63417  0.44342  0.38287  Biso   1.000  C
  C101     1.0000 0.69922  0.42492  0.46238  Biso   1.000  C
  C102     1.0000 0.46238  0.30078  0.57508  Biso   1.000  C
  N15      1.0000 0.53583  0.45039  0.26766  Biso   1.000  N
  H128     1.0000 0.59721  0.49440  0.29288  Biso   1.000  H
  H129     1.0000 0.65580  0.47520  0.37318  Biso   1.000  H
  N16      1.0000 0.73234  0.46413  0.45039  Biso   1.000  N
  H130     1.0000 0.70707  0.40279  0.49440  Biso   1.000  H
  H131     1.0000 0.49440  0.29288  0.59721  Biso   1.000  H
  C103     1.0000 0.42939  0.35084  0.58840  Biso   1.000  C
  C104     1.0000 0.52885  0.48680  0.21893  Biso   1.000  C
  C105     1.0000 0.78107  0.47115  0.48680  Biso   1.000  C
  C106     1.0000 0.44342  0.38287  0.63417  Biso   1.000  C
  C107     1.0000 0.38287  0.36583  0.55658  Biso   1.000  C
  C108     1.0000 0.47115  0.51320  0.21893  Biso   1.000  C
  H132     1.0000 0.53391  0.46472  0.18432  Biso   1.000  H
  H133     1.0000 0.55758  0.51649  0.21960  Biso   1.000  H
  C109     1.0000 0.78107  0.52885  0.51320  Biso   1.000  C
  H134     1.0000 0.81568  0.46609  0.46472  Biso   1.000  H
  H135     1.0000 0.78040  0.44242  0.51649  Biso   1.000  H
  C110     1.0000 0.41160  0.42939  0.64916  Biso   1.000  C
  H136     1.0000 0.47520  0.37318  0.65580  Biso   1.000  H
  C111     1.0000 0.35084  0.41160  0.57061  Biso   1.000  C
  H137     1.0000 0.37318  0.34420  0.52480  Biso   1.000  H
  N17      1.0000 0.46413  0.54961  0.26766  Biso   1.000  N
  H138     1.0000 0.46609  0.53528  0.18432  Biso   1.000  H
  H139     1.0000 0.44242  0.48351  0.21960  Biso   1.000  H
  N18      1.0000 0.73234  0.53583  0.54961  Biso   1.000  N
  H140     1.0000 0.81568  0.53391  0.53528  Biso   1.000  H
  H141     1.0000 0.78040  0.55758  0.48351  Biso   1.000  H
  C112     1.0000 0.42492  0.46238  0.69922  Biso   1.000  C
  C113     1.0000 0.36583  0.44342  0.61709  Biso   1.000  C
  C114     1.0000 0.30078  0.42492  0.53762  Biso   1.000  C
  C115     1.0000 0.42492  0.53762  0.30078  Biso   1.000  C
  C116     1.0000 0.69922  0.57508  0.53762  Biso   1.000  C
  N19      1.0000 0.46413  0.45039  0.73234  Biso   1.000  N
  H142     1.0000 0.40279  0.49440  0.70707  Biso   1.000  H
  H143     1.0000 0.34420  0.47520  0.62677  Biso   1.000  H
  N20      1.0000 0.26766  0.46413  0.54961  Biso   1.000  N
  H144     1.0000 0.29288  0.40279  0.50560  Biso   1.000  H
  H145     1.0000 0.40279  0.50560  0.29288  Biso   1.000  H
  C117     1.0000 0.41160  0.57061  0.35084  Biso   1.000  C
  H146     1.0000 0.70707  0.59721  0.50560  Biso   1.000  H
  C118     1.0000 0.64916  0.58840  0.57061  Biso   1.000  C
  C119     1.0000 0.47115  0.48680  0.78107  Biso   1.000  C
  C120     1.0000 0.21893  0.47115  0.51320  Biso   1.000  C
  C121     1.0000 0.36583  0.55658  0.38287  Biso   1.000  C
  C122     1.0000 0.44342  0.61709  0.36583  Biso   1.000  C
  C123     1.0000 0.61709  0.63417  0.55658  Biso   1.000  C
  C124     1.0000 0.63417  0.55658  0.61709  Biso   1.000  C
  C125     1.0000 0.52885  0.51320  0.78107  Biso   1.000  C
  H147     1.0000 0.46609  0.46472  0.81568  Biso   1.000  H
  H148     1.0000 0.44242  0.51649  0.78040  Biso   1.000  H
  C126     1.0000 0.21893  0.52885  0.48680  Biso   1.000  C
  H149     1.0000 0.18432  0.46609  0.53528  Biso   1.000  H
  H150     1.0000 0.21960  0.44242  0.48351  Biso   1.000  H
  C127     1.0000 0.35084  0.58840  0.42939  Biso   1.000  C
  H151     1.0000 0.34420  0.52480  0.37318  Biso   1.000  H
  C128     1.0000 0.42939  0.64916  0.41160  Biso   1.000  C
  H152     1.0000 0.47520  0.62677  0.34420  Biso   1.000  H
  C129     1.0000 0.57061  0.64916  0.58840  Biso   1.000  C
  H153     1.0000 0.62677  0.65580  0.52480  Biso   1.000  H
  C130     1.0000 0.58840  0.57061  0.64916  Biso   1.000  C
  H154     1.0000 0.65580  0.52480  0.62677  Biso   1.000  H
  N21      1.0000 0.53583  0.54961  0.73234  Biso   1.000  N
  H155     1.0000 0.53391  0.53528  0.81568  Biso   1.000  H
  H156     1.0000 0.55758  0.48351  0.78040  Biso   1.000  H
  N22      1.0000 0.26766  0.53583  0.45039  Biso   1.000  N
  H157     1.0000 0.18432  0.53391  0.46472  Biso   1.000  H
  H158     1.0000 0.21960  0.55758  0.51649  Biso   1.000  H
  C131     1.0000 0.30078  0.57508  0.46238  Biso   1.000  C
  C132     1.0000 0.38287  0.63417  0.44342  Biso   1.000  C
  C133     1.0000 0.46238  0.69922  0.42492  Biso   1.000  C
  C134     1.0000 0.53762  0.69922  0.57508  Biso   1.000  C
  C135     1.0000 0.55658  0.61709  0.63417  Biso   1.000  C
  C136     1.0000 0.57508  0.53762  0.69922  Biso   1.000  C
  H159     1.0000 0.29288  0.59721  0.49440  Biso   1.000  H
  H160     1.0000 0.37318  0.65580  0.47520  Biso   1.000  H
  N23      1.0000 0.45039  0.73234  0.46413  Biso   1.000  N
  H161     1.0000 0.49440  0.70707  0.40279  Biso   1.000  H
  N24      1.0000 0.54961  0.73234  0.53583  Biso   1.000  N
  H162     1.0000 0.50560  0.70707  0.59721  Biso   1.000  H
  H163     1.0000 0.52480  0.62677  0.65580  Biso   1.000  H
  H164     1.0000 0.59721  0.50560  0.70707  Biso   1.000  H
  C137     1.0000 0.48680  0.78107  0.47115  Biso   1.000  C
  C138     1.0000 0.51320  0.78107  0.52885  Biso   1.000  C
  H165     1.0000 0.46472  0.81568  0.46609  Biso   1.000  H
  H166     1.0000 0.51649  0.78040  0.44242  Biso   1.000  H
  H167     1.0000 0.53528  0.81568  0.53391  Biso   1.000  H
  H168     1.0000 0.48351  0.78040  0.55758  Biso   1.000  H
  C139     1.0000 0.53762  0.19922  0.07508  Biso   1.000  C
  C140     1.0000 0.57061  0.14916  0.08840  Biso   1.000  C
  N25      1.0000 0.54961  0.23234  0.03587  Biso   1.000  N
  H169     1.0000 0.50560  0.20712  0.09721  Biso   1.000  H
  N26      1.0000 0.54961  0.23234  0.03583  Biso   1.000  N
  H170     1.0000 0.50560  0.20707  0.09721  Biso   1.000  H
  C141     1.0000 0.61709  0.13417  0.05658  Biso   1.000  C
  C142     1.0000 0.55658  0.11713  0.13417  Biso   1.000  C
  C143     1.0000 0.55658  0.11709  0.13417  Biso   1.000  C
  C144     1.0000 0.51320  0.28107  0.02885  Biso   1.000  C
  C145     1.0000 0.51320  0.28107  0.02881  Biso   1.000  C
  H171     1.0000 0.62677  0.15580  0.02480  Biso   1.000  H
  C146     1.0000 0.64916  0.08840  0.07061  Biso   1.000  C
  C147     1.0000 0.58840  0.07061  0.14916  Biso   1.000  C
  H172     1.0000 0.52480  0.12677  0.15580  Biso   1.000  H
  H173     1.0000 0.53528  0.31568  0.03391  Biso   1.000  H
  H174     1.0000 0.48351  0.28040  0.05758  Biso   1.000  H
  C148     1.0000 0.48680  0.28107  0.97115  Biso   1.000  C
  C149     1.0000 0.69922  0.07508  0.03762  Biso   1.000  C
  C150     1.0000 0.63417  0.05658  0.11713  Biso   1.000  C
  C151     1.0000 0.63417  0.05658  0.11709  Biso   1.000  C
  C152     1.0000 0.57508  0.03762  0.19922  Biso   1.000  C
  N27      1.0000 0.45039  0.23234  0.96413  Biso   1.000  N
  H175     1.0000 0.46472  0.31568  0.96609  Biso   1.000  H
  H176     1.0000 0.51649  0.28040  0.94238  Biso   1.000  H
  H177     1.0000 0.70707  0.09721  0.00560  Biso   1.000  H
  N28      1.0000 0.73234  0.03587  0.04961  Biso   1.000  N
  N29      1.0000 0.73234  0.03583  0.04961  Biso   1.000  N
  H178     1.0000 0.65580  0.02480  0.12677  Biso   1.000  H
  N30      1.0000 0.53583  0.04961  0.23234  Biso   1.000  N
  H179     1.0000 0.59721  0.00560  0.20712  Biso   1.000  H
  H180     1.0000 0.59721  0.00560  0.20707  Biso   1.000  H
  C153     1.0000 0.46238  0.19922  0.92492  Biso   1.000  C
  C154     1.0000 0.78107  0.02885  0.01320  Biso   1.000  C
  C155     1.0000 0.78107  0.02881  0.01320  Biso   1.000  C
  C156     1.0000 0.52885  0.01320  0.28107  Biso   1.000  C
  H181     1.0000 0.49440  0.20712  0.90279  Biso   1.000  H
  C157     1.0000 0.42939  0.14916  0.91160  Biso   1.000  C
  H182     1.0000 0.49440  0.20707  0.90279  Biso   1.000  H
  H183     1.0000 0.81568  0.03391  0.03528  Biso   1.000  H
  C158     1.0000 0.78107  0.97115  0.98680  Biso   1.000  C
  C159     1.0000 0.78107  0.97115  0.98676  Biso   1.000  C
  H184     1.0000 0.78040  0.05758  0.98351  Biso   1.000  H
  H185     1.0000 0.53391  0.03528  0.31568  Biso   1.000  H
  C160     1.0000 0.47115  0.98680  0.28107  Biso   1.000  C
  H186     1.0000 0.55758  0.98351  0.28040  Biso   1.000  H
  C161     1.0000 0.47115  0.98676  0.28107  Biso   1.000  C
  C162     1.0000 0.38287  0.13417  0.94342  Biso   1.000  C
  C163     1.0000 0.44342  0.11713  0.86583  Biso   1.000  C
  C164     1.0000 0.44342  0.11709  0.86583  Biso   1.000  C
  N31      1.0000 0.73234  0.96413  0.95039  Biso   1.000  N
  H187     1.0000 0.81568  0.96609  0.96472  Biso   1.000  H
  H188     1.0000 0.81568  0.96609  0.96467  Biso   1.000  H
  H189     1.0000 0.78040  0.94238  0.01649  Biso   1.000  H
  H190     1.0000 0.44242  0.01649  0.28040  Biso   1.000  H
  N32      1.0000 0.46413  0.95039  0.23234  Biso   1.000  N
  H191     1.0000 0.46609  0.96472  0.31568  Biso   1.000  H
  H192     1.0000 0.46609  0.96467  0.31568  Biso   1.000  H
  C165     1.0000 0.35084  0.08840  0.92939  Biso   1.000  C
  H193     1.0000 0.37318  0.15580  0.97520  Biso   1.000  H
  C166     1.0000 0.41160  0.07061  0.85084  Biso   1.000  C
  H194     1.0000 0.47520  0.12677  0.84420  Biso   1.000  H
  C167     1.0000 0.69922  0.92492  0.96238  Biso   1.000  C
  C168     1.0000 0.69922  0.92492  0.96234  Biso   1.000  C
  C169     1.0000 0.42492  0.96238  0.19922  Biso   1.000  C
  C170     1.0000 0.42492  0.96234  0.19922  Biso   1.000  C
  C171     1.0000 0.30078  0.07508  0.96238  Biso   1.000  C
  C172     1.0000 0.36583  0.05658  0.88287  Biso   1.000  C
  C173     1.0000 0.30078  0.07508  0.96234  Biso   1.000  C
  C174     1.0000 0.42492  0.03762  0.80078  Biso   1.000  C
  H195     1.0000 0.70707  0.90279  0.99440  Biso   1.000  H
  C175     1.0000 0.64916  0.91160  0.92939  Biso   1.000  C
  H196     1.0000 0.40279  0.99440  0.20712  Biso   1.000  H
  C176     1.0000 0.41160  0.92939  0.14916  Biso   1.000  C
  H197     1.0000 0.40279  0.99440  0.20707  Biso   1.000  H
  N33      1.0000 0.26766  0.03587  0.95039  Biso   1.000  N
  H198     1.0000 0.29288  0.09721  0.99440  Biso   1.000  H
  N34      1.0000 0.26766  0.03583  0.95039  Biso   1.000  N
  H199     1.0000 0.34420  0.02480  0.87318  Biso   1.000  H
  N35      1.0000 0.46413  0.04961  0.76766  Biso   1.000  N
  H200     1.0000 0.40279  0.00560  0.79288  Biso   1.000  H
  C177     1.0000 0.63417  0.94342  0.88287  Biso   1.000  C
  C178     1.0000 0.61709  0.86583  0.94342  Biso   1.000  C
  C179     1.0000 0.36583  0.94342  0.11713  Biso   1.000  C
  C180     1.0000 0.44342  0.88287  0.13417  Biso   1.000  C
  C181     1.0000 0.36583  0.94342  0.11709  Biso   1.000  C
  C182     1.0000 0.21893  0.02885  0.98680  Biso   1.000  C
  C183     1.0000 0.21893  0.02885  0.98676  Biso   1.000  C
  C184     1.0000 0.21893  0.02881  0.98680  Biso   1.000  C
  C185     1.0000 0.21893  0.02881  0.98676  Biso   1.000  C
  C186     1.0000 0.47115  0.01320  0.71893  Biso   1.000  C
  C187     1.0000 0.58840  0.92939  0.85084  Biso   1.000  C
  H201     1.0000 0.65580  0.97520  0.87318  Biso   1.000  H
  C188     1.0000 0.57061  0.85084  0.91160  Biso   1.000  C
  H202     1.0000 0.62677  0.84420  0.97520  Biso   1.000  H
  C189     1.0000 0.35084  0.91160  0.07061  Biso   1.000  C
  H203     1.0000 0.34420  0.97520  0.12677  Biso   1.000  H
  C190     1.0000 0.42939  0.85084  0.08840  Biso   1.000  C
  H204     1.0000 0.47520  0.87318  0.15580  Biso   1.000  H
  H205     1.0000 0.21960  0.05758  0.01649  Biso   1.000  H
  C191     1.0000 0.21893  0.97115  0.01320  Biso   1.000  C
  H206     1.0000 0.18432  0.03391  0.96472  Biso   1.000  H
  H207     1.0000 0.18432  0.03391  0.96467  Biso   1.000  H
  C192     1.0000 0.52885  0.98680  0.71893  Biso   1.000  C
  H208     1.0000 0.44242  0.98351  0.71960  Biso   1.000  H
  C193     1.0000 0.52885  0.98676  0.71893  Biso   1.000  C
  H209     1.0000 0.46609  0.03528  0.68432  Biso   1.000  H
  H210     1.0000 0.46609  0.03528  0.68427  Biso   1.000  H
  C194     1.0000 0.57508  0.96238  0.80078  Biso   1.000  C
  C195     1.0000 0.55658  0.88287  0.86583  Biso   1.000  C
  C196     1.0000 0.57508  0.96234  0.80078  Biso   1.000  C
  C197     1.0000 0.53762  0.80078  0.92492  Biso   1.000  C
  C198     1.0000 0.30078  0.92492  0.03762  Biso   1.000  C
  C199     1.0000 0.38287  0.86583  0.05658  Biso   1.000  C
  C200     1.0000 0.46238  0.80078  0.07508  Biso   1.000  C
  H211     1.0000 0.21960  0.94238  0.98351  Biso   1.000  H
  N36      1.0000 0.26766  0.96413  0.04961  Biso   1.000  N
  H212     1.0000 0.18432  0.96609  0.03528  Biso   1.000  H
  N37      1.0000 0.53583  0.95039  0.76766  Biso   1.000  N
  H213     1.0000 0.53391  0.96472  0.68432  Biso   1.000  H
  H214     1.0000 0.53391  0.96472  0.68427  Biso   1.000  H
  H215     1.0000 0.53391  0.96467  0.68432  Biso   1.000  H
  H216     1.0000 0.53391  0.96467  0.68427  Biso   1.000  H
  H217     1.0000 0.55758  0.01649  0.71960  Biso   1.000  H
  H218     1.0000 0.59721  0.99440  0.79288  Biso   1.000  H
  H219     1.0000 0.52480  0.87318  0.84420  Biso   1.000  H
  N38      1.0000 0.54961  0.76766  0.96413  Biso   1.000  N
  H220     1.0000 0.50560  0.79288  0.90279  Biso   1.000  H
  H221     1.0000 0.29288  0.90279  0.00560  Biso   1.000  H
  H222     1.0000 0.37318  0.84420  0.02480  Biso   1.000  H
  N39      1.0000 0.45039  0.76766  0.03587  Biso   1.000  N
  H223     1.0000 0.49440  0.79288  0.09721  Biso   1.000  H
  N40      1.0000 0.45039  0.76766  0.03583  Biso   1.000  N
  C201     1.0000 0.51320  0.71893  0.97115  Biso   1.000  C
  C202     1.0000 0.48680  0.71893  0.02885  Biso   1.000  C
  C203     1.0000 0.48680  0.71893  0.02881  Biso   1.000  C
  H224     1.0000 0.53528  0.68432  0.96609  Biso   1.000  H
  H225     1.0000 0.48351  0.71960  0.94238  Biso   1.000  H
  H226     1.0000 0.53528  0.68427  0.96609  Biso   1.000  H
  H227     1.0000 0.46472  0.68432  0.03391  Biso   1.000  H
  H228     1.0000 0.51649  0.71960  0.05758  Biso   1.000  H
  H229     1.0000 0.46472  0.68427  0.03391  Biso   1.000  H
  C204     1.0000 0.19922  0.07508  0.53762  Biso   1.000  C
  C205     1.0000 0.14916  0.08840  0.57061  Biso   1.000  C
  N41      1.0000 0.23234  0.03587  0.54961  Biso   1.000  N
  H230     1.0000 0.20712  0.09721  0.50560  Biso   1.000  H
  N42      1.0000 0.23234  0.03583  0.54961  Biso   1.000  N
  H231     1.0000 0.20707  0.09721  0.50560  Biso   1.000  H
  C206     1.0000 0.13417  0.05658  0.61709  Biso   1.000  C
  C207     1.0000 0.11713  0.13417  0.55658  Biso   1.000  C
  C208     1.0000 0.11709  0.13417  0.55658  Biso   1.000  C
  C209     1.0000 0.28107  0.02885  0.51320  Biso   1.000  C
  C210     1.0000 0.28107  0.02881  0.51320  Biso   1.000  C
  H232     1.0000 0.15580  0.02480  0.62677  Biso   1.000  H
  C211     1.0000 0.08840  0.07061  0.64916  Biso   1.000  C
  C212     1.0000 0.07061  0.14916  0.58840  Biso   1.000  C
  H233     1.0000 0.12677  0.15580  0.52480  Biso   1.000  H
  H234     1.0000 0.31568  0.03391  0.53528  Biso   1.000  H
  H235     1.0000 0.28040  0.05758  0.48351  Biso   1.000  H
  C213     1.0000 0.28107  0.97115  0.48680  Biso   1.000  C
  C214     1.0000 0.07508  0.03762  0.69922  Biso   1.000  C
  C215     1.0000 0.05658  0.11713  0.63417  Biso   1.000  C
  C216     1.0000 0.05658  0.11709  0.63417  Biso   1.000  C
  C217     1.0000 0.03762  0.19922  0.57508  Biso   1.000  C
  N43      1.0000 0.23234  0.96413  0.45039  Biso   1.000  N
  H236     1.0000 0.31568  0.96609  0.46472  Biso   1.000  H
  H237     1.0000 0.28040  0.94238  0.51649  Biso   1.000  H
  H238     1.0000 0.09721  0.00560  0.70707  Biso   1.000  H
  N44      1.0000 0.03587  0.04961  0.73234  Biso   1.000  N
  N45      1.0000 0.03583  0.04961  0.73234  Biso   1.000  N
  H239     1.0000 0.02480  0.12677  0.65580  Biso   1.000  H
  N46      1.0000 0.04961  0.23234  0.53583  Biso   1.000  N
  H240     1.0000 0.00560  0.20712  0.59721  Biso   1.000  H
  H241     1.0000 0.00560  0.20707  0.59721  Biso   1.000  H
  C218     1.0000 0.19922  0.92492  0.46238  Biso   1.000  C
  C219     1.0000 0.02885  0.01320  0.78107  Biso   1.000  C
  C220     1.0000 0.02881  0.01320  0.78107  Biso   1.000  C
  C221     1.0000 0.01320  0.28107  0.52885  Biso   1.000  C
  H242     1.0000 0.20712  0.90279  0.49440  Biso   1.000  H
  C222     1.0000 0.14916  0.91160  0.42939  Biso   1.000  C
  H243     1.0000 0.20707  0.90279  0.49440  Biso   1.000  H
  H244     1.0000 0.03391  0.03528  0.81568  Biso   1.000  H
  C223     1.0000 0.97115  0.98680  0.78107  Biso   1.000  C
  C224     1.0000 0.97115  0.98676  0.78107  Biso   1.000  C
  H245     1.0000 0.05758  0.98351  0.78040  Biso   1.000  H
  H246     1.0000 0.03528  0.31568  0.53391  Biso   1.000  H
  C225     1.0000 0.98680  0.28107  0.47115  Biso   1.000  C
  H247     1.0000 0.98351  0.28040  0.55758  Biso   1.000  H
  C226     1.0000 0.98676  0.28107  0.47115  Biso   1.000  C
  C227     1.0000 0.13417  0.94342  0.38287  Biso   1.000  C
  C228     1.0000 0.11713  0.86583  0.44342  Biso   1.000  C
  C229     1.0000 0.11709  0.86583  0.44342  Biso   1.000  C
  N47      1.0000 0.96413  0.95039  0.73234  Biso   1.000  N
  H248     1.0000 0.96609  0.96472  0.81568  Biso   1.000  H
  H249     1.0000 0.96609  0.96467  0.81568  Biso   1.000  H
  H250     1.0000 0.94238  0.01649  0.78040  Biso   1.000  H
  H251     1.0000 0.01649  0.28040  0.44242  Biso   1.000  H
  N48      1.0000 0.95039  0.23234  0.46413  Biso   1.000  N
  H252     1.0000 0.96472  0.31568  0.46609  Biso   1.000  H
  H253     1.0000 0.96467  0.31568  0.46609  Biso   1.000  H
  C230     1.0000 0.08840  0.92939  0.35084  Biso   1.000  C
  H254     1.0000 0.15580  0.97520  0.37318  Biso   1.000  H
  C231     1.0000 0.07061  0.85084  0.41160  Biso   1.000  C
  H255     1.0000 0.12677  0.84420  0.47520  Biso   1.000  H
  C232     1.0000 0.92492  0.96238  0.69922  Biso   1.000  C
  C233     1.0000 0.92492  0.96234  0.69922  Biso   1.000  C
  C234     1.0000 0.96238  0.19922  0.42492  Biso   1.000  C
  C235     1.0000 0.96234  0.19922  0.42492  Biso   1.000  C
  C236     1.0000 0.07508  0.96238  0.30078  Biso   1.000  C
  C237     1.0000 0.05658  0.88287  0.36583  Biso   1.000  C
  C238     1.0000 0.07508  0.96234  0.30078  Biso   1.000  C
  C239     1.0000 0.03762  0.80078  0.42492  Biso   1.000  C
  H256     1.0000 0.90279  0.99440  0.70707  Biso   1.000  H
  C240     1.0000 0.91160  0.92939  0.64916  Biso   1.000  C
  H257     1.0000 0.99440  0.20712  0.40279  Biso   1.000  H
  C241     1.0000 0.92939  0.14916  0.41160  Biso   1.000  C
  H258     1.0000 0.99440  0.20707  0.40279  Biso   1.000  H
  N49      1.0000 0.03587  0.95039  0.26766  Biso   1.000  N
  H259     1.0000 0.09721  0.99440  0.29288  Biso   1.000  H
  N50      1.0000 0.03583  0.95039  0.26766  Biso   1.000  N
  H260     1.0000 0.02480  0.87318  0.34420  Biso   1.000  H
  N51      1.0000 0.04961  0.76766  0.46413  Biso   1.000  N
  H261     1.0000 0.00560  0.79288  0.40279  Biso   1.000  H
  C242     1.0000 0.94342  0.88287  0.63417  Biso   1.000  C
  C243     1.0000 0.86583  0.94342  0.61709  Biso   1.000  C
  C244     1.0000 0.94342  0.11713  0.36583  Biso   1.000  C
  C245     1.0000 0.88287  0.13417  0.44342  Biso   1.000  C
  C246     1.0000 0.94342  0.11709  0.36583  Biso   1.000  C
  C247     1.0000 0.02885  0.98680  0.21893  Biso   1.000  C
  C248     1.0000 0.02885  0.98676  0.21893  Biso   1.000  C
  C249     1.0000 0.02881  0.98680  0.21893  Biso   1.000  C
  C250     1.0000 0.02881  0.98676  0.21893  Biso   1.000  C
  C251     1.0000 0.01320  0.71893  0.47115  Biso   1.000  C
  C252     1.0000 0.92939  0.85084  0.58840  Biso   1.000  C
  H262     1.0000 0.97520  0.87318  0.65580  Biso   1.000  H
  C253     1.0000 0.85084  0.91160  0.57061  Biso   1.000  C
  H263     1.0000 0.84420  0.97520  0.62677  Biso   1.000  H
  C254     1.0000 0.91160  0.07061  0.35084  Biso   1.000  C
  H264     1.0000 0.97520  0.12677  0.34420  Biso   1.000  H
  C255     1.0000 0.85084  0.08840  0.42939  Biso   1.000  C
  H265     1.0000 0.87318  0.15580  0.47520  Biso   1.000  H
  H266     1.0000 0.05758  0.01649  0.21960  Biso   1.000  H
  C256     1.0000 0.97115  0.01320  0.21893  Biso   1.000  C
  H267     1.0000 0.03391  0.96472  0.18432  Biso   1.000  H
  H268     1.0000 0.03391  0.96467  0.18432  Biso   1.000  H
  C257     1.0000 0.98680  0.71893  0.52885  Biso   1.000  C
  H269     1.0000 0.98351  0.71960  0.44242  Biso   1.000  H
  C258     1.0000 0.98676  0.71893  0.52885  Biso   1.000  C
  H270     1.0000 0.03528  0.68432  0.46609  Biso   1.000  H
  H271     1.0000 0.03528  0.68427  0.46609  Biso   1.000  H
  C259     1.0000 0.96238  0.80078  0.57508  Biso   1.000  C
  C260     1.0000 0.88287  0.86583  0.55658  Biso   1.000  C
  C261     1.0000 0.96234  0.80078  0.57508  Biso   1.000  C
  C262     1.0000 0.80078  0.92492  0.53762  Biso   1.000  C
  C263     1.0000 0.92492  0.03762  0.30078  Biso   1.000  C
  C264     1.0000 0.86583  0.05658  0.38287  Biso   1.000  C
  C265     1.0000 0.80078  0.07508  0.46238  Biso   1.000  C
  H272     1.0000 0.94238  0.98351  0.21960  Biso   1.000  H
  N52      1.0000 0.96413  0.04961  0.26766  Biso   1.000  N
  H273     1.0000 0.96609  0.03528  0.18432  Biso   1.000  H
  N53      1.0000 0.95039  0.76766  0.53583  Biso   1.000  N
  H274     1.0000 0.96472  0.68432  0.53391  Biso   1.000  H
  H275     1.0000 0.96472  0.68427  0.53391  Biso   1.000  H
  H276     1.0000 0.96467  0.68432  0.53391  Biso   1.000  H
  H277     1.0000 0.96467  0.68427  0.53391  Biso   1.000  H
  H278     1.0000 0.01649  0.71960  0.55758  Biso   1.000  H
  H279     1.0000 0.99440  0.79288  0.59721  Biso   1.000  H
  H280     1.0000 0.87318  0.84420  0.52480  Biso   1.000  H
  N54      1.0000 0.76766  0.96413  0.54961  Biso   1.000  N
  H281     1.0000 0.79288  0.90279  0.50560  Biso   1.000  H
  H282     1.0000 0.90279  0.00560  0.29288  Biso   1.000  H
  H283     1.0000 0.84420  0.02480  0.37318  Biso   1.000  H
  N55      1.0000 0.76766  0.03587  0.45039  Biso   1.000  N
  H284     1.0000 0.79288  0.09721  0.49440  Biso   1.000  H
  N56      1.0000 0.76766  0.03583  0.45039  Biso   1.000  N
  C266     1.0000 0.71893  0.97115  0.51320  Biso   1.000  C
  C267     1.0000 0.71893  0.02885  0.48680  Biso   1.000  C
  C268     1.0000 0.71893  0.02881  0.48680  Biso   1.000  C
  H285     1.0000 0.68432  0.96609  0.53528  Biso   1.000  H
  H286     1.0000 0.71960  0.94238  0.48351  Biso   1.000  H
  H287     1.0000 0.68427  0.96609  0.53528  Biso   1.000  H
  H288     1.0000 0.68432  0.03391  0.46472  Biso   1.000  H
  H289     1.0000 0.71960  0.05758  0.51649  Biso   1.000  H
  H290     1.0000 0.68427  0.03391  0.46472  Biso   1.000  H
  C269     1.0000 0.07508  0.53762  0.19922  Biso   1.000  C
  C270     1.0000 0.08840  0.57061  0.14916  Biso   1.000  C
  N57      1.0000 0.03587  0.54961  0.23234  Biso   1.000  N
  H291     1.0000 0.09721  0.50560  0.20712  Biso   1.000  H
  H292     1.0000 0.09721  0.50560  0.20707  Biso   1.000  H
  N58      1.0000 0.03583  0.54961  0.23234  Biso   1.000  N
  C271     1.0000 0.05658  0.61709  0.13417  Biso   1.000  C
  C272     1.0000 0.13417  0.55658  0.11713  Biso   1.000  C
  C273     1.0000 0.13417  0.55658  0.11709  Biso   1.000  C
  C274     1.0000 0.02885  0.51320  0.28107  Biso   1.000  C
  C275     1.0000 0.02881  0.51320  0.28107  Biso   1.000  C
  H293     1.0000 0.02480  0.62677  0.15580  Biso   1.000  H
  C276     1.0000 0.07061  0.64916  0.08840  Biso   1.000  C
  C277     1.0000 0.14916  0.58840  0.07061  Biso   1.000  C
  H294     1.0000 0.15580  0.52480  0.12677  Biso   1.000  H
  H295     1.0000 0.03391  0.53528  0.31568  Biso   1.000  H
  H296     1.0000 0.05758  0.48351  0.28040  Biso   1.000  H
  C278     1.0000 0.97115  0.48680  0.28107  Biso   1.000  C
  C279     1.0000 0.03762  0.69922  0.07508  Biso   1.000  C
  C280     1.0000 0.11713  0.63417  0.05658  Biso   1.000  C
  C281     1.0000 0.11709  0.63417  0.05658  Biso   1.000  C
  C282     1.0000 0.19922  0.57508  0.03762  Biso   1.000  C
  N59      1.0000 0.96413  0.45039  0.23234  Biso   1.000  N
  H297     1.0000 0.96609  0.46472  0.31568  Biso   1.000  H
  H298     1.0000 0.94238  0.51649  0.28040  Biso   1.000  H
  H299     1.0000 0.00560  0.70707  0.09721  Biso   1.000  H
  N60      1.0000 0.04961  0.73234  0.03587  Biso   1.000  N
  N61      1.0000 0.04961  0.73234  0.03583  Biso   1.000  N
  H300     1.0000 0.12677  0.65580  0.02480  Biso   1.000  H
  N62      1.0000 0.23234  0.53583  0.04961  Biso   1.000  N
  H301     1.0000 0.20712  0.59721  0.00560  Biso   1.000  H
  H302     1.0000 0.20707  0.59721  0.00560  Biso   1.000  H
  C283     1.0000 0.92492  0.46238  0.19922  Biso   1.000  C
  C284     1.0000 0.01320  0.78107  0.02885  Biso   1.000  C
  C285     1.0000 0.01320  0.78107  0.02881  Biso   1.000  C
  C286     1.0000 0.28107  0.52885  0.01320  Biso   1.000  C
  H303     1.0000 0.90279  0.49440  0.20712  Biso   1.000  H
  C287     1.0000 0.91160  0.42939  0.14916  Biso   1.000  C
  H304     1.0000 0.90279  0.49440  0.20707  Biso   1.000  H
  H305     1.0000 0.03528  0.81568  0.03391  Biso   1.000  H
  C288     1.0000 0.98680  0.78107  0.97115  Biso   1.000  C
  C289     1.0000 0.98676  0.78107  0.97115  Biso   1.000  C
  H306     1.0000 0.98351  0.78040  0.05758  Biso   1.000  H
  H307     1.0000 0.31568  0.53391  0.03528  Biso   1.000  H
  C290     1.0000 0.28107  0.47115  0.98680  Biso   1.000  C
  H308     1.0000 0.28040  0.55758  0.98351  Biso   1.000  H
  C291     1.0000 0.28107  0.47115  0.98676  Biso   1.000  C
  C292     1.0000 0.94342  0.38287  0.13417  Biso   1.000  C
  C293     1.0000 0.86583  0.44342  0.11713  Biso   1.000  C
  C294     1.0000 0.86583  0.44342  0.11709  Biso   1.000  C
  N63      1.0000 0.95039  0.73234  0.96413  Biso   1.000  N
  H309     1.0000 0.96472  0.81568  0.96609  Biso   1.000  H
  H310     1.0000 0.96467  0.81568  0.96609  Biso   1.000  H
  H311     1.0000 0.01649  0.78040  0.94238  Biso   1.000  H
  H312     1.0000 0.28040  0.44242  0.01649  Biso   1.000  H
  N64      1.0000 0.23234  0.46413  0.95039  Biso   1.000  N
  H313     1.0000 0.31568  0.46609  0.96472  Biso   1.000  H
  H314     1.0000 0.31568  0.46609  0.96467  Biso   1.000  H
  C295     1.0000 0.92939  0.35084  0.08840  Biso   1.000  C
  H315     1.0000 0.97520  0.37318  0.15580  Biso   1.000  H
  C296     1.0000 0.85084  0.41160  0.07061  Biso   1.000  C
  H316     1.0000 0.84420  0.47520  0.12677  Biso   1.000  H
  C297     1.0000 0.96238  0.69922  0.92492  Biso   1.000  C
  C298     1.0000 0.96234  0.69922  0.92492  Biso   1.000  C
  C299     1.0000 0.19922  0.42492  0.96238  Biso   1.000  C
  C300     1.0000 0.19922  0.42492  0.96234  Biso   1.000  C
  C301     1.0000 0.96238  0.30078  0.07508  Biso   1.000  C
  C302     1.0000 0.88287  0.36583  0.05658  Biso   1.000  C
  C303     1.0000 0.96234  0.30078  0.07508  Biso   1.000  C
  C304     1.0000 0.80078  0.42492  0.03762  Biso   1.000  C
  H317     1.0000 0.99440  0.70707  0.90279  Biso   1.000  H
  C305     1.0000 0.92939  0.64916  0.91160  Biso   1.000  C
  H318     1.0000 0.20712  0.40279  0.99440  Biso   1.000  H
  C306     1.0000 0.14916  0.41160  0.92939  Biso   1.000  C
  H319     1.0000 0.20707  0.40279  0.99440  Biso   1.000  H
  N65      1.0000 0.95039  0.26766  0.03587  Biso   1.000  N
  H320     1.0000 0.99440  0.29288  0.09721  Biso   1.000  H
  N66      1.0000 0.95039  0.26766  0.03583  Biso   1.000  N
  H321     1.0000 0.87318  0.34420  0.02480  Biso   1.000  H
  N67      1.0000 0.76766  0.46413  0.04961  Biso   1.000  N
  H322     1.0000 0.79288  0.40279  0.00560  Biso   1.000  H
  C307     1.0000 0.88287  0.63417  0.94342  Biso   1.000  C
  C308     1.0000 0.94342  0.61709  0.86583  Biso   1.000  C
  C309     1.0000 0.11713  0.36583  0.94342  Biso   1.000  C
  C310     1.0000 0.13417  0.44342  0.88287  Biso   1.000  C
  C311     1.0000 0.11709  0.36583  0.94342  Biso   1.000  C
  C312     1.0000 0.98680  0.21893  0.02885  Biso   1.000  C
  C313     1.0000 0.98680  0.21893  0.02881  Biso   1.000  C
  C314     1.0000 0.98676  0.21893  0.02885  Biso   1.000  C
  C315     1.0000 0.98676  0.21893  0.02881  Biso   1.000  C
  C316     1.0000 0.71893  0.47115  0.01320  Biso   1.000  C
  C317     1.0000 0.85084  0.58840  0.92939  Biso   1.000  C
  H323     1.0000 0.87318  0.65580  0.97520  Biso   1.000  H
  C318     1.0000 0.91160  0.57061  0.85084  Biso   1.000  C
  H324     1.0000 0.97520  0.62677  0.84420  Biso   1.000  H
  C319     1.0000 0.07061  0.35084  0.91160  Biso   1.000  C
  H325     1.0000 0.12677  0.34420  0.97520  Biso   1.000  H
  C320     1.0000 0.08840  0.42939  0.85084  Biso   1.000  C
  H326     1.0000 0.15580  0.47520  0.87318  Biso   1.000  H
  H327     1.0000 0.01649  0.21960  0.05758  Biso   1.000  H
  H328     1.0000 0.96472  0.18432  0.03391  Biso   1.000  H
  H329     1.0000 0.96467  0.18432  0.03391  Biso   1.000  H
  C321     1.0000 0.01320  0.21893  0.97115  Biso   1.000  C
  C322     1.0000 0.71893  0.52885  0.98680  Biso   1.000  C
  H330     1.0000 0.71960  0.44242  0.98351  Biso   1.000  H
  C323     1.0000 0.71893  0.52885  0.98676  Biso   1.000  C
  H331     1.0000 0.68432  0.46609  0.03528  Biso   1.000  H
  H332     1.0000 0.68427  0.46609  0.03528  Biso   1.000  H
  C324     1.0000 0.80078  0.57508  0.96238  Biso   1.000  C
  C325     1.0000 0.86583  0.55658  0.88287  Biso   1.000  C
  C326     1.0000 0.80078  0.57508  0.96234  Biso   1.000  C
  C327     1.0000 0.92492  0.53762  0.80078  Biso   1.000  C
  C328     1.0000 0.03762  0.30078  0.92492  Biso   1.000  C
  C329     1.0000 0.05658  0.38287  0.86583  Biso   1.000  C
  C330     1.0000 0.07508  0.46238  0.80078  Biso   1.000  C
  H333     1.0000 0.98351  0.21960  0.94238  Biso   1.000  H
  N68      1.0000 0.04961  0.26766  0.96413  Biso   1.000  N
  H334     1.0000 0.03528  0.18432  0.96609  Biso   1.000  H
  N69      1.0000 0.76766  0.53583  0.95039  Biso   1.000  N
  H335     1.0000 0.68432  0.53391  0.96472  Biso   1.000  H
  H336     1.0000 0.68432  0.53391  0.96467  Biso   1.000  H
  H337     1.0000 0.68427  0.53391  0.96472  Biso   1.000  H
  H338     1.0000 0.68427  0.53391  0.96467  Biso   1.000  H
  H339     1.0000 0.71960  0.55758  0.01649  Biso   1.000  H
  H340     1.0000 0.79288  0.59721  0.99440  Biso   1.000  H
  H341     1.0000 0.84420  0.52480  0.87318  Biso   1.000  H
  N70      1.0000 0.96413  0.54961  0.76766  Biso   1.000  N
  H342     1.0000 0.90279  0.50560  0.79288  Biso   1.000  H
  H343     1.0000 0.00560  0.29288  0.90279  Biso   1.000  H
  H344     1.0000 0.02480  0.37318  0.84420  Biso   1.000  H
  N71      1.0000 0.03587  0.45039  0.76766  Biso   1.000  N
  H345     1.0000 0.09721  0.49440  0.79288  Biso   1.000  H
  N72      1.0000 0.03583  0.45039  0.76766  Biso   1.000  N
  C331     1.0000 0.97115  0.51320  0.71893  Biso   1.000  C
  C332     1.0000 0.02885  0.48680  0.71893  Biso   1.000  C
  C333     1.0000 0.02881  0.48680  0.71893  Biso   1.000  C
  H346     1.0000 0.96609  0.53528  0.68432  Biso   1.000  H
  H347     1.0000 0.96609  0.53528  0.68427  Biso   1.000  H
  H348     1.0000 0.94238  0.48351  0.71960  Biso   1.000  H
  H349     1.0000 0.03391  0.46472  0.68432  Biso   1.000  H
  H350     1.0000 0.05758  0.51649  0.71960  Biso   1.000  H
  H351     1.0000 0.03391  0.46472  0.68427  Biso   1.000  H
  C334     1.0000 0.70219  0.22361  0.36959  Biso   1.000  C
  C335     1.0000 0.71613  0.21375  0.41277  Biso   1.000  C
  H352     1.0000 0.67651  0.21179  0.40129  Biso   1.000  H
  C336     1.0000 0.75000  0.25000  0.36917  Biso   1.000  C
  C337     1.0000 0.69300  0.19058  0.42459  Biso   1.000  C
  H353     1.0000 0.70098  0.19730  0.33769  Biso   1.000  H
  H354     1.0000 0.67150  0.25092  0.36479  Biso   1.000  H
  C338     1.0000 0.72023  0.23902  0.47069  Biso   1.000  C
  H355     1.0000 0.73121  0.17530  0.41340  Biso   1.000  H
  C339     1.0000 0.78382  0.28625  0.41277  Biso   1.000  C
  H356     1.0000 0.77468  0.22691  0.34542  Biso   1.000  H
  H357     1.0000 0.72528  0.27309  0.34542  Biso   1.000  H
  C340     1.0000 0.79781  0.27639  0.36959  Biso   1.000  C
  H358     1.0000 0.71409  0.15509  0.42509  Biso   1.000  H
  H359     1.0000 0.65300  0.18319  0.43169  Biso   1.000  H
  N73      1.0000 0.71108  0.20106  0.51716  Biso   1.000  N
  C341     1.0000 0.77973  0.26098  0.47069  Biso   1.000  C
  H360     1.0000 0.69371  0.27109  0.47361  Biso   1.000  H
  H361     1.0000 0.82349  0.28821  0.40129  Biso   1.000  H
  H362     1.0000 0.76879  0.32470  0.41340  Biso   1.000  H
  C342     1.0000 0.80700  0.30938  0.42459  Biso   1.000  C
  H363     1.0000 0.79898  0.30270  0.33769  Biso   1.000  H
  H364     1.0000 0.82850  0.24908  0.36479  Biso   1.000  H
  C343     1.0000 0.67296  0.21371  0.55115  Biso   1.000  C
  N74      1.0000 0.78888  0.29894  0.51716  Biso   1.000  N
  H365     1.0000 0.80629  0.22891  0.47361  Biso   1.000  H
  H366     1.0000 0.78591  0.34491  0.42509  Biso   1.000  H
  H367     1.0000 0.84700  0.31681  0.43169  Biso   1.000  H
  H368     1.0000 0.65179  0.24662  0.54481  Biso   1.000  H
  C344     1.0000 0.66018  0.17935  0.60022  Biso   1.000  C
  C345     1.0000 0.82704  0.28629  0.55115  Biso   1.000  C
  C346     1.0000 0.69258  0.13308  0.61441  Biso   1.000  C
  C347     1.0000 0.61441  0.19263  0.63308  Biso   1.000  C
  H369     1.0000 0.84821  0.25338  0.54481  Biso   1.000  H
  C348     1.0000 0.83982  0.32065  0.60022  Biso   1.000  C
  C349     1.0000 0.67931  0.10026  0.66018  Biso   1.000  C
  H370     1.0000 0.72428  0.12402  0.59241  Biso   1.000  H
  C350     1.0000 0.60022  0.16018  0.67931  Biso   1.000  C
  H371     1.0000 0.59241  0.22428  0.62398  Biso   1.000  H
  C351     1.0000 0.80737  0.36688  0.61441  Biso   1.000  C
  C352     1.0000 0.88559  0.30737  0.63308  Biso   1.000  C
  C353     1.0000 0.71371  0.05115  0.67296  Biso   1.000  C
  C354     1.0000 0.63308  0.11441  0.69258  Biso   1.000  C
  C355     1.0000 0.55115  0.17296  0.71371  Biso   1.000  C
  C356     1.0000 0.82065  0.39974  0.66018  Biso   1.000  C
  H372     1.0000 0.77568  0.37598  0.59241  Biso   1.000  H
  C357     1.0000 0.89974  0.33982  0.67931  Biso   1.000  C
  H373     1.0000 0.90759  0.27568  0.62398  Biso   1.000  H
  N75      1.0000 0.70106  0.01716  0.71108  Biso   1.000  N
  H374     1.0000 0.74658  0.04481  0.65179  Biso   1.000  H
  H375     1.0000 0.62398  0.09241  0.72428  Biso   1.000  H
  N76      1.0000 0.51716  0.21108  0.70106  Biso   1.000  N
  H376     1.0000 0.54481  0.15179  0.74658  Biso   1.000  H
  C358     1.0000 0.78629  0.44881  0.67296  Biso   1.000  C
  C359     1.0000 0.86688  0.38559  0.69258  Biso   1.000  C
  C360     1.0000 0.94881  0.32704  0.71371  Biso   1.000  C
  C361     1.0000 0.73898  0.97069  0.72023  Biso   1.000  C
  C362     1.0000 0.47069  0.22027  0.73898  Biso   1.000  C
  N77      1.0000 0.79894  0.48280  0.71108  Biso   1.000  N
  H377     1.0000 0.75338  0.45519  0.65179  Biso   1.000  H
  H378     1.0000 0.87598  0.40759  0.72428  Biso   1.000  H
  N78      1.0000 0.98280  0.28892  0.70106  Biso   1.000  N
  H379     1.0000 0.95519  0.34821  0.74658  Biso   1.000  H
  C363     1.0000 0.76098  0.97069  0.77973  Biso   1.000  C
  H380     1.0000 0.77109  0.97361  0.69371  Biso   1.000  H
  C364     1.0000 0.71375  0.91277  0.71613  Biso   1.000  C
  C365     1.0000 0.69058  0.92459  0.69300  Biso   1.000  C
  C366     1.0000 0.47069  0.27973  0.76098  Biso   1.000  C
  H381     1.0000 0.47361  0.19371  0.77109  Biso   1.000  H
  C367     1.0000 0.41277  0.21613  0.71375  Biso   1.000  C
  C368     1.0000 0.42459  0.19300  0.69058  Biso   1.000  C
  C369     1.0000 0.76098  0.52931  0.72023  Biso   1.000  C
  C370     1.0000 0.02931  0.27973  0.73898  Biso   1.000  C
  N79      1.0000 0.79894  0.01716  0.78888  Biso   1.000  N
  H382     1.0000 0.72891  0.97361  0.80629  Biso   1.000  H
  C371     1.0000 0.78625  0.91277  0.78382  Biso   1.000  C
  C372     1.0000 0.80938  0.92459  0.80700  Biso   1.000  C
  H383     1.0000 0.71179  0.90129  0.67651  Biso   1.000  H
  H384     1.0000 0.67530  0.91340  0.73121  Biso   1.000  H
  C373     1.0000 0.75000  0.86917  0.75000  Biso   1.000  C
  C374     1.0000 0.72361  0.86959  0.70219  Biso   1.000  C
  H385     1.0000 0.65509  0.92509  0.71409  Biso   1.000  H
  H386     1.0000 0.68319  0.93169  0.65300  Biso   1.000  H
  N80      1.0000 0.51716  0.28892  0.79894  Biso   1.000  N
  H387     1.0000 0.47361  0.30629  0.72891  Biso   1.000  H
  C375     1.0000 0.41277  0.28387  0.78625  Biso   1.000  C
  C376     1.0000 0.42459  0.30700  0.80938  Biso   1.000  C
  H388     1.0000 0.40129  0.17651  0.71179  Biso   1.000  H
  H389     1.0000 0.41340  0.23121  0.67530  Biso   1.000  H
  C377     1.0000 0.36917  0.25000  0.75000  Biso   1.000  C
  C378     1.0000 0.36959  0.20219  0.72361  Biso   1.000  C
  H390     1.0000 0.42509  0.21409  0.65509  Biso   1.000  H
  H391     1.0000 0.43169  0.15300  0.68319  Biso   1.000  H
  C379     1.0000 0.73898  0.52931  0.77973  Biso   1.000  C
  H392     1.0000 0.72891  0.52639  0.69371  Biso   1.000  H
  C380     1.0000 0.78625  0.58723  0.71613  Biso   1.000  C
  C381     1.0000 0.80938  0.57541  0.69300  Biso   1.000  C
  C382     1.0000 0.02931  0.22027  0.76098  Biso   1.000  C
  H393     1.0000 0.02639  0.30629  0.77109  Biso   1.000  H
  C383     1.0000 0.08723  0.28387  0.71375  Biso   1.000  C
  C384     1.0000 0.07541  0.30700  0.69058  Biso   1.000  C
  C385     1.0000 0.78629  0.05115  0.82704  Biso   1.000  C
  H394     1.0000 0.78821  0.90129  0.82349  Biso   1.000  H
  H395     1.0000 0.82470  0.91340  0.76879  Biso   1.000  H
  C386     1.0000 0.77639  0.86959  0.79781  Biso   1.000  C
  H396     1.0000 0.84487  0.92509  0.78591  Biso   1.000  H
  H397     1.0000 0.81681  0.93169  0.84700  Biso   1.000  H
  H398     1.0000 0.72691  0.84542  0.77468  Biso   1.000  H
  H399     1.0000 0.77309  0.84542  0.72528  Biso   1.000  H
  H400     1.0000 0.69730  0.83769  0.70098  Biso   1.000  H
  H401     1.0000 0.75088  0.86479  0.67150  Biso   1.000  H
  C387     1.0000 0.55115  0.32704  0.78629  Biso   1.000  C
  H402     1.0000 0.40129  0.32349  0.78821  Biso   1.000  H
  H403     1.0000 0.41340  0.26879  0.82470  Biso   1.000  H
  C388     1.0000 0.36959  0.29781  0.77639  Biso   1.000  C
  H404     1.0000 0.42509  0.28591  0.84487  Biso   1.000  H
  H405     1.0000 0.43169  0.34700  0.81681  Biso   1.000  H
  H406     1.0000 0.34542  0.22528  0.77309  Biso   1.000  H
  H407     1.0000 0.34542  0.27468  0.72691  Biso   1.000  H
  H408     1.0000 0.33769  0.20102  0.69730  Biso   1.000  H
  H409     1.0000 0.36479  0.17150  0.75088  Biso   1.000  H
  N81      1.0000 0.70106  0.48280  0.78888  Biso   1.000  N
  H410     1.0000 0.77109  0.52639  0.80629  Biso   1.000  H
  C389     1.0000 0.71375  0.58723  0.78382  Biso   1.000  C
  C390     1.0000 0.69058  0.57541  0.80700  Biso   1.000  C
  H411     1.0000 0.78821  0.59871  0.67651  Biso   1.000  H
  H412     1.0000 0.82470  0.58660  0.73121  Biso   1.000  H
  C391     1.0000 0.75000  0.63083  0.75000  Biso   1.000  C
  C392     1.0000 0.77639  0.63041  0.70219  Biso   1.000  C
  H413     1.0000 0.84487  0.57491  0.71409  Biso   1.000  H
  H414     1.0000 0.81681  0.56831  0.65300  Biso   1.000  H
  N82      1.0000 0.98280  0.21108  0.79894  Biso   1.000  N
  H415     1.0000 0.02639  0.19371  0.72891  Biso   1.000  H
  C393     1.0000 0.08723  0.21613  0.78625  Biso   1.000  C
  C394     1.0000 0.07541  0.19300  0.80938  Biso   1.000  C
  C395     1.0000 0.13083  0.25000  0.75000  Biso   1.000  C
  H416     1.0000 0.09867  0.32349  0.71179  Biso   1.000  H
  H417     1.0000 0.08660  0.26879  0.67530  Biso   1.000  H
  C396     1.0000 0.13041  0.29781  0.72361  Biso   1.000  C
  H418     1.0000 0.07491  0.28591  0.65509  Biso   1.000  H
  H419     1.0000 0.06831  0.34700  0.68319  Biso   1.000  H
  H420     1.0000 0.75338  0.04481  0.84821  Biso   1.000  H
  C397     1.0000 0.82065  0.10026  0.83982  Biso   1.000  C
  H421     1.0000 0.80270  0.83769  0.79898  Biso   1.000  H
  H422     1.0000 0.74908  0.86479  0.82850  Biso   1.000  H
  H423     1.0000 0.54481  0.34821  0.75338  Biso   1.000  H
  C398     1.0000 0.60022  0.33982  0.82065  Biso   1.000  C
  H424     1.0000 0.33769  0.29898  0.80270  Biso   1.000  H
  H425     1.0000 0.36479  0.32850  0.74908  Biso   1.000  H
  C399     1.0000 0.71371  0.44881  0.82704  Biso   1.000  C
  H426     1.0000 0.71179  0.59871  0.82349  Biso   1.000  H
  H427     1.0000 0.67530  0.58660  0.76879  Biso   1.000  H
  C400     1.0000 0.72361  0.63041  0.79781  Biso   1.000  C
  H428     1.0000 0.65509  0.57491  0.78591  Biso   1.000  H
  H429     1.0000 0.68319  0.56831  0.84700  Biso   1.000  H
  H430     1.0000 0.72691  0.65458  0.72528  Biso   1.000  H
  H431     1.0000 0.77309  0.65458  0.77468  Biso   1.000  H
  H432     1.0000 0.80270  0.66231  0.70098  Biso   1.000  H
  H433     1.0000 0.74908  0.63521  0.67150  Biso   1.000  H
  C401     1.0000 0.94881  0.17296  0.78629  Biso   1.000  C
  H434     1.0000 0.09867  0.17651  0.78821  Biso   1.000  H
  H435     1.0000 0.08660  0.23121  0.82470  Biso   1.000  H
  C402     1.0000 0.13041  0.20219  0.77639  Biso   1.000  C
  H436     1.0000 0.07491  0.21409  0.84487  Biso   1.000  H
  H437     1.0000 0.06831  0.15300  0.81681  Biso   1.000  H
  H438     1.0000 0.15458  0.22528  0.72691  Biso   1.000  H
  H439     1.0000 0.15458  0.27468  0.77309  Biso   1.000  H
  H440     1.0000 0.16231  0.29898  0.69730  Biso   1.000  H
  H441     1.0000 0.13521  0.32850  0.75088  Biso   1.000  H
  C403     1.0000 0.86688  0.11441  0.80737  Biso   1.000  C
  C404     1.0000 0.80737  0.13308  0.88559  Biso   1.000  C
  C405     1.0000 0.61441  0.30737  0.86688  Biso   1.000  C
  C406     1.0000 0.63308  0.38559  0.80737  Biso   1.000  C
  H442     1.0000 0.74658  0.45519  0.84821  Biso   1.000  H
  C407     1.0000 0.67931  0.39974  0.83982  Biso   1.000  C
  H443     1.0000 0.69730  0.66231  0.79898  Biso   1.000  H
  H444     1.0000 0.75088  0.63521  0.82850  Biso   1.000  H
  H445     1.0000 0.95519  0.15179  0.75338  Biso   1.000  H
  C408     1.0000 0.89974  0.16018  0.82065  Biso   1.000  C
  H446     1.0000 0.16231  0.20102  0.80270  Biso   1.000  H
  H447     1.0000 0.13521  0.17150  0.74908  Biso   1.000  H
  H448     1.0000 0.87598  0.09241  0.77568  Biso   1.000  H
  C409     1.0000 0.83982  0.17935  0.89974  Biso   1.000  C
  H449     1.0000 0.77568  0.12402  0.90759  Biso   1.000  H
  C410     1.0000 0.66018  0.32065  0.89974  Biso   1.000  C
  H450     1.0000 0.59241  0.27568  0.87598  Biso   1.000  H
  H451     1.0000 0.62398  0.40759  0.77568  Biso   1.000  H
  C411     1.0000 0.69258  0.36688  0.88559  Biso   1.000  C
  C412     1.0000 0.88559  0.19263  0.86688  Biso   1.000  C
  C413     1.0000 0.82704  0.21371  0.94881  Biso   1.000  C
  C414     1.0000 0.67296  0.28629  0.94881  Biso   1.000  C
  H452     1.0000 0.72428  0.37598  0.90759  Biso   1.000  H
  H453     1.0000 0.90759  0.22428  0.87598  Biso   1.000  H
  N83      1.0000 0.78888  0.20106  0.98280  Biso   1.000  N
  H454     1.0000 0.84821  0.24662  0.95519  Biso   1.000  H
  N84      1.0000 0.71108  0.29894  0.98280  Biso   1.000  N
  H455     1.0000 0.65179  0.25338  0.95519  Biso   1.000  H
  C415     1.0000 0.77973  0.23902  0.02931  Biso   1.000  C
  C416     1.0000 0.72023  0.26098  0.02931  Biso   1.000  C
  H456     1.0000 0.80629  0.27109  0.02639  Biso   1.000  H
  C417     1.0000 0.78382  0.21375  0.08723  Biso   1.000  C
  C418     1.0000 0.80700  0.19058  0.07541  Biso   1.000  C
  H457     1.0000 0.69371  0.22891  0.02639  Biso   1.000  H
  C419     1.0000 0.71613  0.28625  0.08723  Biso   1.000  C
  C420     1.0000 0.69300  0.30938  0.07541  Biso   1.000  C
  H458     1.0000 0.82349  0.21179  0.09867  Biso   1.000  H
  H459     1.0000 0.76879  0.17530  0.08660  Biso   1.000  H
  C421     1.0000 0.75000  0.25000  0.13083  Biso   1.000  C
  C422     1.0000 0.79781  0.22361  0.13041  Biso   1.000  C
  H460     1.0000 0.78591  0.15509  0.07491  Biso   1.000  H
  H461     1.0000 0.84700  0.18319  0.06831  Biso   1.000  H
  H462     1.0000 0.67651  0.28821  0.09867  Biso   1.000  H
  H463     1.0000 0.73121  0.32470  0.08660  Biso   1.000  H
  C423     1.0000 0.70219  0.27639  0.13041  Biso   1.000  C
  H464     1.0000 0.71409  0.34491  0.07491  Biso   1.000  H
  H465     1.0000 0.65300  0.31681  0.06831  Biso   1.000  H
  H466     1.0000 0.77468  0.27309  0.15458  Biso   1.000  H
  H467     1.0000 0.72528  0.22691  0.15458  Biso   1.000  H
  H468     1.0000 0.79898  0.19730  0.16231  Biso   1.000  H
  H469     1.0000 0.82850  0.25092  0.13521  Biso   1.000  H
  H470     1.0000 0.70098  0.30270  0.16231  Biso   1.000  H
  H471     1.0000 0.67150  0.24908  0.13521  Biso   1.000  H
  C424     1.0000 0.36959  0.70219  0.22361  Biso   1.000  C
  C425     1.0000 0.41277  0.71613  0.21375  Biso   1.000  C
  H472     1.0000 0.40129  0.67651  0.21179  Biso   1.000  H
  C426     1.0000 0.36917  0.75000  0.25000  Biso   1.000  C
  C427     1.0000 0.42459  0.69300  0.19058  Biso   1.000  C
  H473     1.0000 0.33769  0.70098  0.19730  Biso   1.000  H
  H474     1.0000 0.36479  0.67150  0.25092  Biso   1.000  H
  C428     1.0000 0.47069  0.72023  0.23902  Biso   1.000  C
  H475     1.0000 0.41340  0.73121  0.17530  Biso   1.000  H
  C429     1.0000 0.41277  0.78382  0.28625  Biso   1.000  C
  H476     1.0000 0.34542  0.77468  0.22691  Biso   1.000  H
  H477     1.0000 0.34542  0.72528  0.27309  Biso   1.000  H
  C430     1.0000 0.36959  0.79781  0.27639  Biso   1.000  C
  H478     1.0000 0.42509  0.71409  0.15509  Biso   1.000  H
  H479     1.0000 0.43169  0.65300  0.18319  Biso   1.000  H
  N85      1.0000 0.51716  0.71108  0.20106  Biso   1.000  N
  C431     1.0000 0.47069  0.77973  0.26098  Biso   1.000  C
  H480     1.0000 0.47361  0.69371  0.27109  Biso   1.000  H
  H481     1.0000 0.40129  0.82349  0.28821  Biso   1.000  H
  H482     1.0000 0.41340  0.76879  0.32470  Biso   1.000  H
  C432     1.0000 0.42459  0.80700  0.30938  Biso   1.000  C
  H483     1.0000 0.33769  0.79898  0.30270  Biso   1.000  H
  H484     1.0000 0.36479  0.82850  0.24908  Biso   1.000  H
  C433     1.0000 0.55115  0.67296  0.21371  Biso   1.000  C
  N86      1.0000 0.51716  0.78888  0.29894  Biso   1.000  N
  H485     1.0000 0.47361  0.80629  0.22891  Biso   1.000  H
  H486     1.0000 0.42509  0.78591  0.34491  Biso   1.000  H
  H487     1.0000 0.43169  0.84700  0.31681  Biso   1.000  H
  H488     1.0000 0.54481  0.65179  0.24662  Biso   1.000  H
  C434     1.0000 0.60022  0.66018  0.17935  Biso   1.000  C
  C435     1.0000 0.55115  0.82704  0.28629  Biso   1.000  C
  C436     1.0000 0.61441  0.69258  0.13308  Biso   1.000  C
  C437     1.0000 0.63308  0.61441  0.19263  Biso   1.000  C
  H489     1.0000 0.54481  0.84821  0.25338  Biso   1.000  H
  C438     1.0000 0.60022  0.83982  0.32065  Biso   1.000  C
  C439     1.0000 0.66018  0.67931  0.10026  Biso   1.000  C
  H490     1.0000 0.59241  0.72428  0.12402  Biso   1.000  H
  C440     1.0000 0.67931  0.60022  0.16018  Biso   1.000  C
  H491     1.0000 0.62398  0.59241  0.22428  Biso   1.000  H
  C441     1.0000 0.61441  0.80737  0.36688  Biso   1.000  C
  C442     1.0000 0.63308  0.88559  0.30737  Biso   1.000  C
  C443     1.0000 0.67296  0.71371  0.05115  Biso   1.000  C
  C444     1.0000 0.69258  0.63308  0.11441  Biso   1.000  C
  C445     1.0000 0.71371  0.55115  0.17296  Biso   1.000  C
  C446     1.0000 0.66018  0.82065  0.39974  Biso   1.000  C
  H492     1.0000 0.59241  0.77568  0.37598  Biso   1.000  H
  C447     1.0000 0.67931  0.89974  0.33982  Biso   1.000  C
  H493     1.0000 0.62398  0.90759  0.27568  Biso   1.000  H
  N87      1.0000 0.71108  0.70106  0.01716  Biso   1.000  N
  H494     1.0000 0.65179  0.74658  0.04481  Biso   1.000  H
  H495     1.0000 0.72428  0.62398  0.09241  Biso   1.000  H
  N88      1.0000 0.70106  0.51716  0.21108  Biso   1.000  N
  H496     1.0000 0.74658  0.54481  0.15179  Biso   1.000  H
  C448     1.0000 0.67296  0.78629  0.44881  Biso   1.000  C
  C449     1.0000 0.69258  0.86688  0.38559  Biso   1.000  C
  C450     1.0000 0.71371  0.94881  0.32704  Biso   1.000  C
  C451     1.0000 0.72023  0.73898  0.97069  Biso   1.000  C
  C452     1.0000 0.73898  0.47069  0.22027  Biso   1.000  C
  N89      1.0000 0.71108  0.79894  0.48280  Biso   1.000  N
  H497     1.0000 0.65179  0.75338  0.45519  Biso   1.000  H
  H498     1.0000 0.72428  0.87598  0.40759  Biso   1.000  H
  N90      1.0000 0.70106  0.98280  0.28892  Biso   1.000  N
  H499     1.0000 0.74658  0.95519  0.34821  Biso   1.000  H
  C453     1.0000 0.77973  0.76098  0.97069  Biso   1.000  C
  H500     1.0000 0.69371  0.77109  0.97361  Biso   1.000  H
  C454     1.0000 0.71613  0.71375  0.91277  Biso   1.000  C
  C455     1.0000 0.69300  0.69058  0.92459  Biso   1.000  C
  C456     1.0000 0.76098  0.47069  0.27973  Biso   1.000  C
  H501     1.0000 0.77109  0.47361  0.19371  Biso   1.000  H
  C457     1.0000 0.71375  0.41277  0.21613  Biso   1.000  C
  C458     1.0000 0.69058  0.42459  0.19300  Biso   1.000  C
  C459     1.0000 0.72023  0.76098  0.52931  Biso   1.000  C
  C460     1.0000 0.73898  0.02931  0.27973  Biso   1.000  C
  N91      1.0000 0.78888  0.79894  0.01716  Biso   1.000  N
  H502     1.0000 0.80629  0.72891  0.97361  Biso   1.000  H
  C461     1.0000 0.78382  0.78625  0.91277  Biso   1.000  C
  C462     1.0000 0.80700  0.80938  0.92459  Biso   1.000  C
  H503     1.0000 0.67651  0.71179  0.90129  Biso   1.000  H
  H504     1.0000 0.73121  0.67530  0.91340  Biso   1.000  H
  C463     1.0000 0.75000  0.75000  0.86917  Biso   1.000  C
  C464     1.0000 0.70219  0.72361  0.86959  Biso   1.000  C
  H505     1.0000 0.71409  0.65509  0.92509  Biso   1.000  H
  H506     1.0000 0.65300  0.68319  0.93169  Biso   1.000  H
  N92      1.0000 0.79894  0.51716  0.28892  Biso   1.000  N
  H507     1.0000 0.72891  0.47361  0.30629  Biso   1.000  H
  C465     1.0000 0.78625  0.41277  0.28387  Biso   1.000  C
  C466     1.0000 0.80938  0.42459  0.30700  Biso   1.000  C
  H508     1.0000 0.71179  0.40129  0.17651  Biso   1.000  H
  H509     1.0000 0.67530  0.41340  0.23121  Biso   1.000  H
  C467     1.0000 0.75000  0.36917  0.25000  Biso   1.000  C
  C468     1.0000 0.72361  0.36959  0.20219  Biso   1.000  C
  H510     1.0000 0.65509  0.42509  0.21409  Biso   1.000  H
  H511     1.0000 0.68319  0.43169  0.15300  Biso   1.000  H
  C469     1.0000 0.77973  0.73898  0.52931  Biso   1.000  C
  H512     1.0000 0.69371  0.72891  0.52639  Biso   1.000  H
  C470     1.0000 0.71613  0.78625  0.58723  Biso   1.000  C
  C471     1.0000 0.69300  0.80938  0.57541  Biso   1.000  C
  C472     1.0000 0.76098  0.02931  0.22027  Biso   1.000  C
  H513     1.0000 0.77109  0.02639  0.30629  Biso   1.000  H
  C473     1.0000 0.71375  0.08723  0.28387  Biso   1.000  C
  C474     1.0000 0.69058  0.07541  0.30700  Biso   1.000  C
  C475     1.0000 0.82704  0.78629  0.05115  Biso   1.000  C
  H514     1.0000 0.82349  0.78821  0.90129  Biso   1.000  H
  H515     1.0000 0.76879  0.82470  0.91340  Biso   1.000  H
  C476     1.0000 0.79781  0.77639  0.86959  Biso   1.000  C
  H516     1.0000 0.78591  0.84487  0.92509  Biso   1.000  H
  H517     1.0000 0.84700  0.81681  0.93169  Biso   1.000  H
  H518     1.0000 0.77468  0.72691  0.84542  Biso   1.000  H
  H519     1.0000 0.72528  0.77309  0.84542  Biso   1.000  H
  H520     1.0000 0.70098  0.69730  0.83769  Biso   1.000  H
  H521     1.0000 0.67150  0.75088  0.86479  Biso   1.000  H
  C477     1.0000 0.78629  0.55115  0.32704  Biso   1.000  C
  H522     1.0000 0.78821  0.40129  0.32349  Biso   1.000  H
  H523     1.0000 0.82470  0.41340  0.26879  Biso   1.000  H
  C478     1.0000 0.77639  0.36959  0.29781  Biso   1.000  C
  H524     1.0000 0.84487  0.42509  0.28591  Biso   1.000  H
  H525     1.0000 0.81681  0.43169  0.34700  Biso   1.000  H
  H526     1.0000 0.72691  0.34542  0.27468  Biso   1.000  H
  H527     1.0000 0.77309  0.34542  0.22528  Biso   1.000  H
  H528     1.0000 0.69730  0.33769  0.20102  Biso   1.000  H
  H529     1.0000 0.75088  0.36479  0.17150  Biso   1.000  H
  N93      1.0000 0.78888  0.70106  0.48280  Biso   1.000  N
  H530     1.0000 0.80629  0.77109  0.52639  Biso   1.000  H
  C479     1.0000 0.78382  0.71375  0.58723  Biso   1.000  C
  C480     1.0000 0.80700  0.69058  0.57541  Biso   1.000  C
  H531     1.0000 0.67651  0.78821  0.59871  Biso   1.000  H
  H532     1.0000 0.73121  0.82470  0.58660  Biso   1.000  H
  C481     1.0000 0.75000  0.75000  0.63083  Biso   1.000  C
  C482     1.0000 0.70219  0.77639  0.63041  Biso   1.000  C
  H533     1.0000 0.71409  0.84487  0.57491  Biso   1.000  H
  H534     1.0000 0.65300  0.81681  0.56831  Biso   1.000  H
  N94      1.0000 0.79894  0.98280  0.21108  Biso   1.000  N
  H535     1.0000 0.72891  0.02639  0.19371  Biso   1.000  H
  C483     1.0000 0.78625  0.08723  0.21613  Biso   1.000  C
  C484     1.0000 0.80938  0.07541  0.19300  Biso   1.000  C
  H536     1.0000 0.71179  0.09867  0.32349  Biso   1.000  H
  H537     1.0000 0.67530  0.08660  0.26879  Biso   1.000  H
  C485     1.0000 0.75000  0.13083  0.25000  Biso   1.000  C
  C486     1.0000 0.72361  0.13041  0.29781  Biso   1.000  C
  H538     1.0000 0.65509  0.07491  0.28591  Biso   1.000  H
  H539     1.0000 0.68319  0.06831  0.34700  Biso   1.000  H
  H540     1.0000 0.84821  0.75338  0.04481  Biso   1.000  H
  C487     1.0000 0.83982  0.82065  0.10026  Biso   1.000  C
  H541     1.0000 0.79898  0.80270  0.83769  Biso   1.000  H
  H542     1.0000 0.82850  0.74908  0.86479  Biso   1.000  H
  H543     1.0000 0.75338  0.54481  0.34821  Biso   1.000  H
  C488     1.0000 0.82065  0.60022  0.33982  Biso   1.000  C
  H544     1.0000 0.80270  0.33769  0.29898  Biso   1.000  H
  H545     1.0000 0.74908  0.36479  0.32850  Biso   1.000  H
  C489     1.0000 0.82704  0.71371  0.44881  Biso   1.000  C
  H546     1.0000 0.82349  0.71179  0.59871  Biso   1.000  H
  H547     1.0000 0.76879  0.67530  0.58660  Biso   1.000  H
  C490     1.0000 0.79781  0.72361  0.63041  Biso   1.000  C
  H548     1.0000 0.78591  0.65509  0.57491  Biso   1.000  H
  H549     1.0000 0.84700  0.68319  0.56831  Biso   1.000  H
  H550     1.0000 0.77468  0.77309  0.65458  Biso   1.000  H
  H551     1.0000 0.72528  0.72691  0.65458  Biso   1.000  H
  H552     1.0000 0.70098  0.80270  0.66231  Biso   1.000  H
  H553     1.0000 0.67150  0.74908  0.63521  Biso   1.000  H
  C491     1.0000 0.78629  0.94881  0.17296  Biso   1.000  C
  H554     1.0000 0.78821  0.09867  0.17651  Biso   1.000  H
  H555     1.0000 0.82470  0.08660  0.23121  Biso   1.000  H
  C492     1.0000 0.77639  0.13041  0.20219  Biso   1.000  C
  H556     1.0000 0.84487  0.07491  0.21409  Biso   1.000  H
  H557     1.0000 0.81681  0.06831  0.15300  Biso   1.000  H
  H558     1.0000 0.72691  0.15458  0.22528  Biso   1.000  H
  H559     1.0000 0.77309  0.15458  0.27468  Biso   1.000  H
  H560     1.0000 0.69730  0.16231  0.29898  Biso   1.000  H
  H561     1.0000 0.75088  0.13521  0.32850  Biso   1.000  H
  C493     1.0000 0.80737  0.86688  0.11441  Biso   1.000  C
  C494     1.0000 0.88559  0.80737  0.13308  Biso   1.000  C
  C495     1.0000 0.86688  0.61441  0.30737  Biso   1.000  C
  C496     1.0000 0.80737  0.63308  0.38559  Biso   1.000  C
  H562     1.0000 0.84821  0.74658  0.45519  Biso   1.000  H
  C497     1.0000 0.83982  0.67931  0.39974  Biso   1.000  C
  H563     1.0000 0.79898  0.69730  0.66231  Biso   1.000  H
  H564     1.0000 0.82850  0.75088  0.63521  Biso   1.000  H
  H565     1.0000 0.75338  0.95519  0.15179  Biso   1.000  H
  C498     1.0000 0.82065  0.89974  0.16018  Biso   1.000  C
  H566     1.0000 0.80270  0.16231  0.20102  Biso   1.000  H
  H567     1.0000 0.74908  0.13521  0.17150  Biso   1.000  H
  H568     1.0000 0.77568  0.87598  0.09241  Biso   1.000  H
  C499     1.0000 0.89974  0.83982  0.17935  Biso   1.000  C
  H569     1.0000 0.90759  0.77568  0.12402  Biso   1.000  H
  C500     1.0000 0.89974  0.66018  0.32065  Biso   1.000  C
  H570     1.0000 0.87598  0.59241  0.27568  Biso   1.000  H
  H571     1.0000 0.77568  0.62398  0.40759  Biso   1.000  H
  C501     1.0000 0.88559  0.69258  0.36688  Biso   1.000  C
  C502     1.0000 0.86688  0.88559  0.19263  Biso   1.000  C
  C503     1.0000 0.94881  0.82704  0.21371  Biso   1.000  C
  C504     1.0000 0.94881  0.67296  0.28629  Biso   1.000  C
  H572     1.0000 0.90759  0.72428  0.37598  Biso   1.000  H
  H573     1.0000 0.87598  0.90759  0.22428  Biso   1.000  H
  N95      1.0000 0.98280  0.78888  0.20106  Biso   1.000  N
  H574     1.0000 0.95519  0.84821  0.24662  Biso   1.000  H
  N96      1.0000 0.98280  0.71108  0.29894  Biso   1.000  N
  H575     1.0000 0.95519  0.65179  0.25338  Biso   1.000  H
  C505     1.0000 0.02931  0.77973  0.23902  Biso   1.000  C
  C506     1.0000 0.02931  0.72023  0.26098  Biso   1.000  C
  H576     1.0000 0.02639  0.80629  0.27109  Biso   1.000  H
  C507     1.0000 0.08723  0.78382  0.21375  Biso   1.000  C
  C508     1.0000 0.07541  0.80700  0.19058  Biso   1.000  C
  H577     1.0000 0.02639  0.69371  0.22891  Biso   1.000  H
  C509     1.0000 0.08723  0.71613  0.28625  Biso   1.000  C
  C510     1.0000 0.07541  0.69300  0.30938  Biso   1.000  C
  H578     1.0000 0.09867  0.82349  0.21179  Biso   1.000  H
  H579     1.0000 0.08660  0.76879  0.17530  Biso   1.000  H
  C511     1.0000 0.13083  0.75000  0.25000  Biso   1.000  C
  C512     1.0000 0.13041  0.79781  0.22361  Biso   1.000  C
  H580     1.0000 0.07491  0.78591  0.15509  Biso   1.000  H
  H581     1.0000 0.06831  0.84700  0.18319  Biso   1.000  H
  H582     1.0000 0.09867  0.67651  0.28821  Biso   1.000  H
  H583     1.0000 0.08660  0.73121  0.32470  Biso   1.000  H
  C513     1.0000 0.13041  0.70219  0.27639  Biso   1.000  C
  H584     1.0000 0.07491  0.71409  0.34491  Biso   1.000  H
  H585     1.0000 0.06831  0.65300  0.31681  Biso   1.000  H
  H586     1.0000 0.15458  0.77468  0.27309  Biso   1.000  H
  H587     1.0000 0.15458  0.72528  0.22691  Biso   1.000  H
  H588     1.0000 0.16231  0.79898  0.19730  Biso   1.000  H
  H589     1.0000 0.13521  0.82850  0.25092  Biso   1.000  H
  H590     1.0000 0.16231  0.70098  0.30270  Biso   1.000  H
  H591     1.0000 0.13521  0.67150  0.24908  Biso   1.000  H
  C514     1.0000 0.22361  0.36959  0.70219  Biso   1.000  C
  C515     1.0000 0.21375  0.41277  0.71613  Biso   1.000  C
  H592     1.0000 0.21179  0.40129  0.67651  Biso   1.000  H
  C516     1.0000 0.25000  0.36917  0.75000  Biso   1.000  C
  C517     1.0000 0.19058  0.42459  0.69300  Biso   1.000  C
  H593     1.0000 0.19730  0.33769  0.70098  Biso   1.000  H
  H594     1.0000 0.25092  0.36479  0.67150  Biso   1.000  H
  C518     1.0000 0.23902  0.47069  0.72023  Biso   1.000  C
  H595     1.0000 0.17530  0.41340  0.73121  Biso   1.000  H
  C519     1.0000 0.28625  0.41277  0.78382  Biso   1.000  C
  H596     1.0000 0.27309  0.34542  0.72528  Biso   1.000  H
  H597     1.0000 0.22691  0.34542  0.77468  Biso   1.000  H
  C520     1.0000 0.27639  0.36959  0.79781  Biso   1.000  C
  H598     1.0000 0.15509  0.42509  0.71409  Biso   1.000  H
  H599     1.0000 0.18319  0.43169  0.65300  Biso   1.000  H
  N97      1.0000 0.20106  0.51716  0.71108  Biso   1.000  N
  C521     1.0000 0.26098  0.47069  0.77973  Biso   1.000  C
  H600     1.0000 0.27109  0.47361  0.69371  Biso   1.000  H
  H601     1.0000 0.28821  0.40129  0.82349  Biso   1.000  H
  H602     1.0000 0.32470  0.41340  0.76879  Biso   1.000  H
  C522     1.0000 0.30938  0.42459  0.80700  Biso   1.000  C
  H603     1.0000 0.30270  0.33769  0.79898  Biso   1.000  H
  H604     1.0000 0.24908  0.36479  0.82850  Biso   1.000  H
  C523     1.0000 0.21371  0.55115  0.67296  Biso   1.000  C
  N98      1.0000 0.29894  0.51716  0.78888  Biso   1.000  N
  H605     1.0000 0.22891  0.47361  0.80629  Biso   1.000  H
  H606     1.0000 0.34491  0.42509  0.78591  Biso   1.000  H
  H607     1.0000 0.31681  0.43169  0.84700  Biso   1.000  H
  H608     1.0000 0.24662  0.54481  0.65179  Biso   1.000  H
  C524     1.0000 0.17935  0.60022  0.66018  Biso   1.000  C
  C525     1.0000 0.28629  0.55115  0.82704  Biso   1.000  C
  C526     1.0000 0.13308  0.61441  0.69258  Biso   1.000  C
  C527     1.0000 0.19263  0.63308  0.61441  Biso   1.000  C
  H609     1.0000 0.25338  0.54481  0.84821  Biso   1.000  H
  C528     1.0000 0.32065  0.60022  0.83982  Biso   1.000  C
  C529     1.0000 0.10026  0.66018  0.67931  Biso   1.000  C
  H610     1.0000 0.12402  0.59241  0.72428  Biso   1.000  H
  C530     1.0000 0.16018  0.67931  0.60022  Biso   1.000  C
  H611     1.0000 0.22428  0.62398  0.59241  Biso   1.000  H
  C531     1.0000 0.30737  0.63308  0.88559  Biso   1.000  C
  C532     1.0000 0.36688  0.61441  0.80737  Biso   1.000  C
  C533     1.0000 0.05115  0.67296  0.71371  Biso   1.000  C
  C534     1.0000 0.11441  0.69258  0.63308  Biso   1.000  C
  C535     1.0000 0.17296  0.71371  0.55115  Biso   1.000  C
  C536     1.0000 0.33982  0.67931  0.89974  Biso   1.000  C
  H612     1.0000 0.27568  0.62398  0.90759  Biso   1.000  H
  C537     1.0000 0.39974  0.66018  0.82065  Biso   1.000  C
  H613     1.0000 0.37598  0.59241  0.77568  Biso   1.000  H
  N99      1.0000 0.01716  0.71108  0.70106  Biso   1.000  N
  H614     1.0000 0.04481  0.65179  0.74658  Biso   1.000  H
  H615     1.0000 0.09241  0.72428  0.62398  Biso   1.000  H
  N100     1.0000 0.21108  0.70106  0.51716  Biso   1.000  N
  H616     1.0000 0.15179  0.74658  0.54481  Biso   1.000  H
  C538     1.0000 0.32704  0.71371  0.94881  Biso   1.000  C
  C539     1.0000 0.38559  0.69258  0.86688  Biso   1.000  C
  C540     1.0000 0.44881  0.67296  0.78629  Biso   1.000  C
  C541     1.0000 0.97069  0.72023  0.73898  Biso   1.000  C
  C542     1.0000 0.22027  0.73898  0.47069  Biso   1.000  C
  N101     1.0000 0.28892  0.70106  0.98280  Biso   1.000  N
  H617     1.0000 0.34821  0.74658  0.95519  Biso   1.000  H
  H618     1.0000 0.40759  0.72428  0.87598  Biso   1.000  H
  N102     1.0000 0.48280  0.71108  0.79894  Biso   1.000  N
  H619     1.0000 0.45519  0.65179  0.75338  Biso   1.000  H
  C543     1.0000 0.97069  0.77973  0.76098  Biso   1.000  C
  H620     1.0000 0.97361  0.69371  0.77109  Biso   1.000  H
  C544     1.0000 0.91277  0.71613  0.71375  Biso   1.000  C
  C545     1.0000 0.92459  0.69300  0.69058  Biso   1.000  C
  C546     1.0000 0.27973  0.76098  0.47069  Biso   1.000  C
  H621     1.0000 0.19371  0.77109  0.47361  Biso   1.000  H
  C547     1.0000 0.21613  0.71375  0.41277  Biso   1.000  C
  C548     1.0000 0.19300  0.69058  0.42459  Biso   1.000  C
  C549     1.0000 0.27973  0.73898  0.02931  Biso   1.000  C
  C550     1.0000 0.52931  0.72023  0.76098  Biso   1.000  C
  N103     1.0000 0.01716  0.78888  0.79894  Biso   1.000  N
  H622     1.0000 0.97361  0.80629  0.72891  Biso   1.000  H
  C551     1.0000 0.91277  0.78382  0.78625  Biso   1.000  C
  C552     1.0000 0.92459  0.80700  0.80938  Biso   1.000  C
  C553     1.0000 0.86917  0.75000  0.75000  Biso   1.000  C
  H623     1.0000 0.90129  0.67651  0.71179  Biso   1.000  H
  H624     1.0000 0.91340  0.73121  0.67530  Biso   1.000  H
  C554     1.0000 0.86959  0.70219  0.72361  Biso   1.000  C
  H625     1.0000 0.92509  0.71409  0.65509  Biso   1.000  H
  H626     1.0000 0.93169  0.65300  0.68319  Biso   1.000  H
  N104     1.0000 0.28892  0.79894  0.51716  Biso   1.000  N
  H627     1.0000 0.30629  0.72891  0.47361  Biso   1.000  H
  C555     1.0000 0.28387  0.78625  0.41277  Biso   1.000  C
  C556     1.0000 0.30700  0.80938  0.42459  Biso   1.000  C
  H628     1.0000 0.17651  0.71179  0.40129  Biso   1.000  H
  H629     1.0000 0.23121  0.67530  0.41340  Biso   1.000  H
  C557     1.0000 0.25000  0.75000  0.36917  Biso   1.000  C
  C558     1.0000 0.20219  0.72361  0.36959  Biso   1.000  C
  H630     1.0000 0.21409  0.65509  0.42509  Biso   1.000  H
  H631     1.0000 0.15300  0.68319  0.43169  Biso   1.000  H
  C559     1.0000 0.22027  0.76098  0.02931  Biso   1.000  C
  H632     1.0000 0.30629  0.77109  0.02639  Biso   1.000  H
  C560     1.0000 0.28387  0.71375  0.08723  Biso   1.000  C
  C561     1.0000 0.30700  0.69058  0.07541  Biso   1.000  C
  C562     1.0000 0.52931  0.77973  0.73898  Biso   1.000  C
  H633     1.0000 0.52639  0.69371  0.72891  Biso   1.000  H
  C563     1.0000 0.58723  0.71613  0.78625  Biso   1.000  C
  C564     1.0000 0.57541  0.69300  0.80938  Biso   1.000  C
  C565     1.0000 0.05115  0.82704  0.78629  Biso   1.000  C
  H634     1.0000 0.90129  0.82349  0.78821  Biso   1.000  H
  H635     1.0000 0.91340  0.76879  0.82470  Biso   1.000  H
  C566     1.0000 0.86959  0.79781  0.77639  Biso   1.000  C
  H636     1.0000 0.92509  0.78591  0.84487  Biso   1.000  H
  H637     1.0000 0.93169  0.84700  0.81681  Biso   1.000  H
  H638     1.0000 0.84542  0.77468  0.72691  Biso   1.000  H
  H639     1.0000 0.84542  0.72528  0.77309  Biso   1.000  H
  H640     1.0000 0.83769  0.70098  0.69730  Biso   1.000  H
  H641     1.0000 0.86479  0.67150  0.75088  Biso   1.000  H
  C567     1.0000 0.32704  0.78629  0.55115  Biso   1.000  C
  H642     1.0000 0.32349  0.78821  0.40129  Biso   1.000  H
  H643     1.0000 0.26879  0.82470  0.41340  Biso   1.000  H
  C568     1.0000 0.29781  0.77639  0.36959  Biso   1.000  C
  H644     1.0000 0.28591  0.84487  0.42509  Biso   1.000  H
  H645     1.0000 0.34700  0.81681  0.43169  Biso   1.000  H
  H646     1.0000 0.22528  0.77309  0.34542  Biso   1.000  H
  H647     1.0000 0.27468  0.72691  0.34542  Biso   1.000  H
  H648     1.0000 0.20102  0.69730  0.33769  Biso   1.000  H
  H649     1.0000 0.17150  0.75088  0.36479  Biso   1.000  H
  N105     1.0000 0.21108  0.79894  0.98280  Biso   1.000  N
  H650     1.0000 0.19371  0.72891  0.02639  Biso   1.000  H
  C569     1.0000 0.21613  0.78625  0.08723  Biso   1.000  C
  C570     1.0000 0.19300  0.80938  0.07541  Biso   1.000  C
  H651     1.0000 0.32349  0.71179  0.09867  Biso   1.000  H
  H652     1.0000 0.26879  0.67530  0.08660  Biso   1.000  H
  C571     1.0000 0.25000  0.75000  0.13083  Biso   1.000  C
  C572     1.0000 0.29781  0.72361  0.13041  Biso   1.000  C
  H653     1.0000 0.28591  0.65509  0.07491  Biso   1.000  H
  H654     1.0000 0.34700  0.68319  0.06831  Biso   1.000  H
  N106     1.0000 0.48280  0.78888  0.70106  Biso   1.000  N
  H655     1.0000 0.52639  0.80629  0.77109  Biso   1.000  H
  C573     1.0000 0.58723  0.78382  0.71375  Biso   1.000  C
  C574     1.0000 0.57541  0.80700  0.69058  Biso   1.000  C
  H656     1.0000 0.59871  0.67651  0.78821  Biso   1.000  H
  H657     1.0000 0.58660  0.73121  0.82470  Biso   1.000  H
  C575     1.0000 0.63083  0.75000  0.75000  Biso   1.000  C
  C576     1.0000 0.63041  0.70219  0.77639  Biso   1.000  C
  H658     1.0000 0.57491  0.71409  0.84487  Biso   1.000  H
  H659     1.0000 0.56831  0.65300  0.81681  Biso   1.000  H
  H660     1.0000 0.04481  0.84821  0.75338  Biso   1.000  H
  C577     1.0000 0.10026  0.83982  0.82065  Biso   1.000  C
  H661     1.0000 0.83769  0.79898  0.80270  Biso   1.000  H
  H662     1.0000 0.86479  0.82850  0.74908  Biso   1.000  H
  H663     1.0000 0.34821  0.75338  0.54481  Biso   1.000  H
  C578     1.0000 0.33982  0.82065  0.60022  Biso   1.000  C
  H664     1.0000 0.29898  0.80270  0.33769  Biso   1.000  H
  H665     1.0000 0.32850  0.74908  0.36479  Biso   1.000  H
  C579     1.0000 0.17296  0.78629  0.94881  Biso   1.000  C
  H666     1.0000 0.17651  0.78821  0.09867  Biso   1.000  H
  H667     1.0000 0.23121  0.82470  0.08660  Biso   1.000  H
  C580     1.0000 0.20219  0.77639  0.13041  Biso   1.000  C
  H668     1.0000 0.21409  0.84487  0.07491  Biso   1.000  H
  H669     1.0000 0.15300  0.81681  0.06831  Biso   1.000  H
  H670     1.0000 0.22528  0.72691  0.15458  Biso   1.000  H
  H671     1.0000 0.27468  0.77309  0.15458  Biso   1.000  H
  H672     1.0000 0.29898  0.69730  0.16231  Biso   1.000  H
  H673     1.0000 0.32850  0.75088  0.13521  Biso   1.000  H
  C581     1.0000 0.44881  0.82704  0.71371  Biso   1.000  C
  H674     1.0000 0.59871  0.82349  0.71179  Biso   1.000  H
  H675     1.0000 0.58660  0.76879  0.67530  Biso   1.000  H
  C582     1.0000 0.63041  0.79781  0.72361  Biso   1.000  C
  H676     1.0000 0.57491  0.78591  0.65509  Biso   1.000  H
  H677     1.0000 0.56831  0.84700  0.68319  Biso   1.000  H
  H678     1.0000 0.65458  0.77468  0.77309  Biso   1.000  H
  H679     1.0000 0.65458  0.72528  0.72691  Biso   1.000  H
  H680     1.0000 0.66231  0.70098  0.80270  Biso   1.000  H
  H681     1.0000 0.63521  0.67150  0.74908  Biso   1.000  H
  C583     1.0000 0.13308  0.88559  0.80737  Biso   1.000  C
  C584     1.0000 0.11441  0.80737  0.86688  Biso   1.000  C
  C585     1.0000 0.30737  0.86688  0.61441  Biso   1.000  C
  C586     1.0000 0.38559  0.80737  0.63308  Biso   1.000  C
  H682     1.0000 0.15179  0.75338  0.95519  Biso   1.000  H
  C587     1.0000 0.16018  0.82065  0.89974  Biso   1.000  C
  H683     1.0000 0.20102  0.80270  0.16231  Biso   1.000  H
  H684     1.0000 0.17150  0.74908  0.13521  Biso   1.000  H
  H685     1.0000 0.45519  0.84821  0.74658  Biso   1.000  H
  C588     1.0000 0.39974  0.83982  0.67931  Biso   1.000  C
  H686     1.0000 0.66231  0.79898  0.69730  Biso   1.000  H
  H687     1.0000 0.63521  0.82850  0.75088  Biso   1.000  H
  H688     1.0000 0.12402  0.90759  0.77568  Biso   1.000  H
  C589     1.0000 0.17935  0.89974  0.83982  Biso   1.000  C
  H689     1.0000 0.09241  0.77568  0.87598  Biso   1.000  H
  C590     1.0000 0.32065  0.89974  0.66018  Biso   1.000  C
  H690     1.0000 0.27568  0.87598  0.59241  Biso   1.000  H
  H691     1.0000 0.40759  0.77568  0.62398  Biso   1.000  H
  C591     1.0000 0.19263  0.86688  0.88559  Biso   1.000  C
  C592     1.0000 0.36688  0.88559  0.69258  Biso   1.000  C
  C593     1.0000 0.21371  0.94881  0.82704  Biso   1.000  C
  C594     1.0000 0.28629  0.94881  0.67296  Biso   1.000  C
  H692     1.0000 0.22428  0.87598  0.90759  Biso   1.000  H
  H693     1.0000 0.37598  0.90759  0.72428  Biso   1.000  H
  N107     1.0000 0.20106  0.98280  0.78888  Biso   1.000  N
  H694     1.0000 0.24662  0.95519  0.84821  Biso   1.000  H
  N108     1.0000 0.29894  0.98280  0.71108  Biso   1.000  N
  H695     1.0000 0.25338  0.95519  0.65179  Biso   1.000  H
  C595     1.0000 0.23902  0.02931  0.77973  Biso   1.000  C
  C596     1.0000 0.26098  0.02931  0.72023  Biso   1.000  C
  H696     1.0000 0.27109  0.02639  0.80629  Biso   1.000  H
  C597     1.0000 0.21375  0.08723  0.78382  Biso   1.000  C
  C598     1.0000 0.19058  0.07541  0.80700  Biso   1.000  C
  H697     1.0000 0.22891  0.02639  0.69371  Biso   1.000  H
  C599     1.0000 0.28625  0.08723  0.71613  Biso   1.000  C
  C600     1.0000 0.30938  0.07541  0.69300  Biso   1.000  C
  H698     1.0000 0.21179  0.09867  0.82349  Biso   1.000  H
  H699     1.0000 0.17530  0.08660  0.76879  Biso   1.000  H
  C601     1.0000 0.25000  0.13083  0.75000  Biso   1.000  C
  C602     1.0000 0.22361  0.13041  0.79781  Biso   1.000  C
  H700     1.0000 0.15509  0.07491  0.78591  Biso   1.000  H
  H701     1.0000 0.18319  0.06831  0.84700  Biso   1.000  H
  H702     1.0000 0.28821  0.09867  0.67651  Biso   1.000  H
  H703     1.0000 0.32470  0.08660  0.73121  Biso   1.000  H
  C603     1.0000 0.27639  0.13041  0.70219  Biso   1.000  C
  H704     1.0000 0.34491  0.07491  0.71409  Biso   1.000  H
  H705     1.0000 0.31681  0.06831  0.65300  Biso   1.000  H
  H706     1.0000 0.27309  0.15458  0.77468  Biso   1.000  H
  H707     1.0000 0.22691  0.15458  0.72528  Biso   1.000  H
  H708     1.0000 0.19730  0.16231  0.79898  Biso   1.000  H
  H709     1.0000 0.25092  0.13521  0.82850  Biso   1.000  H
  H710     1.0000 0.30270  0.16231  0.70098  Biso   1.000  H
  H711     1.0000 0.24908  0.13521  0.67150  Biso   1.000  H
