data_image0
_cell_length_a       23.76
_cell_length_b       23.76
_cell_length_c       23.76
_cell_angle_alpha    90
_cell_angle_beta     90
_cell_angle_gamma    90

_symmetry_space_group_name_H-M    "P 1"
_symmetry_int_tables_number       1

loop_
  _symmetry_equiv_pos_as_xyz
  'x, y, z'

loop_
  _atom_site_label
  _atom_site_occupancy
  _atom_site_fract_x
  _atom_site_fract_y
  _atom_site_fract_z
  _atom_site_thermal_displace_type
  _atom_site_B_iso_or_equiv
  _atom_site_type_symbol
  C1       1.0000 0.38657  0.19230  0.36810  Biso   1.000  C
  C2       1.0000 0.40105  0.15964  0.32130  Biso   1.000  C
  C3       1.0000 0.34040  0.17870  0.40105  Biso   1.000  C
  H1       1.0000 0.40871  0.22420  0.37740  Biso   1.000  H
  C4       1.0000 0.45093  0.17285  0.28704  Biso   1.000  C
  C5       1.0000 0.36810  0.11343  0.30770  Biso   1.000  C
  C6       1.0000 0.32715  0.21296  0.45093  Biso   1.000  C
  C7       1.0000 0.30770  0.13190  0.38657  Biso   1.000  C
  N1       1.0000 0.48565  0.21094  0.29987  Biso   1.000  N
  H2       1.0000 0.45732  0.15168  0.25370  Biso   1.000  H
  C8       1.0000 0.32130  0.09899  0.34040  Biso   1.000  C
  H3       1.0000 0.37740  0.09129  0.27580  Biso   1.000  H
  N2       1.0000 0.28906  0.20017  0.48565  Biso   1.000  N
  H4       1.0000 0.34832  0.24630  0.45732  Biso   1.000  H
  H5       1.0000 0.27580  0.12260  0.40871  Biso   1.000  H
  C9       1.0000 0.53224  0.22012  0.26141  Biso   1.000  C
  C10      1.0000 0.28704  0.04907  0.32715  Biso   1.000  C
  C11      1.0000 0.27988  0.23859  0.53224  Biso   1.000  C
  C12      1.0000 0.53224  0.27988  0.23859  Biso   1.000  C
  H6       1.0000 0.52929  0.19301  0.22929  Biso   1.000  H
  C13      1.0000 0.58969  0.21343  0.28960  Biso   1.000  C
  N3       1.0000 0.29987  0.01435  0.28906  Biso   1.000  N
  H7       1.0000 0.25370  0.04272  0.34832  Biso   1.000  H
  C14      1.0000 0.22012  0.26141  0.53224  Biso   1.000  C
  H8       1.0000 0.30699  0.27071  0.52929  Biso   1.000  H
  C15      1.0000 0.28657  0.21040  0.58969  Biso   1.000  C
  N4       1.0000 0.48565  0.28906  0.20017  Biso   1.000  N
  H9       1.0000 0.52929  0.30699  0.27071  Biso   1.000  H
  C16      1.0000 0.58969  0.28657  0.21040  Biso   1.000  C
  H10      1.0000 0.60160  0.17348  0.29040  Biso   1.000  H
  H11      1.0000 0.58923  0.22828  0.32849  Biso   1.000  H
  C17      1.0000 0.62950  0.25000  0.25000  Biso   1.000  C
  C18      1.0000 0.63662  0.21949  0.26082  Biso   1.000  C
  C19      1.0000 0.26141  0.96776  0.27988  Biso   1.000  C
  N5       1.0000 0.21094  0.29987  0.48565  Biso   1.000  N
  H12      1.0000 0.19301  0.22929  0.52929  Biso   1.000  H
  C20      1.0000 0.21343  0.28960  0.58969  Biso   1.000  C
  H13      1.0000 0.32652  0.20960  0.60160  Biso   1.000  H
  H14      1.0000 0.27172  0.17151  0.58923  Biso   1.000  H
  C21      1.0000 0.25000  0.25000  0.62950  Biso   1.000  C
  C22      1.0000 0.28051  0.23918  0.63662  Biso   1.000  C
  C23      1.0000 0.45093  0.32715  0.21296  Biso   1.000  C
  H15      1.0000 0.60160  0.32652  0.20960  Biso   1.000  H
  H16      1.0000 0.58923  0.27172  0.17151  Biso   1.000  H
  C24      1.0000 0.63662  0.28051  0.23918  Biso   1.000  C
  H17      1.0000 0.65379  0.22508  0.22710  Biso   1.000  H
  H18      1.0000 0.65379  0.27492  0.27290  Biso   1.000  H
  H19      1.0000 0.63779  0.19272  0.22891  Biso   1.000  H
  H20      1.0000 0.66970  0.21271  0.28519  Biso   1.000  H
  C25      1.0000 0.23859  0.96776  0.22012  Biso   1.000  C
  H21      1.0000 0.22929  0.97071  0.30699  Biso   1.000  H
  C26      1.0000 0.28960  0.91031  0.28657  Biso   1.000  C
  C27      1.0000 0.17285  0.28704  0.45093  Biso   1.000  C
  H22      1.0000 0.17348  0.29040  0.60160  Biso   1.000  H
  H23      1.0000 0.22828  0.32849  0.58923  Biso   1.000  H
  C28      1.0000 0.21949  0.26082  0.63662  Biso   1.000  C
  H24      1.0000 0.22508  0.22710  0.65379  Biso   1.000  H
  H25      1.0000 0.27492  0.27290  0.65379  Biso   1.000  H
  H26      1.0000 0.30732  0.27109  0.63779  Biso   1.000  H
  H27      1.0000 0.28729  0.21481  0.66970  Biso   1.000  H
  H28      1.0000 0.45732  0.34832  0.24630  Biso   1.000  H
  C29      1.0000 0.40105  0.34040  0.17870  Biso   1.000  C
  H29      1.0000 0.63779  0.30732  0.27109  Biso   1.000  H
  H30      1.0000 0.66970  0.28729  0.21481  Biso   1.000  H
  N6       1.0000 0.20017  0.01435  0.21094  Biso   1.000  N
  H31      1.0000 0.27071  0.97071  0.19301  Biso   1.000  H
  C30      1.0000 0.21040  0.91031  0.21343  Biso   1.000  C
  H32      1.0000 0.29040  0.89840  0.32652  Biso   1.000  H
  H33      1.0000 0.32849  0.91082  0.27172  Biso   1.000  H
  C31      1.0000 0.25000  0.87054  0.25000  Biso   1.000  C
  C32      1.0000 0.26082  0.86343  0.28051  Biso   1.000  C
  H34      1.0000 0.15168  0.25370  0.45732  Biso   1.000  H
  C33      1.0000 0.15964  0.32130  0.40105  Biso   1.000  C
  H35      1.0000 0.19272  0.22891  0.63779  Biso   1.000  H
  H36      1.0000 0.21271  0.28519  0.66970  Biso   1.000  H
  C34      1.0000 0.38657  0.30770  0.13190  Biso   1.000  C
  C35      1.0000 0.36810  0.38657  0.19230  Biso   1.000  C
  C36      1.0000 0.21296  0.04907  0.17285  Biso   1.000  C
  H37      1.0000 0.20960  0.89840  0.17348  Biso   1.000  H
  H38      1.0000 0.17151  0.91082  0.22828  Biso   1.000  H
  C37      1.0000 0.23918  0.86343  0.21949  Biso   1.000  C
  H39      1.0000 0.27290  0.84621  0.22508  Biso   1.000  H
  H40      1.0000 0.22710  0.84621  0.27492  Biso   1.000  H
  H41      1.0000 0.22891  0.86221  0.30732  Biso   1.000  H
  H42      1.0000 0.28519  0.83030  0.28729  Biso   1.000  H
  C38      1.0000 0.19230  0.36810  0.38657  Biso   1.000  C
  C39      1.0000 0.11343  0.30770  0.36810  Biso   1.000  C
  C40      1.0000 0.34040  0.32130  0.09899  Biso   1.000  C
  H43      1.0000 0.40871  0.27580  0.12260  Biso   1.000  H
  C41      1.0000 0.32130  0.40105  0.15964  Biso   1.000  C
  H44      1.0000 0.37740  0.40871  0.22420  Biso   1.000  H
  H45      1.0000 0.24630  0.04272  0.15168  Biso   1.000  H
  C42      1.0000 0.17870  0.09899  0.15964  Biso   1.000  C
  H46      1.0000 0.27109  0.86221  0.19272  Biso   1.000  H
  H47      1.0000 0.21481  0.83030  0.21271  Biso   1.000  H
  C43      1.0000 0.17870  0.40105  0.34040  Biso   1.000  C
  H48      1.0000 0.22420  0.37740  0.40871  Biso   1.000  H
  C44      1.0000 0.09899  0.34040  0.32130  Biso   1.000  C
  H49      1.0000 0.09129  0.27580  0.37740  Biso   1.000  H
  C45      1.0000 0.32715  0.28704  0.04907  Biso   1.000  C
  C46      1.0000 0.30770  0.36810  0.11343  Biso   1.000  C
  C47      1.0000 0.28704  0.45093  0.17285  Biso   1.000  C
  C48      1.0000 0.13190  0.11343  0.19230  Biso   1.000  C
  C49      1.0000 0.19230  0.13190  0.11343  Biso   1.000  C
  C50      1.0000 0.21296  0.45093  0.32715  Biso   1.000  C
  C51      1.0000 0.13190  0.38657  0.30770  Biso   1.000  C
  C52      1.0000 0.04907  0.32715  0.28704  Biso   1.000  C
  N7       1.0000 0.28906  0.29987  0.01435  Biso   1.000  N
  H50      1.0000 0.34832  0.25370  0.04272  Biso   1.000  H
  H51      1.0000 0.27580  0.37740  0.09129  Biso   1.000  H
  N8       1.0000 0.29987  0.48565  0.21094  Biso   1.000  N
  H52      1.0000 0.25370  0.45732  0.15168  Biso   1.000  H
  C53      1.0000 0.09899  0.15964  0.17870  Biso   1.000  C
  H53      1.0000 0.12260  0.09129  0.22420  Biso   1.000  H
  C54      1.0000 0.15964  0.17870  0.09899  Biso   1.000  C
  H54      1.0000 0.22420  0.12260  0.09129  Biso   1.000  H
  N9       1.0000 0.20017  0.48565  0.28906  Biso   1.000  N
  H55      1.0000 0.24630  0.45732  0.34832  Biso   1.000  H
  H56      1.0000 0.12260  0.40871  0.27580  Biso   1.000  H
  N10      1.0000 0.01435  0.28906  0.29987  Biso   1.000  N
  H57      1.0000 0.04272  0.34832  0.25370  Biso   1.000  H
  C55      1.0000 0.27988  0.26141  0.96776  Biso   1.000  C
  C56      1.0000 0.26141  0.53224  0.22012  Biso   1.000  C
  C57      1.0000 0.04907  0.17285  0.21296  Biso   1.000  C
  C58      1.0000 0.11343  0.19230  0.13190  Biso   1.000  C
  C59      1.0000 0.17285  0.21296  0.04907  Biso   1.000  C
  C60      1.0000 0.23859  0.53224  0.27988  Biso   1.000  C
  C61      1.0000 0.96776  0.27988  0.26141  Biso   1.000  C
  C62      1.0000 0.22012  0.23859  0.96776  Biso   1.000  C
  H58      1.0000 0.30699  0.22929  0.97071  Biso   1.000  H
  C63      1.0000 0.28657  0.28960  0.91031  Biso   1.000  C
  H59      1.0000 0.22929  0.52929  0.19301  Biso   1.000  H
  C64      1.0000 0.28960  0.58969  0.21343  Biso   1.000  C
  N11      1.0000 0.01435  0.21094  0.20017  Biso   1.000  N
  H60      1.0000 0.04272  0.15168  0.24630  Biso   1.000  H
  H61      1.0000 0.09129  0.22420  0.12260  Biso   1.000  H
  N12      1.0000 0.21094  0.20017  0.01435  Biso   1.000  N
  H62      1.0000 0.15168  0.24630  0.04272  Biso   1.000  H
  H63      1.0000 0.27071  0.52929  0.30699  Biso   1.000  H
  C65      1.0000 0.21040  0.58969  0.28657  Biso   1.000  C
  C66      1.0000 0.96776  0.22012  0.23859  Biso   1.000  C
  H64      1.0000 0.97071  0.30699  0.22929  Biso   1.000  H
  C67      1.0000 0.91031  0.28657  0.28960  Biso   1.000  C
  H65      1.0000 0.19301  0.27071  0.97071  Biso   1.000  H
  C68      1.0000 0.21343  0.21040  0.91031  Biso   1.000  C
  H66      1.0000 0.32652  0.29040  0.89840  Biso   1.000  H
  H67      1.0000 0.27172  0.32849  0.91082  Biso   1.000  H
  C69      1.0000 0.25000  0.25000  0.87054  Biso   1.000  C
  C70      1.0000 0.28051  0.26082  0.86343  Biso   1.000  C
  H68      1.0000 0.29040  0.60160  0.17348  Biso   1.000  H
  H69      1.0000 0.32849  0.58923  0.22828  Biso   1.000  H
  C71      1.0000 0.25000  0.62950  0.25000  Biso   1.000  C
  C72      1.0000 0.26082  0.63662  0.21949  Biso   1.000  C
  H70      1.0000 0.20960  0.60160  0.32652  Biso   1.000  H
  H71      1.0000 0.17151  0.58923  0.27172  Biso   1.000  H
  C73      1.0000 0.23918  0.63662  0.28051  Biso   1.000  C
  H72      1.0000 0.97071  0.19301  0.27071  Biso   1.000  H
  C74      1.0000 0.91031  0.21343  0.21040  Biso   1.000  C
  C75      1.0000 0.87054  0.25000  0.25000  Biso   1.000  C
  H73      1.0000 0.89840  0.32652  0.29040  Biso   1.000  H
  H74      1.0000 0.91082  0.27172  0.32849  Biso   1.000  H
  C76      1.0000 0.86343  0.28051  0.26082  Biso   1.000  C
  H75      1.0000 0.17348  0.20960  0.89840  Biso   1.000  H
  H76      1.0000 0.22828  0.17151  0.91082  Biso   1.000  H
  C77      1.0000 0.21949  0.23918  0.86343  Biso   1.000  C
  H77      1.0000 0.22508  0.27290  0.84621  Biso   1.000  H
  H78      1.0000 0.27492  0.22710  0.84621  Biso   1.000  H
  H79      1.0000 0.30732  0.22891  0.86221  Biso   1.000  H
  H80      1.0000 0.28729  0.28519  0.83030  Biso   1.000  H
  H81      1.0000 0.27290  0.65379  0.27492  Biso   1.000  H
  H82      1.0000 0.22710  0.65379  0.22508  Biso   1.000  H
  H83      1.0000 0.22891  0.63779  0.19272  Biso   1.000  H
  H84      1.0000 0.28519  0.66970  0.21271  Biso   1.000  H
  H85      1.0000 0.27109  0.63779  0.30732  Biso   1.000  H
  H86      1.0000 0.21481  0.66970  0.28729  Biso   1.000  H
  H87      1.0000 0.89840  0.17348  0.20960  Biso   1.000  H
  H88      1.0000 0.91082  0.22828  0.17151  Biso   1.000  H
  C78      1.0000 0.86343  0.21949  0.23918  Biso   1.000  C
  H89      1.0000 0.84621  0.22508  0.27290  Biso   1.000  H
  H90      1.0000 0.84621  0.27492  0.22710  Biso   1.000  H
  H91      1.0000 0.86221  0.30732  0.22891  Biso   1.000  H
  H92      1.0000 0.83030  0.28729  0.28519  Biso   1.000  H
  H93      1.0000 0.19272  0.27109  0.86221  Biso   1.000  H
  H94      1.0000 0.21271  0.21481  0.83030  Biso   1.000  H
  H95      1.0000 0.86221  0.19272  0.27109  Biso   1.000  H
  H96      1.0000 0.83030  0.21271  0.21481  Biso   1.000  H
  C79      1.0000 0.53733  0.29949  0.42513  Biso   1.000  C
  N13      1.0000 0.55034  0.26599  0.46481  Biso   1.000  N
  H97      1.0000 0.50509  0.29129  0.40290  Biso   1.000  H
  C80      1.0000 0.57020  0.35046  0.41221  Biso   1.000  C
  C81      1.0000 0.51414  0.21662  0.47109  Biso   1.000  C
  C82      1.0000 0.55560  0.38274  0.36587  Biso   1.000  C
  C83      1.0000 0.61726  0.36587  0.44440  Biso   1.000  C
  C84      1.0000 0.48586  0.21662  0.52896  Biso   1.000  C
  H98      1.0000 0.53691  0.18199  0.46671  Biso   1.000  H
  H99      1.0000 0.48502  0.21679  0.44129  Biso   1.000  H
  C85      1.0000 0.58784  0.42980  0.35046  Biso   1.000  C
  H100     1.0000 0.52340  0.37290  0.34432  Biso   1.000  H
  C86      1.0000 0.64958  0.41221  0.42980  Biso   1.000  C
  H101     1.0000 0.62710  0.34432  0.47660  Biso   1.000  H
  N14      1.0000 0.44966  0.26599  0.53519  Biso   1.000  N
  H102     1.0000 0.46309  0.18199  0.53329  Biso   1.000  H
  H103     1.0000 0.51503  0.21679  0.55871  Biso   1.000  H
  C87      1.0000 0.57492  0.46267  0.29949  Biso   1.000  C
  C88      1.0000 0.63413  0.44440  0.38274  Biso   1.000  C
  C89      1.0000 0.70051  0.42513  0.46267  Biso   1.000  C
  C90      1.0000 0.46267  0.29949  0.57492  Biso   1.000  C
  N15      1.0000 0.53519  0.44966  0.26599  Biso   1.000  N
  H104     1.0000 0.59710  0.49491  0.29129  Biso   1.000  H
  H105     1.0000 0.65572  0.47660  0.37290  Biso   1.000  H
  N16      1.0000 0.73401  0.46481  0.44966  Biso   1.000  N
  H106     1.0000 0.70871  0.40290  0.49491  Biso   1.000  H
  H107     1.0000 0.49491  0.29129  0.59710  Biso   1.000  H
  C91      1.0000 0.42980  0.35046  0.58784  Biso   1.000  C
  C92      1.0000 0.52896  0.48586  0.21662  Biso   1.000  C
  C93      1.0000 0.78338  0.47109  0.48586  Biso   1.000  C
  C94      1.0000 0.44440  0.38274  0.63413  Biso   1.000  C
  C95      1.0000 0.38274  0.36587  0.55560  Biso   1.000  C
  C96      1.0000 0.47109  0.51414  0.21662  Biso   1.000  C
  H108     1.0000 0.53329  0.46309  0.18199  Biso   1.000  H
  H109     1.0000 0.55871  0.51503  0.21679  Biso   1.000  H
  C97      1.0000 0.78338  0.52896  0.51414  Biso   1.000  C
  H110     1.0000 0.81801  0.46671  0.46309  Biso   1.000  H
  H111     1.0000 0.78321  0.44129  0.51503  Biso   1.000  H
  C98      1.0000 0.41221  0.42980  0.64958  Biso   1.000  C
  H112     1.0000 0.47660  0.37290  0.65572  Biso   1.000  H
  C99      1.0000 0.35046  0.41221  0.57020  Biso   1.000  C
  H113     1.0000 0.37290  0.34432  0.52340  Biso   1.000  H
  N17      1.0000 0.46481  0.55034  0.26599  Biso   1.000  N
  H114     1.0000 0.46671  0.53691  0.18199  Biso   1.000  H
  H115     1.0000 0.44129  0.48502  0.21679  Biso   1.000  H
  N18      1.0000 0.73401  0.53519  0.55034  Biso   1.000  N
  H116     1.0000 0.81801  0.53329  0.53691  Biso   1.000  H
  H117     1.0000 0.78321  0.55871  0.48502  Biso   1.000  H
  C100     1.0000 0.42513  0.46267  0.70051  Biso   1.000  C
  C101     1.0000 0.36587  0.44440  0.61726  Biso   1.000  C
  C102     1.0000 0.29949  0.42513  0.53733  Biso   1.000  C
  C103     1.0000 0.42513  0.53733  0.29949  Biso   1.000  C
  C104     1.0000 0.70051  0.57492  0.53733  Biso   1.000  C
  N19      1.0000 0.46481  0.44966  0.73401  Biso   1.000  N
  H118     1.0000 0.40290  0.49491  0.70871  Biso   1.000  H
  H119     1.0000 0.34432  0.47660  0.62710  Biso   1.000  H
  N20      1.0000 0.26599  0.46481  0.55034  Biso   1.000  N
  H120     1.0000 0.29129  0.40290  0.50509  Biso   1.000  H
  H121     1.0000 0.40290  0.50509  0.29129  Biso   1.000  H
  C105     1.0000 0.41221  0.57020  0.35046  Biso   1.000  C
  H122     1.0000 0.70871  0.59710  0.50509  Biso   1.000  H
  C106     1.0000 0.64958  0.58784  0.57020  Biso   1.000  C
  C107     1.0000 0.47109  0.48586  0.78338  Biso   1.000  C
  C108     1.0000 0.21662  0.47109  0.51414  Biso   1.000  C
  C109     1.0000 0.36587  0.55560  0.38274  Biso   1.000  C
  C110     1.0000 0.44440  0.61726  0.36587  Biso   1.000  C
  C111     1.0000 0.61726  0.63413  0.55560  Biso   1.000  C
  C112     1.0000 0.63413  0.55560  0.61726  Biso   1.000  C
  C113     1.0000 0.52896  0.51414  0.78338  Biso   1.000  C
  H123     1.0000 0.46671  0.46309  0.81801  Biso   1.000  H
  H124     1.0000 0.44129  0.51503  0.78321  Biso   1.000  H
  C114     1.0000 0.21662  0.52896  0.48586  Biso   1.000  C
  H125     1.0000 0.18199  0.46671  0.53691  Biso   1.000  H
  H126     1.0000 0.21679  0.44129  0.48502  Biso   1.000  H
  C115     1.0000 0.35046  0.58784  0.42980  Biso   1.000  C
  H127     1.0000 0.34432  0.52340  0.37290  Biso   1.000  H
  C116     1.0000 0.42980  0.64958  0.41221  Biso   1.000  C
  H128     1.0000 0.47660  0.62710  0.34432  Biso   1.000  H
  C117     1.0000 0.57020  0.64958  0.58784  Biso   1.000  C
  H129     1.0000 0.62710  0.65572  0.52340  Biso   1.000  H
  C118     1.0000 0.58784  0.57020  0.64958  Biso   1.000  C
  H130     1.0000 0.65572  0.52340  0.62710  Biso   1.000  H
  N21      1.0000 0.53519  0.55034  0.73401  Biso   1.000  N
  H131     1.0000 0.53329  0.53691  0.81801  Biso   1.000  H
  H132     1.0000 0.55871  0.48502  0.78321  Biso   1.000  H
  N22      1.0000 0.26599  0.53519  0.44966  Biso   1.000  N
  H133     1.0000 0.18199  0.53329  0.46309  Biso   1.000  H
  H134     1.0000 0.21679  0.55871  0.51503  Biso   1.000  H
  C119     1.0000 0.29949  0.57492  0.46267  Biso   1.000  C
  C120     1.0000 0.38274  0.63413  0.44440  Biso   1.000  C
  C121     1.0000 0.46267  0.70051  0.42513  Biso   1.000  C
  C122     1.0000 0.53733  0.70051  0.57492  Biso   1.000  C
  C123     1.0000 0.55560  0.61726  0.63413  Biso   1.000  C
  C124     1.0000 0.57492  0.53733  0.70051  Biso   1.000  C
  H135     1.0000 0.29129  0.59710  0.49491  Biso   1.000  H
  H136     1.0000 0.37290  0.65572  0.47660  Biso   1.000  H
  N23      1.0000 0.44966  0.73401  0.46481  Biso   1.000  N
  H137     1.0000 0.49491  0.70871  0.40290  Biso   1.000  H
  N24      1.0000 0.55034  0.73401  0.53519  Biso   1.000  N
  H138     1.0000 0.50509  0.70871  0.59710  Biso   1.000  H
  H139     1.0000 0.52340  0.62710  0.65572  Biso   1.000  H
  H140     1.0000 0.59710  0.50509  0.70871  Biso   1.000  H
  C125     1.0000 0.48586  0.78338  0.47109  Biso   1.000  C
  C126     1.0000 0.51414  0.78338  0.52896  Biso   1.000  C
  H141     1.0000 0.46309  0.81801  0.46671  Biso   1.000  H
  H142     1.0000 0.51503  0.78321  0.44129  Biso   1.000  H
  H143     1.0000 0.53691  0.81801  0.53329  Biso   1.000  H
  H144     1.0000 0.48502  0.78321  0.55871  Biso   1.000  H
  C127     1.0000 0.53733  0.20051  0.07492  Biso   1.000  C
  N25      1.0000 0.55034  0.23401  0.03519  Biso   1.000  N
  H145     1.0000 0.50509  0.20871  0.09710  Biso   1.000  H
  C128     1.0000 0.57020  0.14958  0.08779  Biso   1.000  C
  C129     1.0000 0.57020  0.14958  0.08784  Biso   1.000  C
  C130     1.0000 0.51414  0.28338  0.02896  Biso   1.000  C
  C131     1.0000 0.53733  0.20051  0.07487  Biso   1.000  C
  C132     1.0000 0.61726  0.13413  0.05560  Biso   1.000  C
  C133     1.0000 0.55560  0.11726  0.13413  Biso   1.000  C
  C134     1.0000 0.55560  0.11726  0.13418  Biso   1.000  C
  C135     1.0000 0.61726  0.13418  0.05560  Biso   1.000  C
  H146     1.0000 0.48502  0.28321  0.05871  Biso   1.000  H
  C136     1.0000 0.48586  0.28338  0.97109  Biso   1.000  C
  H147     1.0000 0.53691  0.31801  0.03329  Biso   1.000  H
  H148     1.0000 0.53691  0.31801  0.03333  Biso   1.000  H
  H149     1.0000 0.62710  0.15568  0.02340  Biso   1.000  H
  C137     1.0000 0.64958  0.08779  0.07020  Biso   1.000  C
  H150     1.0000 0.62710  0.15572  0.02340  Biso   1.000  H
  C138     1.0000 0.64958  0.08784  0.07020  Biso   1.000  C
  H151     1.0000 0.52340  0.12710  0.15568  Biso   1.000  H
  C139     1.0000 0.58784  0.07020  0.14958  Biso   1.000  C
  H152     1.0000 0.52340  0.12710  0.15572  Biso   1.000  H
  N26      1.0000 0.44966  0.23401  0.96481  Biso   1.000  N
  H153     1.0000 0.46309  0.31801  0.96671  Biso   1.000  H
  H154     1.0000 0.51503  0.28321  0.94129  Biso   1.000  H
  H155     1.0000 0.51503  0.28321  0.94133  Biso   1.000  H
  C140     1.0000 0.63413  0.05560  0.11726  Biso   1.000  C
  C141     1.0000 0.70051  0.07487  0.03733  Biso   1.000  C
  C142     1.0000 0.70051  0.07492  0.03733  Biso   1.000  C
  C143     1.0000 0.57492  0.03733  0.20051  Biso   1.000  C
  C144     1.0000 0.46267  0.20051  0.92513  Biso   1.000  C
  H156     1.0000 0.65572  0.02340  0.12710  Biso   1.000  H
  N27      1.0000 0.73401  0.03519  0.05034  Biso   1.000  N
  H157     1.0000 0.70871  0.09710  0.00509  Biso   1.000  H
  N28      1.0000 0.53519  0.05034  0.23401  Biso   1.000  N
  H158     1.0000 0.59710  0.00509  0.20871  Biso   1.000  H
  H159     1.0000 0.49491  0.20871  0.90290  Biso   1.000  H
  C145     1.0000 0.42980  0.14958  0.91221  Biso   1.000  C
  C146     1.0000 0.78338  0.02896  0.01414  Biso   1.000  C
  C147     1.0000 0.78338  0.02896  0.01418  Biso   1.000  C
  C148     1.0000 0.52896  0.01414  0.28338  Biso   1.000  C
  C149     1.0000 0.52896  0.01418  0.28338  Biso   1.000  C
  C150     1.0000 0.38274  0.13413  0.94440  Biso   1.000  C
  C151     1.0000 0.44440  0.11726  0.86587  Biso   1.000  C
  C152     1.0000 0.38274  0.13418  0.94440  Biso   1.000  C
  C153     1.0000 0.78338  0.97109  0.98586  Biso   1.000  C
  H160     1.0000 0.78321  0.05871  0.98502  Biso   1.000  H
  H161     1.0000 0.81801  0.03329  0.03691  Biso   1.000  H
  H162     1.0000 0.81801  0.03333  0.03691  Biso   1.000  H
  H163     1.0000 0.53329  0.03691  0.31801  Biso   1.000  H
  C154     1.0000 0.47109  0.98586  0.28338  Biso   1.000  C
  H164     1.0000 0.55871  0.98502  0.28321  Biso   1.000  H
  C155     1.0000 0.35046  0.08779  0.92980  Biso   1.000  C
  H165     1.0000 0.37290  0.15568  0.97660  Biso   1.000  H
  C156     1.0000 0.35046  0.08784  0.92980  Biso   1.000  C
  H166     1.0000 0.37290  0.15572  0.97660  Biso   1.000  H
  C157     1.0000 0.41221  0.07020  0.85046  Biso   1.000  C
  H167     1.0000 0.47660  0.12710  0.84432  Biso   1.000  H
  N29      1.0000 0.73401  0.96481  0.94966  Biso   1.000  N
  H168     1.0000 0.81801  0.96671  0.96309  Biso   1.000  H
  H169     1.0000 0.81801  0.96671  0.96313  Biso   1.000  H
  H170     1.0000 0.78321  0.94129  0.01498  Biso   1.000  H
  H171     1.0000 0.78321  0.94129  0.01503  Biso   1.000  H
  H172     1.0000 0.78321  0.94133  0.01498  Biso   1.000  H
  H173     1.0000 0.78321  0.94133  0.01503  Biso   1.000  H
  N30      1.0000 0.46481  0.94966  0.23401  Biso   1.000  N
  H174     1.0000 0.46671  0.96309  0.31801  Biso   1.000  H
  H175     1.0000 0.46671  0.96313  0.31801  Biso   1.000  H
  H176     1.0000 0.44129  0.01498  0.28321  Biso   1.000  H
  H177     1.0000 0.44129  0.01503  0.28321  Biso   1.000  H
  C158     1.0000 0.29949  0.07487  0.96267  Biso   1.000  C
  C159     1.0000 0.36587  0.05560  0.88274  Biso   1.000  C
  C160     1.0000 0.29949  0.07487  0.96271  Biso   1.000  C
  C161     1.0000 0.29949  0.07492  0.96267  Biso   1.000  C
  C162     1.0000 0.29949  0.07492  0.96271  Biso   1.000  C
  C163     1.0000 0.42513  0.03733  0.79949  Biso   1.000  C
  C164     1.0000 0.42513  0.03733  0.79954  Biso   1.000  C
  C165     1.0000 0.70051  0.92513  0.96267  Biso   1.000  C
  C166     1.0000 0.70051  0.92513  0.96271  Biso   1.000  C
  C167     1.0000 0.42513  0.96267  0.20051  Biso   1.000  C
  C168     1.0000 0.42513  0.96271  0.20051  Biso   1.000  C
  N31      1.0000 0.26599  0.03519  0.94966  Biso   1.000  N
  H178     1.0000 0.29129  0.09710  0.99491  Biso   1.000  H
  H179     1.0000 0.34432  0.02340  0.87290  Biso   1.000  H
  N32      1.0000 0.46481  0.05034  0.76599  Biso   1.000  N
  H180     1.0000 0.40290  0.00509  0.79133  Biso   1.000  H
  H181     1.0000 0.70871  0.90290  0.99491  Biso   1.000  H
  C169     1.0000 0.64958  0.91221  0.92980  Biso   1.000  C
  H182     1.0000 0.40290  0.99491  0.20871  Biso   1.000  H
  C170     1.0000 0.41221  0.92980  0.14958  Biso   1.000  C
  C171     1.0000 0.21662  0.02896  0.98586  Biso   1.000  C
  C172     1.0000 0.47109  0.01414  0.71662  Biso   1.000  C
  C173     1.0000 0.47109  0.01418  0.71662  Biso   1.000  C
  C174     1.0000 0.63413  0.94440  0.88274  Biso   1.000  C
  C175     1.0000 0.61726  0.86587  0.94440  Biso   1.000  C
  C176     1.0000 0.36587  0.94440  0.11726  Biso   1.000  C
  C177     1.0000 0.44440  0.88274  0.13413  Biso   1.000  C
  C178     1.0000 0.44440  0.88274  0.13418  Biso   1.000  C
  C179     1.0000 0.21662  0.97109  0.01414  Biso   1.000  C
  C180     1.0000 0.21662  0.97109  0.01418  Biso   1.000  C
  H183     1.0000 0.18199  0.03329  0.96309  Biso   1.000  H
  H184     1.0000 0.18199  0.03329  0.96313  Biso   1.000  H
  H185     1.0000 0.18199  0.03333  0.96309  Biso   1.000  H
  H186     1.0000 0.18199  0.03333  0.96313  Biso   1.000  H
  H187     1.0000 0.21679  0.05871  0.01498  Biso   1.000  H
  H188     1.0000 0.21679  0.05871  0.01503  Biso   1.000  H
  C181     1.0000 0.52896  0.98586  0.71662  Biso   1.000  C
  H189     1.0000 0.44129  0.98502  0.71679  Biso   1.000  H
  H190     1.0000 0.46671  0.03691  0.68199  Biso   1.000  H
  H191     1.0000 0.46671  0.03691  0.68203  Biso   1.000  H
  C182     1.0000 0.58784  0.92980  0.85046  Biso   1.000  C
  H192     1.0000 0.65572  0.97660  0.87290  Biso   1.000  H
  C183     1.0000 0.57020  0.85046  0.91221  Biso   1.000  C
  H193     1.0000 0.62710  0.84432  0.97660  Biso   1.000  H
  C184     1.0000 0.35046  0.91221  0.07020  Biso   1.000  C
  H194     1.0000 0.34432  0.97660  0.12710  Biso   1.000  H
  C185     1.0000 0.42980  0.85046  0.08779  Biso   1.000  C
  H195     1.0000 0.47660  0.87290  0.15568  Biso   1.000  H
  C186     1.0000 0.42980  0.85046  0.08784  Biso   1.000  C
  H196     1.0000 0.47660  0.87290  0.15572  Biso   1.000  H
  H197     1.0000 0.21679  0.94129  0.98502  Biso   1.000  H
  H198     1.0000 0.21679  0.94133  0.98502  Biso   1.000  H
  N33      1.0000 0.26599  0.96481  0.05034  Biso   1.000  N
  H199     1.0000 0.18199  0.96671  0.03691  Biso   1.000  H
  N34      1.0000 0.53519  0.94966  0.76599  Biso   1.000  N
  H200     1.0000 0.53329  0.96309  0.68199  Biso   1.000  H
  H201     1.0000 0.53329  0.96309  0.68203  Biso   1.000  H
  H202     1.0000 0.53329  0.96313  0.68199  Biso   1.000  H
  H203     1.0000 0.53329  0.96313  0.68203  Biso   1.000  H
  H204     1.0000 0.55871  0.01498  0.71679  Biso   1.000  H
  H205     1.0000 0.55871  0.01503  0.71679  Biso   1.000  H
  C187     1.0000 0.57492  0.96267  0.79949  Biso   1.000  C
  C188     1.0000 0.57492  0.96267  0.79954  Biso   1.000  C
  C189     1.0000 0.57492  0.96271  0.79949  Biso   1.000  C
  C190     1.0000 0.57492  0.96271  0.79954  Biso   1.000  C
  C191     1.0000 0.55560  0.88274  0.86587  Biso   1.000  C
  C192     1.0000 0.53733  0.79949  0.92513  Biso   1.000  C
  C193     1.0000 0.53733  0.79954  0.92513  Biso   1.000  C
  C194     1.0000 0.29949  0.92513  0.03733  Biso   1.000  C
  C195     1.0000 0.38274  0.86587  0.05560  Biso   1.000  C
  C196     1.0000 0.46267  0.79949  0.07487  Biso   1.000  C
  C197     1.0000 0.46267  0.79949  0.07492  Biso   1.000  C
  C198     1.0000 0.46267  0.79954  0.07487  Biso   1.000  C
  C199     1.0000 0.46267  0.79954  0.07492  Biso   1.000  C
  H206     1.0000 0.59710  0.99491  0.79133  Biso   1.000  H
  H207     1.0000 0.52340  0.87290  0.84432  Biso   1.000  H
  N35      1.0000 0.55034  0.76599  0.96481  Biso   1.000  N
  H208     1.0000 0.50509  0.79133  0.90290  Biso   1.000  H
  H209     1.0000 0.29129  0.90290  0.00509  Biso   1.000  H
  H210     1.0000 0.37290  0.84432  0.02340  Biso   1.000  H
  N36      1.0000 0.44966  0.76599  0.03519  Biso   1.000  N
  H211     1.0000 0.49491  0.79133  0.09710  Biso   1.000  H
  C200     1.0000 0.51414  0.71662  0.97109  Biso   1.000  C
  C201     1.0000 0.48586  0.71662  0.02896  Biso   1.000  C
  H212     1.0000 0.53691  0.68199  0.96671  Biso   1.000  H
  H213     1.0000 0.48502  0.71679  0.94129  Biso   1.000  H
  H214     1.0000 0.48502  0.71679  0.94133  Biso   1.000  H
  H215     1.0000 0.53691  0.68203  0.96671  Biso   1.000  H
  H216     1.0000 0.46309  0.68199  0.03329  Biso   1.000  H
  H217     1.0000 0.51503  0.71679  0.05871  Biso   1.000  H
  H218     1.0000 0.46309  0.68199  0.03333  Biso   1.000  H
  H219     1.0000 0.46309  0.68203  0.03329  Biso   1.000  H
  H220     1.0000 0.46309  0.68203  0.03333  Biso   1.000  H
  C202     1.0000 0.20051  0.07492  0.53733  Biso   1.000  C
  N37      1.0000 0.23401  0.03519  0.55034  Biso   1.000  N
  H221     1.0000 0.20871  0.09710  0.50509  Biso   1.000  H
  C203     1.0000 0.14958  0.08779  0.57020  Biso   1.000  C
  C204     1.0000 0.14958  0.08784  0.57020  Biso   1.000  C
  C205     1.0000 0.28338  0.02896  0.51414  Biso   1.000  C
  C206     1.0000 0.20051  0.07487  0.53733  Biso   1.000  C
  C207     1.0000 0.13413  0.05560  0.61726  Biso   1.000  C
  C208     1.0000 0.11726  0.13413  0.55560  Biso   1.000  C
  C209     1.0000 0.11726  0.13418  0.55560  Biso   1.000  C
  C210     1.0000 0.13418  0.05560  0.61726  Biso   1.000  C
  H222     1.0000 0.28321  0.05871  0.48502  Biso   1.000  H
  C211     1.0000 0.28338  0.97109  0.48586  Biso   1.000  C
  H223     1.0000 0.31801  0.03329  0.53691  Biso   1.000  H
  H224     1.0000 0.31801  0.03333  0.53691  Biso   1.000  H
  H225     1.0000 0.15568  0.02340  0.62710  Biso   1.000  H
  C212     1.0000 0.08779  0.07020  0.64958  Biso   1.000  C
  H226     1.0000 0.15572  0.02340  0.62710  Biso   1.000  H
  C213     1.0000 0.08784  0.07020  0.64958  Biso   1.000  C
  H227     1.0000 0.12710  0.15568  0.52340  Biso   1.000  H
  C214     1.0000 0.07020  0.14958  0.58784  Biso   1.000  C
  H228     1.0000 0.12710  0.15572  0.52340  Biso   1.000  H
  N38      1.0000 0.23401  0.96481  0.44966  Biso   1.000  N
  H229     1.0000 0.31801  0.96671  0.46309  Biso   1.000  H
  H230     1.0000 0.28321  0.94129  0.51503  Biso   1.000  H
  H231     1.0000 0.28321  0.94133  0.51503  Biso   1.000  H
  C215     1.0000 0.05560  0.11726  0.63413  Biso   1.000  C
  C216     1.0000 0.07487  0.03733  0.70051  Biso   1.000  C
  C217     1.0000 0.07492  0.03733  0.70051  Biso   1.000  C
  C218     1.0000 0.03733  0.20051  0.57492  Biso   1.000  C
  C219     1.0000 0.20051  0.92513  0.46267  Biso   1.000  C
  H232     1.0000 0.02340  0.12710  0.65572  Biso   1.000  H
  N39      1.0000 0.03519  0.05034  0.73401  Biso   1.000  N
  H233     1.0000 0.09710  0.00509  0.70871  Biso   1.000  H
  N40      1.0000 0.05034  0.23401  0.53519  Biso   1.000  N
  H234     1.0000 0.00509  0.20871  0.59710  Biso   1.000  H
  H235     1.0000 0.20871  0.90290  0.49491  Biso   1.000  H
  C220     1.0000 0.14958  0.91221  0.42980  Biso   1.000  C
  C221     1.0000 0.02896  0.01414  0.78338  Biso   1.000  C
  C222     1.0000 0.02896  0.01418  0.78338  Biso   1.000  C
  C223     1.0000 0.01414  0.28338  0.52896  Biso   1.000  C
  C224     1.0000 0.01418  0.28338  0.52896  Biso   1.000  C
  C225     1.0000 0.13413  0.94440  0.38274  Biso   1.000  C
  C226     1.0000 0.11726  0.86587  0.44440  Biso   1.000  C
  C227     1.0000 0.13418  0.94440  0.38274  Biso   1.000  C
  C228     1.0000 0.97109  0.98586  0.78338  Biso   1.000  C
  H236     1.0000 0.05871  0.98502  0.78321  Biso   1.000  H
  H237     1.0000 0.03329  0.03691  0.81801  Biso   1.000  H
  H238     1.0000 0.03333  0.03691  0.81801  Biso   1.000  H
  H239     1.0000 0.03691  0.31801  0.53329  Biso   1.000  H
  C229     1.0000 0.98586  0.28338  0.47109  Biso   1.000  C
  H240     1.0000 0.98502  0.28321  0.55871  Biso   1.000  H
  C230     1.0000 0.08779  0.92980  0.35046  Biso   1.000  C
  H241     1.0000 0.15568  0.97660  0.37290  Biso   1.000  H
  C231     1.0000 0.08784  0.92980  0.35046  Biso   1.000  C
  H242     1.0000 0.15572  0.97660  0.37290  Biso   1.000  H
  C232     1.0000 0.07020  0.85046  0.41221  Biso   1.000  C
  H243     1.0000 0.12710  0.84432  0.47660  Biso   1.000  H
  N41      1.0000 0.96481  0.94966  0.73401  Biso   1.000  N
  H244     1.0000 0.96671  0.96309  0.81801  Biso   1.000  H
  H245     1.0000 0.96671  0.96313  0.81801  Biso   1.000  H
  H246     1.0000 0.94129  0.01498  0.78321  Biso   1.000  H
  H247     1.0000 0.94129  0.01503  0.78321  Biso   1.000  H
  H248     1.0000 0.94133  0.01498  0.78321  Biso   1.000  H
  H249     1.0000 0.94133  0.01503  0.78321  Biso   1.000  H
  N42      1.0000 0.94966  0.23401  0.46481  Biso   1.000  N
  H250     1.0000 0.96309  0.31801  0.46671  Biso   1.000  H
  H251     1.0000 0.96313  0.31801  0.46671  Biso   1.000  H
  H252     1.0000 0.01498  0.28321  0.44129  Biso   1.000  H
  H253     1.0000 0.01503  0.28321  0.44129  Biso   1.000  H
  C233     1.0000 0.07487  0.96267  0.29949  Biso   1.000  C
  C234     1.0000 0.05560  0.88274  0.36587  Biso   1.000  C
  C235     1.0000 0.07487  0.96271  0.29949  Biso   1.000  C
  C236     1.0000 0.07492  0.96267  0.29949  Biso   1.000  C
  C237     1.0000 0.07492  0.96271  0.29949  Biso   1.000  C
  C238     1.0000 0.03733  0.79949  0.42513  Biso   1.000  C
  C239     1.0000 0.03733  0.79954  0.42513  Biso   1.000  C
  C240     1.0000 0.92513  0.96267  0.70051  Biso   1.000  C
  C241     1.0000 0.92513  0.96271  0.70051  Biso   1.000  C
  C242     1.0000 0.96267  0.20051  0.42513  Biso   1.000  C
  C243     1.0000 0.96271  0.20051  0.42513  Biso   1.000  C
  N43      1.0000 0.03519  0.94966  0.26599  Biso   1.000  N
  H254     1.0000 0.09710  0.99491  0.29129  Biso   1.000  H
  H255     1.0000 0.02340  0.87290  0.34432  Biso   1.000  H
  N44      1.0000 0.05034  0.76599  0.46481  Biso   1.000  N
  H256     1.0000 0.00509  0.79133  0.40290  Biso   1.000  H
  H257     1.0000 0.90290  0.99491  0.70871  Biso   1.000  H
  C244     1.0000 0.91221  0.92980  0.64958  Biso   1.000  C
  H258     1.0000 0.99491  0.20871  0.40290  Biso   1.000  H
  C245     1.0000 0.92980  0.14958  0.41221  Biso   1.000  C
  C246     1.0000 0.02896  0.98586  0.21662  Biso   1.000  C
  C247     1.0000 0.01414  0.71662  0.47109  Biso   1.000  C
  C248     1.0000 0.01418  0.71662  0.47109  Biso   1.000  C
  C249     1.0000 0.94440  0.88274  0.63413  Biso   1.000  C
  C250     1.0000 0.86587  0.94440  0.61726  Biso   1.000  C
  C251     1.0000 0.94440  0.11726  0.36587  Biso   1.000  C
  C252     1.0000 0.88274  0.13413  0.44440  Biso   1.000  C
  C253     1.0000 0.88274  0.13418  0.44440  Biso   1.000  C
  C254     1.0000 0.97109  0.01414  0.21662  Biso   1.000  C
  C255     1.0000 0.97109  0.01418  0.21662  Biso   1.000  C
  H259     1.0000 0.03329  0.96309  0.18199  Biso   1.000  H
  H260     1.0000 0.03329  0.96313  0.18199  Biso   1.000  H
  H261     1.0000 0.03333  0.96309  0.18199  Biso   1.000  H
  H262     1.0000 0.03333  0.96313  0.18199  Biso   1.000  H
  H263     1.0000 0.05871  0.01498  0.21679  Biso   1.000  H
  H264     1.0000 0.05871  0.01503  0.21679  Biso   1.000  H
  C256     1.0000 0.98586  0.71662  0.52896  Biso   1.000  C
  H265     1.0000 0.98502  0.71679  0.44129  Biso   1.000  H
  H266     1.0000 0.03691  0.68199  0.46671  Biso   1.000  H
  H267     1.0000 0.03691  0.68203  0.46671  Biso   1.000  H
  C257     1.0000 0.92980  0.85046  0.58784  Biso   1.000  C
  H268     1.0000 0.97660  0.87290  0.65572  Biso   1.000  H
  C258     1.0000 0.85046  0.91221  0.57020  Biso   1.000  C
  H269     1.0000 0.84432  0.97660  0.62710  Biso   1.000  H
  C259     1.0000 0.91221  0.07020  0.35046  Biso   1.000  C
  H270     1.0000 0.97660  0.12710  0.34432  Biso   1.000  H
  C260     1.0000 0.85046  0.08779  0.42980  Biso   1.000  C
  H271     1.0000 0.87290  0.15568  0.47660  Biso   1.000  H
  C261     1.0000 0.85046  0.08784  0.42980  Biso   1.000  C
  H272     1.0000 0.87290  0.15572  0.47660  Biso   1.000  H
  H273     1.0000 0.94129  0.98502  0.21679  Biso   1.000  H
  H274     1.0000 0.94133  0.98502  0.21679  Biso   1.000  H
  N45      1.0000 0.96481  0.05034  0.26599  Biso   1.000  N
  H275     1.0000 0.96671  0.03691  0.18199  Biso   1.000  H
  N46      1.0000 0.94966  0.76599  0.53519  Biso   1.000  N
  H276     1.0000 0.96309  0.68199  0.53329  Biso   1.000  H
  H277     1.0000 0.96309  0.68203  0.53329  Biso   1.000  H
  H278     1.0000 0.96313  0.68199  0.53329  Biso   1.000  H
  H279     1.0000 0.96313  0.68203  0.53329  Biso   1.000  H
  H280     1.0000 0.01498  0.71679  0.55871  Biso   1.000  H
  H281     1.0000 0.01503  0.71679  0.55871  Biso   1.000  H
  C262     1.0000 0.96267  0.79949  0.57492  Biso   1.000  C
  C263     1.0000 0.96267  0.79954  0.57492  Biso   1.000  C
  C264     1.0000 0.96271  0.79949  0.57492  Biso   1.000  C
  C265     1.0000 0.96271  0.79954  0.57492  Biso   1.000  C
  C266     1.0000 0.88274  0.86587  0.55560  Biso   1.000  C
  C267     1.0000 0.79949  0.92513  0.53733  Biso   1.000  C
  C268     1.0000 0.79954  0.92513  0.53733  Biso   1.000  C
  C269     1.0000 0.92513  0.03733  0.29949  Biso   1.000  C
  C270     1.0000 0.86587  0.05560  0.38274  Biso   1.000  C
  C271     1.0000 0.79949  0.07487  0.46267  Biso   1.000  C
  C272     1.0000 0.79949  0.07492  0.46267  Biso   1.000  C
  C273     1.0000 0.79954  0.07487  0.46267  Biso   1.000  C
  C274     1.0000 0.79954  0.07492  0.46267  Biso   1.000  C
  H282     1.0000 0.99491  0.79133  0.59710  Biso   1.000  H
  H283     1.0000 0.87290  0.84432  0.52340  Biso   1.000  H
  N47      1.0000 0.76599  0.96481  0.55034  Biso   1.000  N
  H284     1.0000 0.79133  0.90290  0.50509  Biso   1.000  H
  H285     1.0000 0.90290  0.00509  0.29129  Biso   1.000  H
  H286     1.0000 0.84432  0.02340  0.37290  Biso   1.000  H
  N48      1.0000 0.76599  0.03519  0.44966  Biso   1.000  N
  H287     1.0000 0.79133  0.09710  0.49491  Biso   1.000  H
  C275     1.0000 0.71662  0.97109  0.51414  Biso   1.000  C
  C276     1.0000 0.71662  0.02896  0.48586  Biso   1.000  C
  H288     1.0000 0.68199  0.96671  0.53691  Biso   1.000  H
  H289     1.0000 0.71679  0.94129  0.48502  Biso   1.000  H
  H290     1.0000 0.71679  0.94133  0.48502  Biso   1.000  H
  H291     1.0000 0.68203  0.96671  0.53691  Biso   1.000  H
  H292     1.0000 0.68199  0.03329  0.46309  Biso   1.000  H
  H293     1.0000 0.71679  0.05871  0.51503  Biso   1.000  H
  H294     1.0000 0.68199  0.03333  0.46309  Biso   1.000  H
  H295     1.0000 0.68203  0.03329  0.46309  Biso   1.000  H
  H296     1.0000 0.68203  0.03333  0.46309  Biso   1.000  H
  C277     1.0000 0.07492  0.53733  0.20051  Biso   1.000  C
  C278     1.0000 0.08779  0.57020  0.14958  Biso   1.000  C
  C279     1.0000 0.08784  0.57020  0.14958  Biso   1.000  C
  N49      1.0000 0.03519  0.55034  0.23401  Biso   1.000  N
  H297     1.0000 0.09710  0.50509  0.20871  Biso   1.000  H
  C280     1.0000 0.13413  0.55560  0.11726  Biso   1.000  C
  C281     1.0000 0.13418  0.55560  0.11726  Biso   1.000  C
  C282     1.0000 0.05560  0.61726  0.13413  Biso   1.000  C
  C283     1.0000 0.05560  0.61726  0.13418  Biso   1.000  C
  C284     1.0000 0.07487  0.53733  0.20051  Biso   1.000  C
  C285     1.0000 0.02896  0.51414  0.28338  Biso   1.000  C
  C286     1.0000 0.14958  0.58784  0.07020  Biso   1.000  C
  H298     1.0000 0.15568  0.52340  0.12710  Biso   1.000  H
  H299     1.0000 0.15572  0.52340  0.12710  Biso   1.000  H
  C287     1.0000 0.07020  0.64958  0.08779  Biso   1.000  C
  C288     1.0000 0.07020  0.64958  0.08784  Biso   1.000  C
  H300     1.0000 0.02340  0.62710  0.15568  Biso   1.000  H
  H301     1.0000 0.02340  0.62710  0.15572  Biso   1.000  H
  H302     1.0000 0.05871  0.48502  0.28321  Biso   1.000  H
  C289     1.0000 0.97109  0.48586  0.28338  Biso   1.000  C
  H303     1.0000 0.03329  0.53691  0.31801  Biso   1.000  H
  H304     1.0000 0.03333  0.53691  0.31801  Biso   1.000  H
  C290     1.0000 0.20051  0.57492  0.03733  Biso   1.000  C
  C291     1.0000 0.11726  0.63413  0.05560  Biso   1.000  C
  C292     1.0000 0.03733  0.70051  0.07487  Biso   1.000  C
  C293     1.0000 0.03733  0.70051  0.07492  Biso   1.000  C
  N50      1.0000 0.96481  0.44966  0.23401  Biso   1.000  N
  H305     1.0000 0.96671  0.46309  0.31801  Biso   1.000  H
  H306     1.0000 0.94129  0.51503  0.28321  Biso   1.000  H
  H307     1.0000 0.94133  0.51503  0.28321  Biso   1.000  H
  N51      1.0000 0.23401  0.53519  0.05034  Biso   1.000  N
  H308     1.0000 0.20871  0.59710  0.00509  Biso   1.000  H
  H309     1.0000 0.12710  0.65572  0.02340  Biso   1.000  H
  N52      1.0000 0.05034  0.73401  0.03519  Biso   1.000  N
  H310     1.0000 0.00509  0.70871  0.09710  Biso   1.000  H
  C294     1.0000 0.92513  0.46267  0.20051  Biso   1.000  C
  C295     1.0000 0.28338  0.52896  0.01414  Biso   1.000  C
  C296     1.0000 0.28338  0.52896  0.01418  Biso   1.000  C
  C297     1.0000 0.01414  0.78338  0.02896  Biso   1.000  C
  C298     1.0000 0.01418  0.78338  0.02896  Biso   1.000  C
  H311     1.0000 0.90290  0.49491  0.20871  Biso   1.000  H
  C299     1.0000 0.91221  0.42980  0.14958  Biso   1.000  C
  H312     1.0000 0.31801  0.53329  0.03691  Biso   1.000  H
  C300     1.0000 0.28338  0.47109  0.98586  Biso   1.000  C
  H313     1.0000 0.28321  0.55871  0.98502  Biso   1.000  H
  C301     1.0000 0.98586  0.78338  0.97109  Biso   1.000  C
  H314     1.0000 0.98502  0.78321  0.05871  Biso   1.000  H
  H315     1.0000 0.03691  0.81801  0.03329  Biso   1.000  H
  H316     1.0000 0.03691  0.81801  0.03333  Biso   1.000  H
  C302     1.0000 0.94440  0.38274  0.13413  Biso   1.000  C
  C303     1.0000 0.86587  0.44440  0.11726  Biso   1.000  C
  C304     1.0000 0.94440  0.38274  0.13418  Biso   1.000  C
  N53      1.0000 0.23401  0.46481  0.94966  Biso   1.000  N
  H317     1.0000 0.31801  0.46671  0.96309  Biso   1.000  H
  H318     1.0000 0.31801  0.46671  0.96313  Biso   1.000  H
  H319     1.0000 0.28321  0.44129  0.01498  Biso   1.000  H
  H320     1.0000 0.28321  0.44129  0.01503  Biso   1.000  H
  N54      1.0000 0.94966  0.73401  0.96481  Biso   1.000  N
  H321     1.0000 0.96309  0.81801  0.96671  Biso   1.000  H
  H322     1.0000 0.96313  0.81801  0.96671  Biso   1.000  H
  H323     1.0000 0.01498  0.78321  0.94129  Biso   1.000  H
  H324     1.0000 0.01498  0.78321  0.94133  Biso   1.000  H
  H325     1.0000 0.01503  0.78321  0.94129  Biso   1.000  H
  H326     1.0000 0.01503  0.78321  0.94133  Biso   1.000  H
  C305     1.0000 0.92980  0.35046  0.08779  Biso   1.000  C
  H327     1.0000 0.97660  0.37290  0.15568  Biso   1.000  H
  C306     1.0000 0.92980  0.35046  0.08784  Biso   1.000  C
  H328     1.0000 0.97660  0.37290  0.15572  Biso   1.000  H
  C307     1.0000 0.85046  0.41221  0.07020  Biso   1.000  C
  H329     1.0000 0.84432  0.47660  0.12710  Biso   1.000  H
  C308     1.0000 0.20051  0.42513  0.96267  Biso   1.000  C
  C309     1.0000 0.20051  0.42513  0.96271  Biso   1.000  C
  C310     1.0000 0.96267  0.70051  0.92513  Biso   1.000  C
  C311     1.0000 0.96271  0.70051  0.92513  Biso   1.000  C
  C312     1.0000 0.96267  0.29949  0.07487  Biso   1.000  C
  C313     1.0000 0.96267  0.29949  0.07492  Biso   1.000  C
  C314     1.0000 0.96271  0.29949  0.07487  Biso   1.000  C
  C315     1.0000 0.96271  0.29949  0.07492  Biso   1.000  C
  C316     1.0000 0.88274  0.36587  0.05560  Biso   1.000  C
  C317     1.0000 0.79949  0.42513  0.03733  Biso   1.000  C
  C318     1.0000 0.79954  0.42513  0.03733  Biso   1.000  C
  H330     1.0000 0.20871  0.40290  0.99491  Biso   1.000  H
  C319     1.0000 0.14958  0.41221  0.92980  Biso   1.000  C
  H331     1.0000 0.99491  0.70871  0.90290  Biso   1.000  H
  C320     1.0000 0.92980  0.64958  0.91221  Biso   1.000  C
  N55      1.0000 0.94966  0.26599  0.03519  Biso   1.000  N
  H332     1.0000 0.99491  0.29129  0.09710  Biso   1.000  H
  H333     1.0000 0.87290  0.34432  0.02340  Biso   1.000  H
  N56      1.0000 0.76599  0.46481  0.05034  Biso   1.000  N
  H334     1.0000 0.79133  0.40290  0.00509  Biso   1.000  H
  C321     1.0000 0.11726  0.36587  0.94440  Biso   1.000  C
  C322     1.0000 0.13413  0.44440  0.88274  Biso   1.000  C
  C323     1.0000 0.13418  0.44440  0.88274  Biso   1.000  C
  C324     1.0000 0.88274  0.63413  0.94440  Biso   1.000  C
  C325     1.0000 0.94440  0.61726  0.86587  Biso   1.000  C
  C326     1.0000 0.98586  0.21662  0.02896  Biso   1.000  C
  C327     1.0000 0.71662  0.47109  0.01414  Biso   1.000  C
  C328     1.0000 0.71662  0.47109  0.01418  Biso   1.000  C
  C329     1.0000 0.07020  0.35046  0.91221  Biso   1.000  C
  H335     1.0000 0.12710  0.34432  0.97660  Biso   1.000  H
  C330     1.0000 0.08779  0.42980  0.85046  Biso   1.000  C
  H336     1.0000 0.15568  0.47660  0.87290  Biso   1.000  H
  C331     1.0000 0.08784  0.42980  0.85046  Biso   1.000  C
  H337     1.0000 0.15572  0.47660  0.87290  Biso   1.000  H
  C332     1.0000 0.85046  0.58784  0.92980  Biso   1.000  C
  H338     1.0000 0.87290  0.65572  0.97660  Biso   1.000  H
  C333     1.0000 0.91221  0.57020  0.85046  Biso   1.000  C
  H339     1.0000 0.97660  0.62710  0.84432  Biso   1.000  H
  C334     1.0000 0.01414  0.21662  0.97109  Biso   1.000  C
  C335     1.0000 0.01418  0.21662  0.97109  Biso   1.000  C
  H340     1.0000 0.96309  0.18199  0.03329  Biso   1.000  H
  H341     1.0000 0.96309  0.18199  0.03333  Biso   1.000  H
  H342     1.0000 0.96313  0.18199  0.03329  Biso   1.000  H
  H343     1.0000 0.96313  0.18199  0.03333  Biso   1.000  H
  H344     1.0000 0.01498  0.21679  0.05871  Biso   1.000  H
  H345     1.0000 0.01503  0.21679  0.05871  Biso   1.000  H
  C336     1.0000 0.71662  0.52896  0.98586  Biso   1.000  C
  H346     1.0000 0.71679  0.44129  0.98502  Biso   1.000  H
  H347     1.0000 0.68199  0.46671  0.03691  Biso   1.000  H
  H348     1.0000 0.68203  0.46671  0.03691  Biso   1.000  H
  C337     1.0000 0.03733  0.29949  0.92513  Biso   1.000  C
  C338     1.0000 0.05560  0.38274  0.86587  Biso   1.000  C
  C339     1.0000 0.07487  0.46267  0.79949  Biso   1.000  C
  C340     1.0000 0.07487  0.46267  0.79954  Biso   1.000  C
  C341     1.0000 0.07492  0.46267  0.79949  Biso   1.000  C
  C342     1.0000 0.07492  0.46267  0.79954  Biso   1.000  C
  C343     1.0000 0.79949  0.57492  0.96267  Biso   1.000  C
  C344     1.0000 0.86587  0.55560  0.88274  Biso   1.000  C
  C345     1.0000 0.79949  0.57492  0.96271  Biso   1.000  C
  C346     1.0000 0.79954  0.57492  0.96267  Biso   1.000  C
  C347     1.0000 0.79954  0.57492  0.96271  Biso   1.000  C
  C348     1.0000 0.92513  0.53733  0.79949  Biso   1.000  C
  C349     1.0000 0.92513  0.53733  0.79954  Biso   1.000  C
  N57      1.0000 0.05034  0.26599  0.96481  Biso   1.000  N
  H349     1.0000 0.98502  0.21679  0.94129  Biso   1.000  H
  H350     1.0000 0.98502  0.21679  0.94133  Biso   1.000  H
  H351     1.0000 0.03691  0.18199  0.96671  Biso   1.000  H
  N58      1.0000 0.76599  0.53519  0.94966  Biso   1.000  N
  H352     1.0000 0.68199  0.53329  0.96309  Biso   1.000  H
  H353     1.0000 0.68199  0.53329  0.96313  Biso   1.000  H
  H354     1.0000 0.68203  0.53329  0.96309  Biso   1.000  H
  H355     1.0000 0.68203  0.53329  0.96313  Biso   1.000  H
  H356     1.0000 0.71679  0.55871  0.01498  Biso   1.000  H
  H357     1.0000 0.71679  0.55871  0.01503  Biso   1.000  H
  H358     1.0000 0.00509  0.29129  0.90290  Biso   1.000  H
  H359     1.0000 0.02340  0.37290  0.84432  Biso   1.000  H
  N59      1.0000 0.03519  0.44966  0.76599  Biso   1.000  N
  H360     1.0000 0.09710  0.49491  0.79133  Biso   1.000  H
  H361     1.0000 0.79133  0.59710  0.99491  Biso   1.000  H
  H362     1.0000 0.84432  0.52340  0.87290  Biso   1.000  H
  N60      1.0000 0.96481  0.55034  0.76599  Biso   1.000  N
  H363     1.0000 0.90290  0.50509  0.79133  Biso   1.000  H
  C350     1.0000 0.02896  0.48586  0.71662  Biso   1.000  C
  C351     1.0000 0.97109  0.51414  0.71662  Biso   1.000  C
  H364     1.0000 0.03329  0.46309  0.68199  Biso   1.000  H
  H365     1.0000 0.05871  0.51503  0.71679  Biso   1.000  H
  H366     1.0000 0.03329  0.46309  0.68203  Biso   1.000  H
  H367     1.0000 0.03333  0.46309  0.68199  Biso   1.000  H
  H368     1.0000 0.03333  0.46309  0.68203  Biso   1.000  H
  H369     1.0000 0.96671  0.53691  0.68199  Biso   1.000  H
  H370     1.0000 0.94129  0.48502  0.71679  Biso   1.000  H
  H371     1.0000 0.96671  0.53691  0.68203  Biso   1.000  H
  H372     1.0000 0.94133  0.48502  0.71679  Biso   1.000  H
  C352     1.0000 0.71953  0.23918  0.36338  Biso   1.000  C
  C353     1.0000 0.71343  0.21040  0.41035  Biso   1.000  C
  H373     1.0000 0.72513  0.27290  0.34621  Biso   1.000  H
  H374     1.0000 0.69272  0.27109  0.36221  Biso   1.000  H
  H375     1.0000 0.71271  0.21481  0.33030  Biso   1.000  H
  C354     1.0000 0.78051  0.26082  0.36338  Biso   1.000  C
  C355     1.0000 0.72012  0.23859  0.46776  Biso   1.000  C
  H376     1.0000 0.67353  0.20960  0.39840  Biso   1.000  H
  H377     1.0000 0.72832  0.17151  0.41082  Biso   1.000  H
  C356     1.0000 0.75000  0.25000  0.37054  Biso   1.000  C
  C357     1.0000 0.78657  0.28960  0.41035  Biso   1.000  C
  H378     1.0000 0.77492  0.22710  0.34621  Biso   1.000  H
  H379     1.0000 0.80732  0.22891  0.36221  Biso   1.000  H
  H380     1.0000 0.78729  0.28519  0.33030  Biso   1.000  H
  N61      1.0000 0.71094  0.20017  0.51439  Biso   1.000  N
  C358     1.0000 0.77988  0.26141  0.46776  Biso   1.000  C
  H381     1.0000 0.69301  0.27071  0.47071  Biso   1.000  H
  H382     1.0000 0.82652  0.29040  0.39840  Biso   1.000  H
  H383     1.0000 0.77172  0.32849  0.41082  Biso   1.000  H
  C359     1.0000 0.67285  0.21296  0.54912  Biso   1.000  C
  N62      1.0000 0.78910  0.29987  0.51439  Biso   1.000  N
  H384     1.0000 0.80703  0.22929  0.47071  Biso   1.000  H
  H385     1.0000 0.65173  0.24630  0.54272  Biso   1.000  H
  C360     1.0000 0.65964  0.17870  0.59899  Biso   1.000  C
  C361     1.0000 0.82715  0.28704  0.54912  Biso   1.000  C
  C362     1.0000 0.69230  0.13190  0.61347  Biso   1.000  C
  C363     1.0000 0.61347  0.19230  0.63190  Biso   1.000  C
  H386     1.0000 0.84832  0.25370  0.54272  Biso   1.000  H
  C364     1.0000 0.84040  0.32130  0.59899  Biso   1.000  C
  C365     1.0000 0.67870  0.09899  0.65964  Biso   1.000  C
  H387     1.0000 0.72420  0.12260  0.59129  Biso   1.000  H
  C366     1.0000 0.59899  0.15964  0.67870  Biso   1.000  C
  H388     1.0000 0.59129  0.22420  0.62260  Biso   1.000  H
  C367     1.0000 0.80770  0.36810  0.61347  Biso   1.000  C
  C368     1.0000 0.88657  0.30770  0.63190  Biso   1.000  C
  C369     1.0000 0.71296  0.04907  0.67285  Biso   1.000  C
  C370     1.0000 0.63190  0.11343  0.69230  Biso   1.000  C
  C371     1.0000 0.54912  0.17285  0.71296  Biso   1.000  C
  C372     1.0000 0.82130  0.40105  0.65964  Biso   1.000  C
  H389     1.0000 0.77580  0.37740  0.59129  Biso   1.000  H
  C373     1.0000 0.90105  0.34040  0.67870  Biso   1.000  C
  H390     1.0000 0.90871  0.27580  0.62260  Biso   1.000  H
  N63      1.0000 0.70017  0.01435  0.71094  Biso   1.000  N
  H391     1.0000 0.74630  0.04272  0.65173  Biso   1.000  H
  H392     1.0000 0.62260  0.09129  0.72420  Biso   1.000  H
  N64      1.0000 0.51439  0.21094  0.70017  Biso   1.000  N
  H393     1.0000 0.54272  0.15168  0.74630  Biso   1.000  H
  C374     1.0000 0.78704  0.45093  0.67285  Biso   1.000  C
  C375     1.0000 0.86810  0.38657  0.69230  Biso   1.000  C
  C376     1.0000 0.95093  0.32715  0.71296  Biso   1.000  C
  C377     1.0000 0.73859  0.96776  0.72012  Biso   1.000  C
  C378     1.0000 0.46776  0.22012  0.73859  Biso   1.000  C
  N65      1.0000 0.79987  0.48565  0.71094  Biso   1.000  N
  H394     1.0000 0.75370  0.45732  0.65173  Biso   1.000  H
  H395     1.0000 0.87740  0.40871  0.72420  Biso   1.000  H
  N66      1.0000 0.98565  0.28906  0.70017  Biso   1.000  N
  H396     1.0000 0.95732  0.34832  0.74630  Biso   1.000  H
  C379     1.0000 0.76141  0.96776  0.77988  Biso   1.000  C
  H397     1.0000 0.77071  0.97071  0.69301  Biso   1.000  H
  C380     1.0000 0.71040  0.91031  0.71343  Biso   1.000  C
  C381     1.0000 0.46776  0.27988  0.76141  Biso   1.000  C
  H398     1.0000 0.47071  0.19301  0.77071  Biso   1.000  H
  C382     1.0000 0.41035  0.21343  0.71040  Biso   1.000  C
  C383     1.0000 0.76141  0.53224  0.72012  Biso   1.000  C
  C384     1.0000 0.03224  0.27988  0.73859  Biso   1.000  C
  N67      1.0000 0.79987  0.01435  0.78910  Biso   1.000  N
  H399     1.0000 0.72929  0.97071  0.80703  Biso   1.000  H
  C385     1.0000 0.78960  0.91031  0.78657  Biso   1.000  C
  H400     1.0000 0.70960  0.89840  0.67353  Biso   1.000  H
  H401     1.0000 0.67151  0.91082  0.72832  Biso   1.000  H
  C386     1.0000 0.75000  0.87054  0.75000  Biso   1.000  C
  C387     1.0000 0.73923  0.86343  0.71953  Biso   1.000  C
  N68      1.0000 0.51439  0.28906  0.79987  Biso   1.000  N
  H402     1.0000 0.47071  0.30699  0.72929  Biso   1.000  H
  C388     1.0000 0.41035  0.28657  0.78960  Biso   1.000  C
  H403     1.0000 0.39840  0.17348  0.70960  Biso   1.000  H
  H404     1.0000 0.41082  0.22828  0.67151  Biso   1.000  H
  C389     1.0000 0.37054  0.25000  0.75000  Biso   1.000  C
  C390     1.0000 0.36338  0.21949  0.73923  Biso   1.000  C
  C391     1.0000 0.73859  0.53224  0.77988  Biso   1.000  C
  H405     1.0000 0.72929  0.52929  0.69301  Biso   1.000  H
  C392     1.0000 0.78960  0.58969  0.71343  Biso   1.000  C
  C393     1.0000 0.03224  0.22012  0.76141  Biso   1.000  C
  H406     1.0000 0.02929  0.30699  0.77071  Biso   1.000  H
  C394     1.0000 0.08969  0.28657  0.71040  Biso   1.000  C
  C395     1.0000 0.78704  0.04907  0.82715  Biso   1.000  C
  H407     1.0000 0.79040  0.89840  0.82652  Biso   1.000  H
  H408     1.0000 0.82849  0.91082  0.77172  Biso   1.000  H
  C396     1.0000 0.76082  0.86343  0.78051  Biso   1.000  C
  H409     1.0000 0.72710  0.84621  0.77492  Biso   1.000  H
  H410     1.0000 0.77290  0.84621  0.72513  Biso   1.000  H
  H411     1.0000 0.77113  0.86221  0.69272  Biso   1.000  H
  H412     1.0000 0.71481  0.83030  0.71271  Biso   1.000  H
  C397     1.0000 0.54912  0.32715  0.78704  Biso   1.000  C
  H413     1.0000 0.39840  0.32652  0.79040  Biso   1.000  H
  H414     1.0000 0.41082  0.27172  0.82849  Biso   1.000  H
  C398     1.0000 0.36338  0.28051  0.76082  Biso   1.000  C
  H415     1.0000 0.34621  0.22508  0.77290  Biso   1.000  H
  H416     1.0000 0.34621  0.27492  0.72710  Biso   1.000  H
  H417     1.0000 0.36221  0.19272  0.77113  Biso   1.000  H
  H418     1.0000 0.33030  0.21271  0.71481  Biso   1.000  H
  N69      1.0000 0.70017  0.48565  0.78910  Biso   1.000  N
  H419     1.0000 0.77071  0.52929  0.80703  Biso   1.000  H
  C399     1.0000 0.71040  0.58969  0.78657  Biso   1.000  C
  H420     1.0000 0.79040  0.60160  0.67353  Biso   1.000  H
  H421     1.0000 0.82849  0.58923  0.72832  Biso   1.000  H
  C400     1.0000 0.75000  0.62950  0.75000  Biso   1.000  C
  C401     1.0000 0.76082  0.63662  0.71953  Biso   1.000  C
  N70      1.0000 0.98565  0.21094  0.79987  Biso   1.000  N
  H422     1.0000 0.02929  0.19301  0.72929  Biso   1.000  H
  C402     1.0000 0.08969  0.21343  0.78960  Biso   1.000  C
  C403     1.0000 0.12950  0.25000  0.75000  Biso   1.000  C
  H423     1.0000 0.10160  0.32652  0.70960  Biso   1.000  H
  H424     1.0000 0.08923  0.27172  0.67151  Biso   1.000  H
  C404     1.0000 0.13662  0.28051  0.73923  Biso   1.000  C
  H425     1.0000 0.75370  0.04272  0.84832  Biso   1.000  H
  C405     1.0000 0.82130  0.09899  0.84040  Biso   1.000  C
  H426     1.0000 0.72891  0.86221  0.80732  Biso   1.000  H
  H427     1.0000 0.78523  0.83030  0.78729  Biso   1.000  H
  H428     1.0000 0.54272  0.34832  0.75370  Biso   1.000  H
  C406     1.0000 0.59899  0.34040  0.82130  Biso   1.000  C
  H429     1.0000 0.36221  0.30732  0.72891  Biso   1.000  H
  H430     1.0000 0.33030  0.28729  0.78523  Biso   1.000  H
  C407     1.0000 0.71296  0.45093  0.82715  Biso   1.000  C
  H431     1.0000 0.70960  0.60160  0.82652  Biso   1.000  H
  H432     1.0000 0.67151  0.58923  0.77172  Biso   1.000  H
  C408     1.0000 0.73923  0.63662  0.78051  Biso   1.000  C
  H433     1.0000 0.72710  0.65379  0.72513  Biso   1.000  H
  H434     1.0000 0.77290  0.65379  0.77492  Biso   1.000  H
  H435     1.0000 0.72891  0.63779  0.69272  Biso   1.000  H
  H436     1.0000 0.78523  0.66970  0.71271  Biso   1.000  H
  C409     1.0000 0.95093  0.17285  0.78704  Biso   1.000  C
  H437     1.0000 0.10160  0.17348  0.79040  Biso   1.000  H
  H438     1.0000 0.08923  0.22828  0.82849  Biso   1.000  H
  C410     1.0000 0.13662  0.21949  0.76082  Biso   1.000  C
  H439     1.0000 0.15383  0.22508  0.72710  Biso   1.000  H
  H440     1.0000 0.15383  0.27492  0.77290  Biso   1.000  H
  H441     1.0000 0.13779  0.30732  0.77113  Biso   1.000  H
  H442     1.0000 0.16970  0.28729  0.71481  Biso   1.000  H
  C411     1.0000 0.86810  0.11343  0.80770  Biso   1.000  C
  C412     1.0000 0.80770  0.13190  0.88657  Biso   1.000  C
  C413     1.0000 0.61347  0.30770  0.86810  Biso   1.000  C
  C414     1.0000 0.63190  0.38657  0.80770  Biso   1.000  C
  H443     1.0000 0.74630  0.45732  0.84832  Biso   1.000  H
  C415     1.0000 0.67870  0.40105  0.84040  Biso   1.000  C
  H444     1.0000 0.77113  0.63779  0.80732  Biso   1.000  H
  H445     1.0000 0.71481  0.66970  0.78729  Biso   1.000  H
  H446     1.0000 0.95732  0.15168  0.75370  Biso   1.000  H
  C416     1.0000 0.90105  0.15964  0.82130  Biso   1.000  C
  H447     1.0000 0.13779  0.19272  0.72891  Biso   1.000  H
  H448     1.0000 0.16970  0.21271  0.78523  Biso   1.000  H
  H449     1.0000 0.87740  0.09129  0.77580  Biso   1.000  H
  C417     1.0000 0.84040  0.17870  0.90105  Biso   1.000  C
  H450     1.0000 0.77580  0.12260  0.90871  Biso   1.000  H
  C418     1.0000 0.65964  0.32130  0.90105  Biso   1.000  C
  H451     1.0000 0.59129  0.27580  0.87740  Biso   1.000  H
  H452     1.0000 0.62260  0.40871  0.77580  Biso   1.000  H
  C419     1.0000 0.69230  0.36810  0.88657  Biso   1.000  C
  C420     1.0000 0.88657  0.19230  0.86810  Biso   1.000  C
  C421     1.0000 0.82715  0.21296  0.95093  Biso   1.000  C
  C422     1.0000 0.67285  0.28704  0.95093  Biso   1.000  C
  H453     1.0000 0.72420  0.37740  0.90871  Biso   1.000  H
  H454     1.0000 0.90871  0.22420  0.87740  Biso   1.000  H
  N71      1.0000 0.78910  0.20017  0.98565  Biso   1.000  N
  H455     1.0000 0.84832  0.24630  0.95732  Biso   1.000  H
  N72      1.0000 0.71094  0.29987  0.98565  Biso   1.000  N
  H456     1.0000 0.65173  0.25370  0.95732  Biso   1.000  H
  C423     1.0000 0.77988  0.23859  0.03224  Biso   1.000  C
  C424     1.0000 0.72012  0.26141  0.03224  Biso   1.000  C
  H457     1.0000 0.80703  0.27071  0.02929  Biso   1.000  H
  C425     1.0000 0.78657  0.21040  0.08969  Biso   1.000  C
  H458     1.0000 0.69301  0.22929  0.02929  Biso   1.000  H
  C426     1.0000 0.71343  0.28960  0.08969  Biso   1.000  C
  H459     1.0000 0.82652  0.20960  0.10160  Biso   1.000  H
  H460     1.0000 0.77172  0.17151  0.08923  Biso   1.000  H
  C427     1.0000 0.75000  0.25000  0.12950  Biso   1.000  C
  C428     1.0000 0.78051  0.23918  0.13662  Biso   1.000  C
  H461     1.0000 0.67353  0.29040  0.10160  Biso   1.000  H
  H462     1.0000 0.72832  0.32849  0.08923  Biso   1.000  H
  C429     1.0000 0.71953  0.26082  0.13662  Biso   1.000  C
  H463     1.0000 0.77492  0.27290  0.15383  Biso   1.000  H
  H464     1.0000 0.72513  0.22710  0.15383  Biso   1.000  H
  H465     1.0000 0.80732  0.27109  0.13779  Biso   1.000  H
  H466     1.0000 0.78729  0.21481  0.16970  Biso   1.000  H
  H467     1.0000 0.69272  0.22891  0.13779  Biso   1.000  H
  H468     1.0000 0.71271  0.28519  0.16970  Biso   1.000  H
  C430     1.0000 0.36338  0.71953  0.23918  Biso   1.000  C
  C431     1.0000 0.41035  0.71343  0.21040  Biso   1.000  C
  C432     1.0000 0.36338  0.78051  0.26082  Biso   1.000  C
  H469     1.0000 0.34621  0.72513  0.27290  Biso   1.000  H
  H470     1.0000 0.36221  0.69272  0.27109  Biso   1.000  H
  H471     1.0000 0.33030  0.71271  0.21481  Biso   1.000  H
  C433     1.0000 0.46776  0.72012  0.23859  Biso   1.000  C
  H472     1.0000 0.39840  0.67353  0.20960  Biso   1.000  H
  H473     1.0000 0.41082  0.72832  0.17151  Biso   1.000  H
  C434     1.0000 0.37054  0.75000  0.25000  Biso   1.000  C
  C435     1.0000 0.41035  0.78657  0.28960  Biso   1.000  C
  H474     1.0000 0.34621  0.77492  0.22710  Biso   1.000  H
  H475     1.0000 0.36221  0.80732  0.22891  Biso   1.000  H
  H476     1.0000 0.33030  0.78729  0.28519  Biso   1.000  H
  N73      1.0000 0.51439  0.71094  0.20017  Biso   1.000  N
  C436     1.0000 0.46776  0.77988  0.26141  Biso   1.000  C
  H477     1.0000 0.47071  0.69301  0.27071  Biso   1.000  H
  H478     1.0000 0.39840  0.82652  0.29040  Biso   1.000  H
  H479     1.0000 0.41082  0.77172  0.32849  Biso   1.000  H
  C437     1.0000 0.54912  0.67285  0.21296  Biso   1.000  C
  N74      1.0000 0.51439  0.78910  0.29987  Biso   1.000  N
  H480     1.0000 0.47071  0.80703  0.22929  Biso   1.000  H
  C438     1.0000 0.59899  0.65964  0.17870  Biso   1.000  C
  H481     1.0000 0.54272  0.65173  0.24630  Biso   1.000  H
  C439     1.0000 0.54912  0.82715  0.28704  Biso   1.000  C
  C440     1.0000 0.63190  0.61347  0.19230  Biso   1.000  C
  C441     1.0000 0.61347  0.69230  0.13190  Biso   1.000  C
  H482     1.0000 0.54272  0.84832  0.25370  Biso   1.000  H
  C442     1.0000 0.59899  0.84040  0.32130  Biso   1.000  C
  C443     1.0000 0.67870  0.59899  0.15964  Biso   1.000  C
  H483     1.0000 0.62260  0.59129  0.22420  Biso   1.000  H
  C444     1.0000 0.65964  0.67870  0.09899  Biso   1.000  C
  H484     1.0000 0.59129  0.72420  0.12260  Biso   1.000  H
  C445     1.0000 0.61347  0.80770  0.36810  Biso   1.000  C
  C446     1.0000 0.63190  0.88657  0.30770  Biso   1.000  C
  C447     1.0000 0.71296  0.54912  0.17285  Biso   1.000  C
  C448     1.0000 0.69230  0.63190  0.11343  Biso   1.000  C
  C449     1.0000 0.67285  0.71296  0.04907  Biso   1.000  C
  C450     1.0000 0.65964  0.82130  0.40105  Biso   1.000  C
  H485     1.0000 0.59129  0.77580  0.37740  Biso   1.000  H
  C451     1.0000 0.67870  0.90105  0.34040  Biso   1.000  C
  H486     1.0000 0.62260  0.90871  0.27580  Biso   1.000  H
  N75      1.0000 0.70017  0.51439  0.21094  Biso   1.000  N
  H487     1.0000 0.74630  0.54272  0.15168  Biso   1.000  H
  H488     1.0000 0.72420  0.62260  0.09129  Biso   1.000  H
  N76      1.0000 0.71094  0.70017  0.01435  Biso   1.000  N
  H489     1.0000 0.65173  0.74630  0.04272  Biso   1.000  H
  C452     1.0000 0.67285  0.78704  0.45093  Biso   1.000  C
  C453     1.0000 0.69230  0.86810  0.38657  Biso   1.000  C
  C454     1.0000 0.71296  0.95093  0.32715  Biso   1.000  C
  C455     1.0000 0.73859  0.46776  0.22012  Biso   1.000  C
  C456     1.0000 0.72012  0.73859  0.96776  Biso   1.000  C
  N77      1.0000 0.71094  0.79987  0.48565  Biso   1.000  N
  H490     1.0000 0.65173  0.75370  0.45732  Biso   1.000  H
  H491     1.0000 0.72420  0.87740  0.40871  Biso   1.000  H
  N78      1.0000 0.70017  0.98565  0.28906  Biso   1.000  N
  H492     1.0000 0.74630  0.95732  0.34832  Biso   1.000  H
  C457     1.0000 0.71040  0.41035  0.21343  Biso   1.000  C
  C458     1.0000 0.76141  0.46776  0.27988  Biso   1.000  C
  H493     1.0000 0.77071  0.47071  0.19301  Biso   1.000  H
  C459     1.0000 0.77988  0.76141  0.96776  Biso   1.000  C
  H494     1.0000 0.69301  0.77071  0.97071  Biso   1.000  H
  C460     1.0000 0.71343  0.71040  0.91031  Biso   1.000  C
  C461     1.0000 0.72012  0.76141  0.53224  Biso   1.000  C
  C462     1.0000 0.73859  0.03224  0.27988  Biso   1.000  C
  H495     1.0000 0.70960  0.39840  0.17348  Biso   1.000  H
  H496     1.0000 0.67151  0.41082  0.22828  Biso   1.000  H
  C463     1.0000 0.75000  0.37054  0.25000  Biso   1.000  C
  C464     1.0000 0.73923  0.36338  0.21949  Biso   1.000  C
  C465     1.0000 0.78960  0.41035  0.28657  Biso   1.000  C
  N79      1.0000 0.79987  0.51439  0.28906  Biso   1.000  N
  H497     1.0000 0.72929  0.47071  0.30699  Biso   1.000  H
  N80      1.0000 0.78910  0.79987  0.01435  Biso   1.000  N
  H498     1.0000 0.80703  0.72929  0.97071  Biso   1.000  H
  C466     1.0000 0.78657  0.78960  0.91031  Biso   1.000  C
  H499     1.0000 0.67353  0.70960  0.89840  Biso   1.000  H
  H500     1.0000 0.72832  0.67151  0.91082  Biso   1.000  H
  C467     1.0000 0.75000  0.75000  0.87054  Biso   1.000  C
  C468     1.0000 0.71953  0.73923  0.86343  Biso   1.000  C
  C469     1.0000 0.77988  0.73859  0.53224  Biso   1.000  C
  H501     1.0000 0.69301  0.72929  0.52929  Biso   1.000  H
  C470     1.0000 0.71343  0.78960  0.58969  Biso   1.000  C
  C471     1.0000 0.76141  0.03224  0.22012  Biso   1.000  C
  H502     1.0000 0.77071  0.02929  0.30699  Biso   1.000  H
  C472     1.0000 0.71040  0.08969  0.28657  Biso   1.000  C
  H503     1.0000 0.72710  0.34621  0.27492  Biso   1.000  H
  H504     1.0000 0.77290  0.34621  0.22508  Biso   1.000  H
  H505     1.0000 0.77113  0.36221  0.19272  Biso   1.000  H
  H506     1.0000 0.71481  0.33030  0.21271  Biso   1.000  H
  C473     1.0000 0.76082  0.36338  0.28051  Biso   1.000  C
  H507     1.0000 0.79040  0.39840  0.32652  Biso   1.000  H
  H508     1.0000 0.82849  0.41082  0.27172  Biso   1.000  H
  C474     1.0000 0.78704  0.54912  0.32715  Biso   1.000  C
  C475     1.0000 0.82715  0.78704  0.04907  Biso   1.000  C
  H509     1.0000 0.82652  0.79040  0.89840  Biso   1.000  H
  H510     1.0000 0.77172  0.82849  0.91082  Biso   1.000  H
  C476     1.0000 0.78051  0.76082  0.86343  Biso   1.000  C
  H511     1.0000 0.77492  0.72710  0.84621  Biso   1.000  H
  H512     1.0000 0.72513  0.77290  0.84621  Biso   1.000  H
  H513     1.0000 0.69272  0.77113  0.86221  Biso   1.000  H
  H514     1.0000 0.71271  0.71481  0.83030  Biso   1.000  H
  N81      1.0000 0.78910  0.70017  0.48565  Biso   1.000  N
  H515     1.0000 0.80703  0.77071  0.52929  Biso   1.000  H
  C477     1.0000 0.78657  0.71040  0.58969  Biso   1.000  C
  C478     1.0000 0.75000  0.75000  0.62950  Biso   1.000  C
  H516     1.0000 0.67353  0.79040  0.60160  Biso   1.000  H
  H517     1.0000 0.72832  0.82849  0.58923  Biso   1.000  H
  C479     1.0000 0.71953  0.76082  0.63662  Biso   1.000  C
  N82      1.0000 0.79987  0.98565  0.21094  Biso   1.000  N
  H518     1.0000 0.72929  0.02929  0.19301  Biso   1.000  H
  C480     1.0000 0.78960  0.08969  0.21343  Biso   1.000  C
  C481     1.0000 0.75000  0.12950  0.25000  Biso   1.000  C
  H519     1.0000 0.70960  0.10160  0.32652  Biso   1.000  H
  H520     1.0000 0.67151  0.08923  0.27172  Biso   1.000  H
  C482     1.0000 0.73923  0.13662  0.28051  Biso   1.000  C
  H521     1.0000 0.72891  0.36221  0.30732  Biso   1.000  H
  H522     1.0000 0.78523  0.33030  0.28729  Biso   1.000  H
  H523     1.0000 0.75370  0.54272  0.34832  Biso   1.000  H
  C483     1.0000 0.82130  0.59899  0.34040  Biso   1.000  C
  H524     1.0000 0.84832  0.75370  0.04272  Biso   1.000  H
  C484     1.0000 0.84040  0.82130  0.09899  Biso   1.000  C
  H525     1.0000 0.80732  0.72891  0.86221  Biso   1.000  H
  H526     1.0000 0.78729  0.78523  0.83030  Biso   1.000  H
  C485     1.0000 0.82715  0.71296  0.45093  Biso   1.000  C
  H527     1.0000 0.82652  0.70960  0.60160  Biso   1.000  H
  H528     1.0000 0.77172  0.67151  0.58923  Biso   1.000  H
  C486     1.0000 0.78051  0.73923  0.63662  Biso   1.000  C
  H529     1.0000 0.77492  0.77290  0.65379  Biso   1.000  H
  H530     1.0000 0.72513  0.72710  0.65379  Biso   1.000  H
  H531     1.0000 0.69272  0.72891  0.63779  Biso   1.000  H
  H532     1.0000 0.71271  0.78523  0.66970  Biso   1.000  H
  C487     1.0000 0.78704  0.95093  0.17285  Biso   1.000  C
  H533     1.0000 0.79040  0.10160  0.17348  Biso   1.000  H
  H534     1.0000 0.82849  0.08923  0.22828  Biso   1.000  H
  C488     1.0000 0.76082  0.13662  0.21949  Biso   1.000  C
  H535     1.0000 0.72710  0.15383  0.22508  Biso   1.000  H
  H536     1.0000 0.77290  0.15383  0.27492  Biso   1.000  H
  H537     1.0000 0.77113  0.13779  0.30732  Biso   1.000  H
  H538     1.0000 0.71481  0.16970  0.28729  Biso   1.000  H
  C489     1.0000 0.86810  0.61347  0.30770  Biso   1.000  C
  C490     1.0000 0.80770  0.63190  0.38657  Biso   1.000  C
  C491     1.0000 0.80770  0.86810  0.11343  Biso   1.000  C
  C492     1.0000 0.88657  0.80770  0.13190  Biso   1.000  C
  C493     1.0000 0.84040  0.67870  0.40105  Biso   1.000  C
  H539     1.0000 0.84832  0.74630  0.45732  Biso   1.000  H
  H540     1.0000 0.80732  0.77113  0.63779  Biso   1.000  H
  H541     1.0000 0.78729  0.71481  0.66970  Biso   1.000  H
  C494     1.0000 0.82130  0.90105  0.15964  Biso   1.000  C
  H542     1.0000 0.75370  0.95732  0.15168  Biso   1.000  H
  H543     1.0000 0.72891  0.13779  0.19272  Biso   1.000  H
  H544     1.0000 0.78523  0.16970  0.21271  Biso   1.000  H
  C495     1.0000 0.90105  0.65964  0.32130  Biso   1.000  C
  H545     1.0000 0.87740  0.59129  0.27580  Biso   1.000  H
  H546     1.0000 0.77580  0.62260  0.40871  Biso   1.000  H
  H547     1.0000 0.77580  0.87740  0.09129  Biso   1.000  H
  C496     1.0000 0.90105  0.84040  0.17870  Biso   1.000  C
  H548     1.0000 0.90871  0.77580  0.12260  Biso   1.000  H
  C497     1.0000 0.88657  0.69230  0.36810  Biso   1.000  C
  C498     1.0000 0.86810  0.88657  0.19230  Biso   1.000  C
  C499     1.0000 0.95093  0.67285  0.28704  Biso   1.000  C
  C500     1.0000 0.95093  0.82715  0.21296  Biso   1.000  C
  H549     1.0000 0.90871  0.72420  0.37740  Biso   1.000  H
  H550     1.0000 0.87740  0.90871  0.22420  Biso   1.000  H
  N83      1.0000 0.98565  0.71094  0.29987  Biso   1.000  N
  H551     1.0000 0.95732  0.65173  0.25370  Biso   1.000  H
  N84      1.0000 0.98565  0.78910  0.20017  Biso   1.000  N
  H552     1.0000 0.95732  0.84832  0.24630  Biso   1.000  H
  C501     1.0000 0.03224  0.72012  0.26141  Biso   1.000  C
  C502     1.0000 0.03224  0.77988  0.23859  Biso   1.000  C
  H553     1.0000 0.02929  0.69301  0.22929  Biso   1.000  H
  C503     1.0000 0.08969  0.71343  0.28960  Biso   1.000  C
  H554     1.0000 0.02929  0.80703  0.27071  Biso   1.000  H
  C504     1.0000 0.08969  0.78657  0.21040  Biso   1.000  C
  C505     1.0000 0.12950  0.75000  0.25000  Biso   1.000  C
  H555     1.0000 0.10160  0.67353  0.29040  Biso   1.000  H
  H556     1.0000 0.08923  0.72832  0.32849  Biso   1.000  H
  C506     1.0000 0.13662  0.71953  0.26082  Biso   1.000  C
  H557     1.0000 0.10160  0.82652  0.20960  Biso   1.000  H
  H558     1.0000 0.08923  0.77172  0.17151  Biso   1.000  H
  C507     1.0000 0.13662  0.78051  0.23918  Biso   1.000  C
  H559     1.0000 0.15383  0.77492  0.27290  Biso   1.000  H
  H560     1.0000 0.15383  0.72513  0.22710  Biso   1.000  H
  H561     1.0000 0.13779  0.69272  0.22891  Biso   1.000  H
  H562     1.0000 0.16970  0.71271  0.28519  Biso   1.000  H
  H563     1.0000 0.13779  0.80732  0.27109  Biso   1.000  H
  H564     1.0000 0.16970  0.78729  0.21481  Biso   1.000  H
  C508     1.0000 0.23918  0.36338  0.71953  Biso   1.000  C
  C509     1.0000 0.21040  0.41035  0.71343  Biso   1.000  C
  H565     1.0000 0.27290  0.34621  0.72513  Biso   1.000  H
  C510     1.0000 0.26082  0.36338  0.78051  Biso   1.000  C
  H566     1.0000 0.27109  0.36221  0.69272  Biso   1.000  H
  H567     1.0000 0.21481  0.33030  0.71271  Biso   1.000  H
  C511     1.0000 0.23859  0.46776  0.72012  Biso   1.000  C
  H568     1.0000 0.20960  0.39840  0.67353  Biso   1.000  H
  H569     1.0000 0.17151  0.41082  0.72832  Biso   1.000  H
  C512     1.0000 0.25000  0.37054  0.75000  Biso   1.000  C
  C513     1.0000 0.28960  0.41035  0.78657  Biso   1.000  C
  H570     1.0000 0.22710  0.34621  0.77492  Biso   1.000  H
  H571     1.0000 0.22891  0.36221  0.80732  Biso   1.000  H
  H572     1.0000 0.28519  0.33030  0.78729  Biso   1.000  H
  N85      1.0000 0.20017  0.51439  0.71094  Biso   1.000  N
  C514     1.0000 0.26141  0.46776  0.77988  Biso   1.000  C
  H573     1.0000 0.27071  0.47071  0.69301  Biso   1.000  H
  H574     1.0000 0.29040  0.39840  0.82652  Biso   1.000  H
  H575     1.0000 0.32849  0.41082  0.77172  Biso   1.000  H
  C515     1.0000 0.21296  0.54912  0.67285  Biso   1.000  C
  N86      1.0000 0.29987  0.51439  0.78910  Biso   1.000  N
  H576     1.0000 0.22929  0.47071  0.80703  Biso   1.000  H
  H577     1.0000 0.24630  0.54272  0.65173  Biso   1.000  H
  C516     1.0000 0.17870  0.59899  0.65964  Biso   1.000  C
  C517     1.0000 0.28704  0.54912  0.82715  Biso   1.000  C
  C518     1.0000 0.13190  0.61347  0.69230  Biso   1.000  C
  C519     1.0000 0.19230  0.63190  0.61347  Biso   1.000  C
  H578     1.0000 0.25370  0.54272  0.84832  Biso   1.000  H
  C520     1.0000 0.32130  0.59899  0.84040  Biso   1.000  C
  C521     1.0000 0.09899  0.65964  0.67870  Biso   1.000  C
  H579     1.0000 0.12260  0.59129  0.72420  Biso   1.000  H
  C522     1.0000 0.15964  0.67870  0.59899  Biso   1.000  C
  H580     1.0000 0.22420  0.62260  0.59129  Biso   1.000  H
  C523     1.0000 0.30770  0.63190  0.88657  Biso   1.000  C
  C524     1.0000 0.36810  0.61347  0.80770  Biso   1.000  C
  C525     1.0000 0.04907  0.67285  0.71296  Biso   1.000  C
  C526     1.0000 0.11343  0.69230  0.63190  Biso   1.000  C
  C527     1.0000 0.17285  0.71296  0.54912  Biso   1.000  C
  C528     1.0000 0.34040  0.67870  0.90105  Biso   1.000  C
  H581     1.0000 0.27580  0.62260  0.90871  Biso   1.000  H
  C529     1.0000 0.40105  0.65964  0.82130  Biso   1.000  C
  H582     1.0000 0.37740  0.59129  0.77580  Biso   1.000  H
  N87      1.0000 0.01435  0.71094  0.70017  Biso   1.000  N
  H583     1.0000 0.04272  0.65173  0.74630  Biso   1.000  H
  H584     1.0000 0.09129  0.72420  0.62260  Biso   1.000  H
  N88      1.0000 0.21094  0.70017  0.51439  Biso   1.000  N
  H585     1.0000 0.15168  0.74630  0.54272  Biso   1.000  H
  C530     1.0000 0.32715  0.71296  0.95093  Biso   1.000  C
  C531     1.0000 0.38657  0.69230  0.86810  Biso   1.000  C
  C532     1.0000 0.45093  0.67285  0.78704  Biso   1.000  C
  C533     1.0000 0.96776  0.72012  0.73859  Biso   1.000  C
  C534     1.0000 0.22012  0.73859  0.46776  Biso   1.000  C
  N89      1.0000 0.28906  0.70017  0.98565  Biso   1.000  N
  H586     1.0000 0.34832  0.74630  0.95732  Biso   1.000  H
  H587     1.0000 0.40871  0.72420  0.87740  Biso   1.000  H
  N90      1.0000 0.48565  0.71094  0.79987  Biso   1.000  N
  H588     1.0000 0.45732  0.65173  0.75370  Biso   1.000  H
  C535     1.0000 0.96776  0.77988  0.76141  Biso   1.000  C
  H589     1.0000 0.97071  0.69301  0.77071  Biso   1.000  H
  C536     1.0000 0.91031  0.71343  0.71040  Biso   1.000  C
  C537     1.0000 0.27988  0.76141  0.46776  Biso   1.000  C
  H590     1.0000 0.19301  0.77071  0.47071  Biso   1.000  H
  C538     1.0000 0.21343  0.71040  0.41035  Biso   1.000  C
  C539     1.0000 0.27988  0.73859  0.03224  Biso   1.000  C
  C540     1.0000 0.53224  0.72012  0.76141  Biso   1.000  C
  N91      1.0000 0.01435  0.78910  0.79987  Biso   1.000  N
  H591     1.0000 0.97071  0.80703  0.72929  Biso   1.000  H
  C541     1.0000 0.91031  0.78657  0.78960  Biso   1.000  C
  C542     1.0000 0.87054  0.75000  0.75000  Biso   1.000  C
  H592     1.0000 0.89840  0.67353  0.70960  Biso   1.000  H
  H593     1.0000 0.91082  0.72832  0.67151  Biso   1.000  H
  C543     1.0000 0.86343  0.71953  0.73923  Biso   1.000  C
  N92      1.0000 0.28906  0.79987  0.51439  Biso   1.000  N
  H594     1.0000 0.30699  0.72929  0.47071  Biso   1.000  H
  C544     1.0000 0.28657  0.78960  0.41035  Biso   1.000  C
  H595     1.0000 0.17348  0.70960  0.39840  Biso   1.000  H
  H596     1.0000 0.22828  0.67151  0.41082  Biso   1.000  H
  C545     1.0000 0.25000  0.75000  0.37054  Biso   1.000  C
  C546     1.0000 0.21949  0.73923  0.36338  Biso   1.000  C
  C547     1.0000 0.22012  0.76141  0.03224  Biso   1.000  C
  H597     1.0000 0.30699  0.77071  0.02929  Biso   1.000  H
  C548     1.0000 0.28657  0.71040  0.08969  Biso   1.000  C
  C549     1.0000 0.53224  0.77988  0.73859  Biso   1.000  C
  H598     1.0000 0.52929  0.69301  0.72929  Biso   1.000  H
  C550     1.0000 0.58969  0.71343  0.78960  Biso   1.000  C
  C551     1.0000 0.04907  0.82715  0.78704  Biso   1.000  C
  H599     1.0000 0.89840  0.82652  0.79040  Biso   1.000  H
  H600     1.0000 0.91082  0.77172  0.82849  Biso   1.000  H
  C552     1.0000 0.86343  0.78051  0.76082  Biso   1.000  C
  H601     1.0000 0.84621  0.77492  0.72710  Biso   1.000  H
  H602     1.0000 0.84621  0.72513  0.77290  Biso   1.000  H
  H603     1.0000 0.86221  0.69272  0.77113  Biso   1.000  H
  H604     1.0000 0.83030  0.71271  0.71481  Biso   1.000  H
  C553     1.0000 0.32715  0.78704  0.54912  Biso   1.000  C
  H605     1.0000 0.32652  0.79040  0.39840  Biso   1.000  H
  H606     1.0000 0.27172  0.82849  0.41082  Biso   1.000  H
  C554     1.0000 0.28051  0.76082  0.36338  Biso   1.000  C
  H607     1.0000 0.22508  0.77290  0.34621  Biso   1.000  H
  H608     1.0000 0.27492  0.72710  0.34621  Biso   1.000  H
  H609     1.0000 0.19272  0.77113  0.36221  Biso   1.000  H
  H610     1.0000 0.21271  0.71481  0.33030  Biso   1.000  H
  N93      1.0000 0.21094  0.79987  0.98565  Biso   1.000  N
  H611     1.0000 0.19301  0.72929  0.02929  Biso   1.000  H
  C555     1.0000 0.21343  0.78960  0.08969  Biso   1.000  C
  H612     1.0000 0.32652  0.70960  0.10160  Biso   1.000  H
  H613     1.0000 0.27172  0.67151  0.08923  Biso   1.000  H
  C556     1.0000 0.25000  0.75000  0.12950  Biso   1.000  C
  C557     1.0000 0.28051  0.73923  0.13662  Biso   1.000  C
  N94      1.0000 0.48565  0.78910  0.70017  Biso   1.000  N
  H614     1.0000 0.52929  0.80703  0.77071  Biso   1.000  H
  C558     1.0000 0.58969  0.78657  0.71040  Biso   1.000  C
  H615     1.0000 0.60160  0.67353  0.79040  Biso   1.000  H
  H616     1.0000 0.58923  0.72832  0.82849  Biso   1.000  H
  C559     1.0000 0.62950  0.75000  0.75000  Biso   1.000  C
  C560     1.0000 0.63662  0.71953  0.76082  Biso   1.000  C
  H617     1.0000 0.04272  0.84832  0.75370  Biso   1.000  H
  C561     1.0000 0.09899  0.84040  0.82130  Biso   1.000  C
  H618     1.0000 0.86221  0.80732  0.72891  Biso   1.000  H
  H619     1.0000 0.83030  0.78729  0.78523  Biso   1.000  H
  H620     1.0000 0.34832  0.75370  0.54272  Biso   1.000  H
  C562     1.0000 0.34040  0.82130  0.59899  Biso   1.000  C
  H621     1.0000 0.30732  0.72891  0.36221  Biso   1.000  H
  H622     1.0000 0.28729  0.78523  0.33030  Biso   1.000  H
  C563     1.0000 0.17285  0.78704  0.95093  Biso   1.000  C
  H623     1.0000 0.17348  0.79040  0.10160  Biso   1.000  H
  H624     1.0000 0.22828  0.82849  0.08923  Biso   1.000  H
  C564     1.0000 0.21949  0.76082  0.13662  Biso   1.000  C
  H625     1.0000 0.22508  0.72710  0.15383  Biso   1.000  H
  H626     1.0000 0.27492  0.77290  0.15383  Biso   1.000  H
  H627     1.0000 0.30732  0.77113  0.13779  Biso   1.000  H
  H628     1.0000 0.28729  0.71481  0.16970  Biso   1.000  H
  C565     1.0000 0.45093  0.82715  0.71296  Biso   1.000  C
  H629     1.0000 0.60160  0.82652  0.70960  Biso   1.000  H
  H630     1.0000 0.58923  0.77172  0.67151  Biso   1.000  H
  C566     1.0000 0.63662  0.78051  0.73923  Biso   1.000  C
  H631     1.0000 0.65379  0.77492  0.77290  Biso   1.000  H
  H632     1.0000 0.65379  0.72513  0.72710  Biso   1.000  H
  H633     1.0000 0.63779  0.69272  0.72891  Biso   1.000  H
  H634     1.0000 0.66970  0.71271  0.78523  Biso   1.000  H
  C567     1.0000 0.13190  0.88657  0.80770  Biso   1.000  C
  C568     1.0000 0.11343  0.80770  0.86810  Biso   1.000  C
  C569     1.0000 0.30770  0.86810  0.61347  Biso   1.000  C
  C570     1.0000 0.38657  0.80770  0.63190  Biso   1.000  C
  H635     1.0000 0.15168  0.75370  0.95732  Biso   1.000  H
  C571     1.0000 0.15964  0.82130  0.90105  Biso   1.000  C
  H636     1.0000 0.19272  0.72891  0.13779  Biso   1.000  H
  H637     1.0000 0.21271  0.78523  0.16970  Biso   1.000  H
  H638     1.0000 0.45732  0.84832  0.74630  Biso   1.000  H
  C572     1.0000 0.40105  0.84040  0.67870  Biso   1.000  C
  H639     1.0000 0.63779  0.80732  0.77113  Biso   1.000  H
  H640     1.0000 0.66970  0.78729  0.71481  Biso   1.000  H
  H641     1.0000 0.12260  0.90871  0.77580  Biso   1.000  H
  C573     1.0000 0.17870  0.90105  0.84040  Biso   1.000  C
  H642     1.0000 0.09129  0.77580  0.87740  Biso   1.000  H
  C574     1.0000 0.32130  0.90105  0.65964  Biso   1.000  C
  H643     1.0000 0.27580  0.87740  0.59129  Biso   1.000  H
  H644     1.0000 0.40871  0.77580  0.62260  Biso   1.000  H
  C575     1.0000 0.19230  0.86810  0.88657  Biso   1.000  C
  C576     1.0000 0.36810  0.88657  0.69230  Biso   1.000  C
  C577     1.0000 0.21296  0.95093  0.82715  Biso   1.000  C
  C578     1.0000 0.28704  0.95093  0.67285  Biso   1.000  C
  H645     1.0000 0.22420  0.87740  0.90871  Biso   1.000  H
  H646     1.0000 0.37740  0.90871  0.72420  Biso   1.000  H
  N95      1.0000 0.20017  0.98565  0.78910  Biso   1.000  N
  H647     1.0000 0.24630  0.95732  0.84832  Biso   1.000  H
  N96      1.0000 0.29987  0.98565  0.71094  Biso   1.000  N
  H648     1.0000 0.25370  0.95732  0.65173  Biso   1.000  H
  C579     1.0000 0.23859  0.03224  0.77988  Biso   1.000  C
  C580     1.0000 0.26141  0.03224  0.72012  Biso   1.000  C
  H649     1.0000 0.27071  0.02929  0.80703  Biso   1.000  H
  C581     1.0000 0.21040  0.08969  0.78657  Biso   1.000  C
  H650     1.0000 0.22929  0.02929  0.69301  Biso   1.000  H
  C582     1.0000 0.28960  0.08969  0.71343  Biso   1.000  C
  H651     1.0000 0.20960  0.10160  0.82652  Biso   1.000  H
  H652     1.0000 0.17151  0.08923  0.77172  Biso   1.000  H
  C583     1.0000 0.25000  0.12950  0.75000  Biso   1.000  C
  C584     1.0000 0.23918  0.13662  0.78051  Biso   1.000  C
  H653     1.0000 0.29040  0.10160  0.67353  Biso   1.000  H
  H654     1.0000 0.32849  0.08923  0.72832  Biso   1.000  H
  C585     1.0000 0.26082  0.13662  0.71953  Biso   1.000  C
  H655     1.0000 0.27290  0.15383  0.77492  Biso   1.000  H
  H656     1.0000 0.22710  0.15383  0.72513  Biso   1.000  H
  H657     1.0000 0.27109  0.13779  0.80732  Biso   1.000  H
  H658     1.0000 0.21481  0.16970  0.78729  Biso   1.000  H
  H659     1.0000 0.22891  0.13779  0.69272  Biso   1.000  H
  H660     1.0000 0.28519  0.16970  0.71271  Biso   1.000  H
